data_image0
_chemical_formula_structural       PSHFeS2FeSFeHSCFeSCFeS2FeSFeS3FeS2FeS2FeSFeHS2FeS2FeHSHFeS3H2C7H4SC2HC6H4C6H4C8H4C7H3C8HCHC6H4C6H3C2HCH2SH3CH3C4HC2H4C2HCHC2H2C2HCPFeCHC2H4C7HCHCPC2H9C6PC9H9CHCHPC3H2FeC12H3CH6CH3C3HC2PC3HCH2C12H3C4H3SHCHCH2C3HC11PHPH2CHC2H2C6HC2H2CH2CH3CH4C2HCSCHSH4C3HC2HCH2C5H3CH4C4HC2HC3HC2SCH3CH2CH3C3HC3HC2H2CHCH5CHC4H2CSCHC2SH6CHCH5CH2CHCH3CHC2H7PCH4CHCHCPC2FeS2FeS2FeSFeCS2FeHSFeCSCFeS3FeS2FeS2FeSCHS2FeSCHSCFeSFeSHPC2HC2H2C7HCH4C3H5C6H4C6H4C7H4C6H3C7H3C6H4C6H4CHC2H2C3HC3HC5HSHCHCHC8HCH2CHCH4CHC2HCHCHC2HC2H2PHC2HC5H2PH5CHCHC2H4C9HC3HCHCHCHC4H2C8PC18H20C2HC3HCH4FeCH2CH2C2HCHSFeCH2C3PHC3HCH3C3HC3HSHC8HC2PHCH2CH4CSC2HC2HC2H2CHC4HCHC2HPC2H3C3HCHSC3HC2H3CHC2PC2H2C2HC2H5CH2CHCHCH3CH5C2HC2HCH2CHC4H2PH2C2HCHCH2CSCSCHCHCH2CH2CHSC3H4C2HCH2SH2C3H3C3H2CHC3H4SFeS2FeCSHCFeHS2FeS2FeHSFeSC2S2H2C7H4C4FeHC6H8FeCHC9H2C2H3CHC8H2CHCHCH3CFeHC2H2C3H2CHCHC2HCH2CHCHC3SH3CHC2H4PC3H3C13HPHCHCH4C2HSCHSH2C2H3C2H3C3SFeS2FeS2C2FeS3FeS2FeS2FeSFeCS2HC6H2CH2C2HC7HC6H3C6H5C2H2CHC2H2C2HCHCHC4H5CH2C5H4FeCHC2HC3H2CHCPC3HCHC2H3C3H3C4H4C2H2C2PH5C7HCH2C6HCHC4PHC2H6C5HPC15H2C2H6CH14CHC4HC4H2C3H2CHCHC2HC2H2CHSHSCFeSCFeSFeSHCFeS2HSHFeSFeS2HC6H2CHC3H3CHC4HCH2SC7H4C5H2CH2C2HCH2C6H2C6PC18H20C2HCHC3H4CFeH2C3HC8HCHC3HSCH2CH3CH2CSHC2H5C5HCH3PHSC5PCH2CH4C2HCH3CHC6H2PHC6HC2H2FeCPC2HC2HCHCHSFeSCFeSCFeSFeS3FeS2FeS2H2FeHS2C2HCH3C6H4C6H4C5H2C4H3CHC2HCHSHCH2C3H2CH2SCH4C6H2C6HFeH4C2HC2HCH4C2H2CHC4PC2H5CH2C5H2CH2C4H2C6HC3H2C2H3C2HC3H2C2HC3HC2PHCH4CPCH2C3FeSCFeS2FeSFeS3FeS2FeS2CHFeS3FeHSFeC2FeSCSCFeS2FeS2FeSFeHS2H2CHC6H4C6H3C2H2C2H2C6H4C6H4C2HCH2C6H4C6H4C7H2C7PC18H18C4HCHC2PCSCHC5H2CH2C3HCHC2H2S2HC11HC3H2CHCHC4H5C2HCHCH2CHCHC7PC18H6C2H13C2PH3CHC4H4CH6CHCSHSCHPC4H2C6HC3HC2HCH3CH9CHSCH3C4H4CHC2H2CHCH2FeHCHC2PH3SH2C3HC3H2CHCH2C2HCHC2HSCH2C3HC2H4CH3CH2CH2C2HC2HCHC2HC5H4CHCHCHC3SH2CHCFeCSFeS2FeSCS2FeS2FeS2FeHFeS3FeHSFeS2FeC3S2FeS2FeS2FeSHCS2HC2HC4H6C6H4C7H4C6H3C6H4C6H3C6H4C7PC18H20C3PC4HSHPHCHC6H3CH2C2H6PHC2PH2CHCH2CH4C3HC3HC4H2C13H2C4H6SH4C2H4CH2CHC3H3CH4CSHSC3SHCHC5H2C2H3CHC3HPH2C4HC2HC2H2CFeH2C2H2C2H2C3HC2HC8HC3PC4H3CHPC3HCHCHCHCHCHCHC3HC3HC3HC3HC2HC2FeCH3SHCH6SC2HC2HCH3CH3C3HCFeCH2SHCHCHCHCSH2CPHCH3CH2CH2C2H2C2HC3HC2HC3HFeHPC5HCHC2H2C3H4C2H4CFeCSFeS2HCFeS3CSCFeSCFeSFeS2CFeS2FeS2FeSFeHS2CSFeS2FeSFeSHSHCHC2HCH2C6H4C6H4C3HCHCHC6H5C6H3C7H4C6H4C6H6CHCH2CHCH2CH7CHC4PC18H19CH2C3PC10HC5HCHCSH9CH3C2HC4H4CHCHC6PC18H19PC13H10C3HC7HC4H3C3HCHC2HC3H3CHSC3SCH4C6H2C4PCSHC2HC2H2CSC2HCH5CSC5FeCHCSCH10C2H2CH4C5SCH2C4HFeCPCH3C2HCHCHCH3C2HCH2C3PH3CH2CH3CH3C4FeCSFeHSHFeS3FeS2FeS2FeSH2S2FeS2FeHSCPFeS3FeS2FeS2FeSFeCS2HC6H5C6H4C6H4C6H4C6H4C6H3C6H3C6PC9HC8H12CH7C4H3C2H3C10H3C6HCH2CHC3HC2HPCHC2HCH2PCH2C2FeCHCH2CHC3HSCH2CHPCHCH2C2HSHC2PC3HCSCHC4HCH2CHCHC2HC4H2C2H2CHC5HCPHC2HC3HC4H2CH4CHCHC2H4CHC4HCH2C3HC2H7CH4CH4C2H2C2H2C4H2CFeCH4CH2C3FeC3PCHCH2CHC10HCHCH2CHC2H6CSHC2SC3HCHCHSC4HC3SHC3PHCHCH3CH4CHC2HC2H3C2HPH2CH3C2HC3HCH3CSCHCH4CHCHC2HCH4CH2C2HC2HCSC2FeC2SCSCFeSHFeSFeSH2FeS2FeH2FeS2HS2C8H2C7H2CHC5HFeCHC6H4C5H3CH8C2PHCH2CH3CHCHSCHC3HC5HCHCHC3HCH3C2HC3H3CHC2H2C4H2CH2C2HC6HC2HCHC2HC3HC2H2C2HC2HCHCPH4CHC4H3CH2CHCH3SHCS2CH3C3FeS2FeCSHCFeS3FeHSFeS3CFeCS3C2H2C6H4CH3C7H3CHC5H2C2HC4HC2H2C3HC2H2C3HCFeC3PSHC2H2C3HC6HC2PC2HC2HC2H2FeH7C3HC3SCHCHC2H3CPH3C2H2CH2C2SCH2CH4CHFeCH5PCH2CH2C3H4CH2C6HCSFeS2HSCFeSFeS2HFeSHFeSCFeSFeS3H2C6H4C6H4C4H2CHC6PC4HC6H7CH2C6PC18H7CH2CSH2CSH4CH2CH3CHCH2CH2CH4CHC3H4C2HC9HCH2CH4CH2CHCH2CHCHC2H2C3SCFeHC3HCHCHCHSFeS2FeSCFeSFeS3HS2FeS2FeSFeS2C7H4CPCHC7H2CHC4H3C6H4CH2CHFeC4H2CHC5HCH5CH3C3HC2H3C3HCPCHC2HC2H4C2HC4H2C5HCHCHC2HC2HCH2CH2C4H2CHCH2C2HCH4C5H3C2PH2CH3C5HCH4C2HC2H4C2HC2PCHCFeHCFeS2FeS2FeHFeS3HSHFeS2FeSFeS3CSCFeS2FeSFeS2HFeHSFeS2FeSCSC7H3CHC6H2CHC6H4CHC2HC7H4C6H4C6H3C6H4C5H4C4SCHCHCHPC3H2CPC3HSCHC4PC18H2CH17C6H2CH4CH2C3HCH2C2H5C2SHC5HSPC2HCHC4HC8HCH2C2HCH2C2HPH6CHC5HCHC4HC4HCHCHFePHC4HCHC3H2C3H2CHC3HCHCH4C2SHCHSCH9C3H2C2HC2H5C2H2SHCHCHCHPHC2HPHCH3CHC3HCHC4H3C2H2CH2C2H2C3HC4HC3H3C2HCHCHC2HC2H3C2H4C2H5FeH6CHCH2CH2C2Fe2C4HC4HPHCHCHCHCFeS2FeS2FeSFeS3FeHSFeHSCFeSCSFeHCFeS2HCFeSCSFeCSFeCSCHFeHS2H3C4H3C6H5C5H2C6H4C6HCHC6H4C6H6C6H2CHC6H4CHFeHCHCH2CH2CH2C4HC2SCH2PH2C2HC4HCHC2HCHCH2C3HPC2SH2CH4C8H2CH2CHC5H5CH3CHCHCHCHC3HSCHSCHC2H2C3HCHCHC4H2PHCHCPCHC2PC2HCSH3C2H2C2HCH2C4HC6PC15H16CHC3H3CHCH2C2HC4H4CHCH4CHCHC4H3C2H2CSH4C9SHC3H2C4PC2H2C2HCSH2SHCH2C4HCHCH2C4H2CH3PCHC3H3C3HCHC3H2CSC2HCH3CHC4HPSH2CHCSHC2H2C2
_chemical_formula_sum              "P96 S384 H2304 Fe192 C2880"
_cell_length_a       60.0895
_cell_length_b       59.9934
_cell_length_c       64.8822
_cell_angle_alpha    86.705
_cell_angle_beta     86.6997
_cell_angle_gamma    87.5613

_space_group_name_H-M_alt    "P 1"
_space_group_IT_number       1

loop_
  _space_group_symop_operation_xyz
  'x, y, z'

loop_
  _atom_site_type_symbol
  _atom_site_label
  _atom_site_symmetry_multiplicity
  _atom_site_fract_x
  _atom_site_fract_y
  _atom_site_fract_z
  _atom_site_occupancy
  P   P1        1.0  0.08499  0.01861  0.16962  1.0000
  S   S1        1.0  0.08178  0.36317  0.20880  1.0000
  H   H1        1.0  0.33565  0.48165  0.03715  1.0000
  Fe  Fe1       1.0  0.10533  0.30464  0.19336  1.0000
  S   S2        1.0  0.08418  0.32692  0.17260  1.0000
  S   S3        1.0  0.12020  0.27110  0.18357  1.0000
  Fe  Fe2       1.0  0.10545  0.35471  0.18158  1.0000
  S   S4        1.0  0.11839  0.38293  0.15943  1.0000
  Fe  Fe3       1.0  0.06250  0.33330  0.20140  1.0000
  H   H2        1.0  0.35204  0.41347  0.99064  1.0000
  S   S5        1.0  0.12798  0.33196  0.20014  1.0000
  C   C1        1.0  0.02593  0.04491  0.19427  1.0000
  Fe  Fe4       1.0  0.09773  0.09523  0.21316  1.0000
  S   S6        1.0  0.09383  0.08357  0.18137  1.0000
  C   C2        1.0  0.38948  0.45915  0.11599  1.0000
  Fe  Fe5       1.0  0.08787  0.14378  0.19893  1.0000
  S   S7        1.0  0.08437  0.13524  0.16595  1.0000
  S   S8        1.0  0.07785  0.17771  0.21153  1.0000
  Fe  Fe6       1.0  0.06360  0.10712  0.17989  1.0000
  S   S9        1.0  0.03165  0.09670  0.16559  1.0000
  Fe  Fe7       1.0  0.11489  0.11212  0.17030  1.0000
  S   S10       1.0  0.14455  0.10881  0.14636  1.0000
  S   S11       1.0  0.06588  0.11638  0.21264  1.0000
  S   S12       1.0  0.11997  0.12321  0.20229  1.0000
  Fe  Fe8       1.0  0.28686  0.40440  0.08761  1.0000
  S   S13       1.0  0.26129  0.43103  0.07906  1.0000
  S   S14       1.0  0.29347  0.37770  0.06458  1.0000
  Fe  Fe9       1.0  0.29198  0.42300  0.12933  1.0000
  S   S15       1.0  0.26696  0.45136  0.12323  1.0000
  S   S16       1.0  0.30754  0.42270  0.16043  1.0000
  Fe  Fe10      1.0  0.24620  0.42481  0.11141  1.0000
  S   S17       1.0  0.20809  0.42466  0.11752  1.0000
  Fe  Fe11      1.0  0.28448  0.45499  0.09154  1.0000
  H   H3        1.0  0.24164  0.44819  0.20545  1.0000
  S   S18       1.0  0.27042  0.39641  0.11913  1.0000
  S   S19       1.0  0.31094  0.42829  0.09842  1.0000
  Fe  Fe12      1.0  0.28468  0.03797  0.08064  1.0000
  S   S20       1.0  0.25713  0.01374  0.08129  1.0000
  S   S21       1.0  0.28624  0.05991  0.05089  1.0000
  Fe  Fe13      1.0  0.29825  0.02126  0.12323  1.0000
  H   H4        1.0  0.33593  0.45979  0.07009  1.0000
  S   S22       1.0  0.32079  0.02098  0.15022  1.0000
  H   H5        1.0  0.01647  0.29124  0.16341  1.0000
  Fe  Fe14      1.0  0.24897  0.02326  0.11406  1.0000
  S   S23       1.0  0.21428  0.02635  0.13112  1.0000
  S   S24       1.0  0.31060  0.01222  0.09103  1.0000
  S   S25       1.0  0.27483  0.04939  0.11267  1.0000
  H   H6        1.0  0.20188  0.13678  0.20244  1.0000
  H   H7        1.0  0.36699  0.05592  0.03283  1.0000
  C   C3        1.0  0.41322  0.04401  0.05897  1.0000
  C   C4        1.0  0.16386  0.08570  0.14250  1.0000
  C   C5        1.0  0.16198  0.06527  0.15388  1.0000
  C   C6        1.0  0.17755  0.04740  0.15023  1.0000
  C   C7        1.0  0.19551  0.04977  0.13542  1.0000
  C   C8        1.0  0.19746  0.07023  0.12408  1.0000
  C   C9        1.0  0.18157  0.08792  0.12743  1.0000
  H   H8        1.0  0.14845  0.06325  0.16543  1.0000
  H   H9        1.0  0.17574  0.03167  0.15905  1.0000
  H   H10       1.0  0.21099  0.07230  0.11248  1.0000
  H   H11       1.0  0.18300  0.10345  0.11822  1.0000
  S   S26       1.0  0.37254  0.07759  0.99241  1.0000
  C   C10       1.0  0.48725  0.26502  0.03401  1.0000
  C   C11       1.0  0.36722  0.46541  0.12091  1.0000
  H   H12       1.0  0.39427  0.37936  0.08735  1.0000
  C   C12       1.0  0.10782  0.24536  0.19109  1.0000
  C   C13       1.0  0.08950  0.24413  0.20535  1.0000
  C   C14       1.0  0.08057  0.22327  0.21144  1.0000
  C   C15       1.0  0.08967  0.20350  0.20317  1.0000
  C   C16       1.0  0.10772  0.20477  0.18862  1.0000
  C   C17       1.0  0.11682  0.22561  0.18271  1.0000
  H   H13       1.0  0.28555  0.13980  0.00298  1.0000
  H   H14       1.0  0.23505  0.41421  0.15006  1.0000
  H   H15       1.0  0.11483  0.18969  0.18210  1.0000
  H   H16       1.0  0.13095  0.22642  0.17162  1.0000
  C   C18       1.0  0.14463  0.39264  0.14867  1.0000
  C   C19       1.0  0.16561  0.38192  0.15188  1.0000
  C   C20       1.0  0.18553  0.39126  0.14267  1.0000
  C   C21       1.0  0.18449  0.41127  0.13015  1.0000
  C   C22       1.0  0.16353  0.42167  0.12720  1.0000
  C   C23       1.0  0.14396  0.41253  0.13629  1.0000
  H   H17       1.0  0.16647  0.36661  0.16148  1.0000
  H   H18       1.0  0.20155  0.38298  0.14518  1.0000
  H   H19       1.0  0.16234  0.43705  0.11768  1.0000
  H   H20       1.0  0.12806  0.42104  0.13362  1.0000
  C   C24       1.0  0.01991  0.24554  0.20646  1.0000
  C   C25       1.0  0.41101  0.38113  0.09222  1.0000
  C   C26       1.0  0.33178  0.08355  0.18552  1.0000
  C   C27       1.0  0.34031  0.06262  0.19260  1.0000
  C   C28       1.0  0.33647  0.04349  0.18185  1.0000
  C   C29       1.0  0.32400  0.04513  0.16409  1.0000
  C   C30       1.0  0.31494  0.06597  0.15742  1.0000
  C   C31       1.0  0.31892  0.08508  0.16804  1.0000
  H   H21       1.0  0.35031  0.06127  0.20598  1.0000
  H   H22       1.0  0.34355  0.02742  0.18709  1.0000
  H   H23       1.0  0.30535  0.06747  0.14379  1.0000
  H   H24       1.0  0.31231  0.10122  0.16247  1.0000
  C   C32       1.0  0.33993  0.36015  0.19218  1.0000
  C   C33       1.0  0.34152  0.38117  0.20005  1.0000
  C   C34       1.0  0.33140  0.40011  0.19019  1.0000
  C   C35       1.0  0.31945  0.39824  0.17247  1.0000
  C   C36       1.0  0.31746  0.37716  0.16476  1.0000
  C   C37       1.0  0.32757  0.35816  0.17470  1.0000
  C   C38       1.0  0.22655  0.01141  0.02000  1.0000
  H   H25       1.0  0.33308  0.41633  0.19621  1.0000
  H   H26       1.0  0.30824  0.37552  0.15113  1.0000
  H   H27       1.0  0.32593  0.34190  0.16875  1.0000
  C   C39       1.0  0.45078  0.38071  0.08361  1.0000
  C   C40       1.0  0.35245  0.44939  0.12903  1.0000
  C   C41       1.0  0.31031  0.06196  0.03403  1.0000
  C   C42       1.0  0.33157  0.05567  0.04056  1.0000
  C   C43       1.0  0.35054  0.05998  0.02740  1.0000
  C   C44       1.0  0.34834  0.07034  0.00761  1.0000
  C   C45       1.0  0.32704  0.07554  0.00069  1.0000
  C   C46       1.0  0.30811  0.07148  0.01393  1.0000
  H   H28       1.0  0.33341  0.04839  0.05605  1.0000
  C   C47       1.0  0.31447  0.43707  0.02494  1.0000
  H   H29       1.0  0.29173  0.07637  0.00879  1.0000
  C   C48       1.0  0.35631  0.37434  0.02131  1.0000
  C   C49       1.0  0.35649  0.38583  0.03956  1.0000
  C   C50       1.0  0.33711  0.38767  0.05270  1.0000
  C   C51       1.0  0.31775  0.37725  0.04803  1.0000
  C   C52       1.0  0.31780  0.36535  0.03006  1.0000
  C   C53       1.0  0.33686  0.36423  0.01656  1.0000
  H   H30       1.0  0.37145  0.39383  0.04324  1.0000
  H   H31       1.0  0.33715  0.39704  0.06642  1.0000
  H   H32       1.0  0.30293  0.35712  0.02650  1.0000
  H   H33       1.0  0.33648  0.35542  0.00257  1.0000
  C   C54       1.0  0.47586  0.14062  0.02551  1.0000
  C   C55       1.0  0.23616  0.01371  0.21768  1.0000
  C   C56       1.0  0.19636  0.99580  0.08987  1.0000
  C   C57       1.0  0.22338  0.34308  0.21282  1.0000
  C   C58       1.0  0.99991  0.18514  0.15519  1.0000
  C   C59       1.0  0.37041  0.47375  0.02823  1.0000
  H   H34       1.0  0.18786  0.00935  0.05990  1.0000
  H   H35       1.0  0.36139  0.48268  0.11852  1.0000
  H   H36       1.0  0.30552  0.04841  0.22823  1.0000
  C   C60       1.0  0.18324  0.40708  0.19461  1.0000
  C   C61       1.0  0.15996  0.40803  0.19539  1.0000
  H   H37       1.0  0.41538  0.37426  0.21414  1.0000
  C   C62       1.0  0.33505  0.42958  0.01623  1.0000
  H   H38       1.0  0.48569  0.04205  0.04304  1.0000
  H   H39       1.0  0.36478  0.00357  0.07052  1.0000
  S   S27       1.0  0.29003  0.48720  0.07105  1.0000
  H   H40       1.0  0.29633  0.13038  0.20672  1.0000
  H   H41       1.0  0.19231  0.41986  0.18563  1.0000
  H   H42       1.0  0.15106  0.42139  0.18693  1.0000
  C   C63       1.0  0.28834  0.14671  0.20843  1.0000
  H   H43       1.0  0.48491  0.25783  0.22672  1.0000
  H   H44       1.0  0.04438  0.39522  0.20775  1.0000
  H   H45       1.0  0.04590  0.31216  0.14404  1.0000
  C   C64       1.0  0.17477  0.08429  0.19860  1.0000
  C   C65       1.0  0.19577  0.07470  0.19332  1.0000
  C   C66       1.0  0.20674  0.06053  0.20768  1.0000
  C   C67       1.0  0.45042  0.21517  0.99149  1.0000
  H   H46       1.0  0.22515  0.02672  0.04961  1.0000
  C   C68       1.0  0.31802  0.12892  0.01227  1.0000
  C   C69       1.0  0.00321  0.10001  0.17500  1.0000
  H   H47       1.0  0.16628  0.09534  0.18751  1.0000
  H   H48       1.0  0.20354  0.07834  0.17805  1.0000
  H   H49       1.0  0.22329  0.05406  0.20341  1.0000
  H   H50       1.0  0.14849  0.00886  0.99150  1.0000
  C   C70       1.0  0.47808  0.30535  0.01186  1.0000
  C   C71       1.0  0.19799  0.99691  0.06825  1.0000
  H   H51       1.0  0.26944  0.38108  0.19955  1.0000
  C   C72       1.0  0.24455  0.05187  0.00445  1.0000
  H   H52       1.0  0.11198  0.08515  0.10806  1.0000
  C   C73       1.0  0.25570  0.00291  0.20991  1.0000
  C   C74       1.0  0.09285  0.03890  0.14901  1.0000
  H   H53       1.0  0.27926  0.44054  0.02168  1.0000
  H   H54       1.0  0.39405  0.26270  0.00814  1.0000
  C   C75       1.0  0.30737  0.24766  0.22763  1.0000
  C   C76       1.0  0.04191  0.03412  0.18138  1.0000
  H   H55       1.0  0.29996  0.38129  0.22061  1.0000
  C   C77       1.0  0.12430  0.02588  0.18862  1.0000
  P   P2        1.0  0.01431  0.24443  0.17950  1.0000
  Fe  Fe15      1.0  0.10364  0.33898  0.22679  1.0000
  C   C78       1.0  0.01528  0.21555  0.17247  1.0000
  H   H56       1.0  0.31798  0.31035  0.21504  1.0000
  C   C79       1.0  0.03332  0.17845  0.17398  1.0000
  C   C80       1.0  0.01702  0.17056  0.16208  1.0000
  H   H57       1.0  0.43581  0.10966  0.99326  1.0000
  H   H58       1.0  0.22158  0.01468  0.20855  1.0000
  H   H59       1.0  0.30226  0.20107  0.20669  1.0000
  H   H60       1.0  0.36719  0.14504  0.98866  1.0000
  C   C81       1.0  0.02984  0.26421  0.21352  1.0000
  C   C82       1.0  0.03575  0.25976  0.16480  1.0000
  C   C83       1.0  0.03203  0.28251  0.15904  1.0000
  C   C84       1.0  0.04878  0.29455  0.14817  1.0000
  C   C85       1.0  0.06955  0.28418  0.14342  1.0000
  C   C86       1.0  0.07360  0.26177  0.14955  1.0000
  C   C87       1.0  0.05680  0.24957  0.16016  1.0000
  H   H61       1.0  0.23101  0.00152  0.98838  1.0000
  C   C88       1.0  0.29613  0.00674  0.00265  1.0000
  H   H62       1.0  0.33234  0.28231  0.19064  1.0000
  C   C89       1.0  0.37057  0.44917  0.06641  1.0000
  P   P3        1.0  0.26597  0.41518  0.23132  1.0000
  C   C90       1.0  0.22628  0.42033  0.99828  1.0000
  C   C91       1.0  0.03565  0.39976  0.17627  1.0000
  H   H63       1.0  0.01773  0.15314  0.15827  1.0000
  H   H64       1.0  0.20631  0.10295  0.22642  1.0000
  H   H65       1.0  0.44217  0.22560  0.00294  1.0000
  H   H66       1.0  0.40042  0.03665  0.06937  1.0000
  H   H67       1.0  0.31336  0.44449  0.03983  1.0000
  H   H68       1.0  0.03445  0.27809  0.20295  1.0000
  H   H69       1.0  0.46474  0.37854  0.07250  1.0000
  H   H70       1.0  0.09003  0.25401  0.14665  1.0000
  H   H71       1.0  0.06069  0.23244  0.16515  1.0000
  C   C92       1.0  0.35220  0.33716  0.13152  1.0000
  C   C93       1.0  0.33665  0.34361  0.11692  1.0000
  C   C94       1.0  0.33754  0.36466  0.10665  1.0000
  C   C95       1.0  0.35400  0.37927  0.11086  1.0000
  C   C96       1.0  0.36941  0.37315  0.12587  1.0000
  C   C97       1.0  0.36843  0.35188  0.13610  1.0000
  P   P4        1.0  0.39137  0.39160  0.13069  1.0000
  C   C98       1.0  0.39920  0.38638  0.15714  1.0000
  C   C99       1.0  0.41470  0.38650  0.11251  1.0000
  C   C100      1.0  0.45458  0.38624  0.10370  1.0000
  C   C101      1.0  0.43662  0.38933  0.11806  1.0000
  C   C102      1.0  0.41413  0.36851  0.16230  1.0000
  C   C103      1.0  0.38203  0.42055  0.12688  1.0000
  C   C104      1.0  0.35983  0.42708  0.13203  1.0000
  C   C105      1.0  0.35103  0.47295  0.04137  1.0000
  C   C106      1.0  0.39691  0.43682  0.11901  1.0000
  H   H72       1.0  0.35132  0.32096  0.13976  1.0000
  H   H73       1.0  0.32376  0.33243  0.11363  1.0000
  H   H74       1.0  0.32533  0.36966  0.09546  1.0000
  H   H75       1.0  0.35456  0.39536  0.10243  1.0000
  H   H76       1.0  0.37983  0.34665  0.14789  1.0000
  H   H77       1.0  0.43986  0.39429  0.13337  1.0000
  H   H78       1.0  0.42102  0.35766  0.15058  1.0000
  H   H79       1.0  0.34822  0.41489  0.13841  1.0000
  H   H80       1.0  0.41424  0.43238  0.11522  1.0000
  C   C107      1.0  0.23834  0.04878  0.02546  1.0000
  H   H81       1.0  0.18442  0.13554  0.16912  1.0000
  C   C108      1.0  0.46453  0.29929  0.02945  1.0000
  H   H82       1.0  0.49088  0.24939  0.04261  1.0000
  P   P5        1.0  0.44130  0.31744  0.03766  1.0000
  C   C109      1.0  0.41541  0.30759  0.02918  1.0000
  C   C110      1.0  0.44026  0.31863  0.06556  1.0000
  C   C111      1.0  0.41979  0.32138  0.07697  1.0000
  H   H83       1.0  0.04666  0.16724  0.17935  1.0000
  H   H84       1.0  0.23626  0.18578  0.02413  1.0000
  Fe  Fe16      1.0  0.35151  0.11394  0.22818  1.0000
  C   C112      1.0  0.46012  0.31751  0.07608  1.0000
  C   C113      1.0  0.39588  0.32133  0.03000  1.0000
  C   C114      1.0  0.37601  0.31392  0.02311  1.0000
  C   C115      1.0  0.37542  0.29283  0.01521  1.0000
  C   C116      1.0  0.39464  0.27893  0.01453  1.0000
  C   C117      1.0  0.41455  0.28619  0.02156  1.0000
  C   C118      1.0  0.44697  0.34531  0.02696  1.0000
  C   C119      1.0  0.43480  0.35522  0.01078  1.0000
  C   C120      1.0  0.43955  0.37662  0.00248  1.0000
  C   C121      1.0  0.45707  0.38801  0.00969  1.0000
  C   C122      1.0  0.46989  0.37795  0.02521  1.0000
  C   C123      1.0  0.46490  0.35669  0.03378  1.0000
  H   H85       1.0  0.36030  0.01053  0.03293  1.0000
  H   H86       1.0  0.00610  0.21354  0.21561  1.0000
  H   H87       1.0  0.40415  0.32231  0.06954  1.0000
  C   C124      1.0  0.49434  0.06661  0.01832  1.0000
  H   H88       1.0  0.01892  0.15971  0.21067  1.0000
  H   H89       1.0  0.39601  0.33799  0.03562  1.0000
  H   H90       1.0  0.36112  0.32472  0.02352  1.0000
  H   H91       1.0  0.36015  0.28739  0.00930  1.0000
  H   H92       1.0  0.42921  0.27516  0.02066  1.0000
  H   H93       1.0  0.42181  0.34646  0.00422  1.0000
  C   C125      1.0  0.35111  0.46052  0.06026  1.0000
  H   H94       1.0  0.32934  0.46959  0.99111  1.0000
  H   H95       1.0  0.03718  0.02913  0.16652  1.0000
  H   H96       1.0  0.47543  0.34898  0.04535  1.0000
  C   C126      1.0  0.26517  0.14924  0.21226  1.0000
  C   C127      1.0  0.15613  0.99616  0.00169  1.0000
  C   C128      1.0  0.43910  0.32215  0.10867  1.0000
  H   H97       1.0  0.12036  0.04348  0.18569  1.0000
  C   C129      1.0  0.03098  0.39932  0.19765  1.0000
  C   C130      1.0  0.41997  0.36425  0.18276  1.0000
  P   P6        1.0  0.46596  0.07567  0.01305  1.0000
  C   C131      1.0  0.46345  0.10580  0.01348  1.0000
  C   C132      1.0  0.31492  0.29287  0.21851  1.0000
  C   C133      1.0  0.23576  0.39892  0.03643  1.0000
  H   H98       1.0  0.42278  0.01313  0.04496  1.0000
  C   C134      1.0  0.25532  0.17083  0.21319  1.0000
  H   H99       1.0  0.20417  0.18068  0.00270  1.0000
  H   H100      1.0  0.35007  0.43088  0.02441  1.0000
  C   C135      1.0  0.47760  0.11731  0.02531  1.0000
  C   C136      1.0  0.24285  0.33885  0.17922  1.0000
  C   C137      1.0  0.22339  0.34412  0.19110  1.0000
  C   C138      1.0  0.01868  0.40522  0.16280  1.0000
  C   C139      1.0  0.00644  0.16381  0.22268  1.0000
  C   C140      1.0  0.44607  0.06330  0.03185  1.0000
  C   C141      1.0  0.38993  0.39962  0.17288  1.0000
  C   C142      1.0  0.42901  0.37827  0.07783  1.0000
  C   C143      1.0  0.23915  0.18180  0.00809  1.0000
  C   C144      1.0  0.44711  0.11795  0.00238  1.0000
  C   C145      1.0  0.43342  0.07645  0.04581  1.0000
  C   C146      1.0  0.46903  0.27883  0.04035  1.0000
  H   H101      1.0  0.06130  0.05803  0.15000  1.0000
  H   H102      1.0  0.27480  0.18236  0.00890  1.0000
  H   H103      1.0  0.13796  0.05355  0.11748  1.0000
  C   C147      1.0  0.99920  0.20759  0.16014  1.0000
  C   C148      1.0  0.99655  0.11424  0.19076  1.0000
  C   C149      1.0  0.32286  0.27704  0.20467  1.0000
  C   C150      1.0  0.01398  0.22796  0.22067  1.0000
  H   H104      1.0  0.33520  0.45421  0.13308  1.0000
  H   H105      1.0  0.08280  0.29369  0.13560  1.0000
  H   H106      1.0  0.20065  0.40332  0.04444  1.0000
  S   S28       1.0  0.08308  0.30963  0.22162  1.0000
  H   H107      1.0  0.43585  0.09418  0.04619  1.0000
  C   C151      1.0  0.18123  0.31059  0.21155  1.0000
  H   H108      1.0  0.42602  0.37422  0.06217  1.0000
  C   C152      1.0  0.00926  0.40417  0.20576  1.0000
  H   H109      1.0  0.25639  0.38146  0.16445  1.0000
  H   H110      1.0  0.23954  0.39068  0.05123  1.0000
  C   C153      1.0  0.37227  0.99776  0.03834  1.0000
  C   C154      1.0  0.27451  0.00084  0.22169  1.0000
  C   C155      1.0  0.25293  0.40262  0.02132  1.0000
  H   H111      1.0  0.26098  0.20617  0.21175  1.0000
  C   C156      1.0  0.22939  0.02866  0.03324  1.0000
  C   C157      1.0  0.17558  0.06546  0.23258  1.0000
  C   C158      1.0  0.06957  0.03758  0.20658  1.0000
  C   C159      1.0  0.15309  0.28744  0.22900  1.0000
  C   C160      1.0  0.10977  0.00981  0.18303  1.0000
  C   C161      1.0  0.27857  0.06288  0.21076  1.0000
  C   C162      1.0  0.32574  0.48703  0.99383  1.0000
  C   C163      1.0  0.14942  0.99680  0.20219  1.0000
  C   C164      1.0  0.19650  0.05538  0.22732  1.0000
  C   C165      1.0  0.26522  0.10015  0.21959  1.0000
  C   C166      1.0  0.26410  0.08150  0.20759  1.0000
  P   P7        1.0  0.24796  0.12516  0.21497  1.0000
  H   H112      1.0  0.05245  0.39572  0.17016  1.0000
  P   P8        1.0  0.37020  0.48853  0.00313  1.0000
  H   H113      1.0  0.14181  0.27381  0.22874  1.0000
  H   H114      1.0  0.00996  0.35756  0.17588  1.0000
  C   C167      1.0  0.39589  0.39534  0.19331  1.0000
  H   H115      1.0  0.35239  0.11962  0.01725  1.0000
  C   C168      1.0  0.18289  0.37214  0.21555  1.0000
  C   C169      1.0  0.21388  0.40601  0.03257  1.0000
  H   H116      1.0  0.42099  0.00022  0.00411  1.0000
  H   H117      1.0  0.33035  0.24040  0.98561  1.0000
  C   C170      1.0  0.23464  0.12503  0.19069  1.0000
  C   C171      1.0  0.24743  0.11962  0.17272  1.0000
  C   C172      1.0  0.23743  0.11929  0.15381  1.0000
  C   C173      1.0  0.21474  0.12494  0.15259  1.0000
  C   C174      1.0  0.20203  0.13108  0.17021  1.0000
  C   C175      1.0  0.21198  0.13141  0.18917  1.0000
  H   H118      1.0  0.27833  0.04891  0.20091  1.0000
  C   C176      1.0  0.16475  0.07972  0.21824  1.0000
  C   C177      1.0  0.30328  0.14180  0.00009  1.0000
  H   H119      1.0  0.45167  0.03001  0.02094  1.0000
  H   H120      1.0  0.25247  0.08132  0.19553  1.0000
  C   C178      1.0  0.24089  0.41428  0.16549  1.0000
  H   H121      1.0  0.40093  0.47165  0.10982  1.0000
  H   H122      1.0  0.35465  0.23955  0.23050  1.0000
  C   C179      1.0  0.24324  0.33678  0.22238  1.0000
  H   H123      1.0  0.47492  0.31846  0.10551  1.0000
  H   H124      1.0  0.24267  0.33976  0.16248  1.0000
  H   H125      1.0  0.04470  0.20622  0.18921  1.0000
  C   C180      1.0  0.99890  0.33297  0.19918  1.0000
  H   H126      1.0  0.26515  0.11547  0.17335  1.0000
  H   H127      1.0  0.24729  0.11462  0.14009  1.0000
  H   H128      1.0  0.20699  0.12476  0.13794  1.0000
  H   H129      1.0  0.42284  0.07120  0.99537  1.0000
  C   C181      1.0  0.38489  0.44803  0.98582  1.0000
  C   C182      1.0  0.34937  0.14450  0.99213  1.0000
  H   H130      1.0  0.45856  0.27368  0.05379  1.0000
  C   C183      1.0  0.41926  0.32313  0.09841  1.0000
  S   S29       1.0  0.33764  0.10849  0.19706  1.0000
  C   C184      1.0  0.26095  0.17970  0.99944  1.0000
  H   H131      1.0  0.20830  0.34896  0.18329  1.0000
  S   S30       1.0  0.38045  0.37335  0.00453  1.0000
  H   H132      1.0  0.08234  0.25919  0.21182  1.0000
  H   H133      1.0  0.49001  0.10832  0.03435  1.0000
  H   H134      1.0  0.12625  0.02440  0.14363  1.0000
  H   H135      1.0  0.37781  0.41302  0.16959  1.0000
  C   C185      1.0  0.14812  0.39132  0.20647  1.0000
  C   C186      1.0  0.25271  0.39568  0.17375  1.0000
  C   C187      1.0  0.31897  0.25444  0.20917  1.0000
  H   H136      1.0  0.00899  0.12311  0.19802  1.0000
  C   C188      1.0  0.31672  0.45703  0.21334  1.0000
  C   C189      1.0  0.42581  0.03079  0.04520  1.0000
  H   H137      1.0  0.30531  0.23002  0.23111  1.0000
  C   C190      1.0  0.44215  0.04038  0.03166  1.0000
  H   H138      1.0  0.00737  0.44854  0.21181  1.0000
  H   H139      1.0  0.16739  0.28227  0.19845  1.0000
  C   C191      1.0  0.39025  0.45079  0.05393  1.0000
  C   C192      1.0  0.29180  0.18675  0.20810  1.0000
  C   C193      1.0  0.23696  0.43314  0.17695  1.0000
  C   C194      1.0  0.15952  0.37361  0.21679  1.0000
  C   C195      1.0  0.24459  0.43328  0.19688  1.0000
  H   H140      1.0  0.18632  0.01365  0.00275  1.0000
  H   H141      1.0  0.31162  0.11748  0.02454  1.0000
  H   H142      1.0  0.40340  0.32536  0.10705  1.0000
  C   C196      1.0  0.03224  0.20068  0.17946  1.0000
  H   H143      1.0  0.24540  0.46181  0.98958  1.0000
  H   H144      1.0  0.13007  0.39185  0.20663  1.0000
  H   H145      1.0  0.19206  0.42172  0.01039  1.0000
  H   H146      1.0  0.31958  0.16309  0.20420  1.0000
  C   C197      1.0  0.25621  0.41448  0.20551  1.0000
  C   C198      1.0  0.23287  0.01465  0.99887  1.0000
  C   C199      1.0  0.26255  0.33272  0.18886  1.0000
  C   C200      1.0  0.39025  0.46329  0.03503  1.0000
  H   H147      1.0  0.25179  0.06738  0.99860  1.0000
  C   C201      1.0  0.45952  0.31930  0.09752  1.0000
  C   C202      1.0  0.26028  0.39568  0.19370  1.0000
  H   H148      1.0  0.40715  0.07704  0.06992  1.0000
  C   C203      1.0  0.26270  0.33162  0.21041  1.0000
  C   C204      1.0  0.08476  0.07287  0.12801  1.0000
  C   C205      1.0  0.12106  0.05410  0.12432  1.0000
  H   H149      1.0  0.18545  0.00753  0.09814  1.0000
  C   C206      1.0  0.26862  0.18954  0.21111  1.0000
  C   C207      1.0  0.33201  0.45217  0.22858  1.0000
  S   S31       1.0  0.35367  0.33622  0.20344  1.0000
  C   C208      1.0  0.29601  0.42369  0.99604  1.0000
  H   H150      1.0  0.27774  0.32899  0.17964  1.0000
  H   H151      1.0  0.24092  0.06183  0.03588  1.0000
  H   H152      1.0  0.32056  0.46906  0.20067  1.0000
  C   C209      1.0  0.99569  0.34946  0.18338  1.0000
  H   H153      1.0  0.38848  0.40542  0.20543  1.0000
  H   H154      1.0  0.45853  0.17064  0.01422  1.0000
  C   C210      1.0  0.10639  0.07188  0.11892  1.0000
  H   H155      1.0  0.06658  0.22244  0.22265  1.0000
  H   H156      1.0  0.08987  0.00007  0.12848  1.0000
  H   H157      1.0  0.15005  0.36101  0.22557  1.0000
  C   C211      1.0  0.29504  0.43454  0.01469  1.0000
  C   C212      1.0  0.14404  0.01943  0.19807  1.0000
  C   C213      1.0  0.24842  0.41401  0.00237  1.0000
  H   H158      1.0  0.35077  0.38293  0.21360  1.0000
  C   C214      1.0  0.06399  0.03068  0.18729  1.0000
  C   C215      1.0  0.29214  0.00698  0.02405  1.0000
  C   C216      1.0  0.11437  0.03768  0.13930  1.0000
  H   H159      1.0  0.31964  0.20117  0.99131  1.0000
  C   C217      1.0  0.30160  0.16535  0.20668  1.0000
  C   C218      1.0  0.07791  0.05635  0.14283  1.0000
  H   H160      1.0  0.43132  0.35035  0.18678  1.0000
  H   H161      1.0  0.27882  0.01763  0.03056  1.0000
  C   C219      1.0  0.41706  0.06680  0.05930  1.0000
  H   H162      1.0  0.40547  0.44235  0.05890  1.0000
  C   C220      1.0  0.44536  0.14124  0.00270  1.0000
  H   H163      1.0  0.47146  0.38840  0.10810  1.0000
  H   H164      1.0  0.43865  0.32354  0.12528  1.0000
  H   H165      1.0  0.47614  0.31535  0.06775  1.0000
  H   H166      1.0  0.23739  0.17316  0.21544  1.0000
  H   H167      1.0  0.08632  0.03514  0.21171  1.0000
  C   C221      1.0  0.41093  0.37770  0.19825  1.0000
  H   H168      1.0  0.00916  0.04833  0.18928  1.0000
  C   C222      1.0  0.17768  0.99876  0.00805  1.0000
  C   C223      1.0  0.34104  0.13019  0.00823  1.0000
  C   C224      1.0  0.16759  0.29222  0.21189  1.0000
  C   C225      1.0  0.45981  0.15259  0.01413  1.0000
  H   H169      1.0  0.26973  0.39677  0.02467  1.0000
  H   H170      1.0  0.40563  0.46456  0.02554  1.0000
  C   C226      1.0  0.29389  0.06256  0.22618  1.0000
  S   S32       1.0  0.02563  0.32532  0.20846  1.0000
  C   C227      1.0  0.20910  0.41649  0.01342  1.0000
  H   H171      1.0  0.07346  0.08686  0.12415  1.0000
  C   C228      1.0  0.22107  0.17898  0.99600  1.0000
  C   C229      1.0  0.29666  0.44593  0.21407  1.0000
  S   S33       1.0  0.37688  0.14024  0.22877  1.0000
  H   H172      1.0  0.46105  0.40437  0.00286  1.0000
  H   H173      1.0  0.15513  0.03210  0.20210  1.0000
  H   H174      1.0  0.21274  0.38873  0.20376  1.0000
  H   H175      1.0  0.14857  0.08728  0.22244  1.0000
  H   H176      1.0  0.34934  0.02087  0.98792  1.0000
  H   H177      1.0  0.22817  0.44770  0.17021  1.0000
  C   C230      1.0  0.29173  0.42985  0.23010  1.0000
  H   H178      1.0  0.19157  0.31434  0.19774  1.0000
  C   C231      1.0  0.31681  0.41709  0.98693  1.0000
  H   H179      1.0  0.28542  0.44961  0.20178  1.0000
  H   H180      1.0  0.38854  0.44148  0.00113  1.0000
  H   H181      1.0  0.37036  0.43933  0.08095  1.0000
  H   H182      1.0  0.29249  0.37577  0.99206  1.0000
  H   H183      1.0  0.47477  0.32072  0.00288  1.0000
  C   C232      1.0  0.19471  0.38925  0.20470  1.0000
  H   H184      1.0  0.27800  0.32693  0.21780  1.0000
  H   H185      1.0  0.02230  0.40533  0.14623  1.0000
  C   C233      1.0  0.33621  0.41980  0.99716  1.0000
  H   H186      1.0  0.21717  0.41799  0.23144  1.0000
  C   C234      1.0  0.45848  0.06723  0.98813  1.0000
  H   H187      1.0  0.48354  0.35502  0.98499  1.0000
  H   H188      1.0  0.48799  0.19934  0.21768  1.0000
  H   H189      1.0  0.43281  0.15042  0.99394  1.0000
  C   C235      1.0  0.24167  0.03487  0.99113  1.0000
  H   H190      1.0  0.48284  0.22750  0.99550  1.0000
  C   C236      1.0  0.47345  0.21623  0.98720  1.0000
  C   C237      1.0  0.03181  0.05225  0.21319  1.0000
  H   H191      1.0  0.21832  0.28684  0.22729  1.0000
  H   H192      1.0  0.01960  0.06121  0.22286  1.0000
  H   H193      1.0  0.33273  0.49482  0.08970  1.0000
  H   H194      1.0  0.01580  0.48525  0.22385  1.0000
  H   H195      1.0  0.34765  0.46059  0.22785  1.0000
  H   H196      1.0  0.32517  0.08348  0.98546  1.0000
  H   H197      1.0  0.48696  0.14939  0.03448  1.0000
  P   P9        1.0  0.19761  0.34859  0.22790  1.0000
  C   C238      1.0  0.05357  0.04841  0.21941  1.0000
  H   H198      1.0  0.28576  0.01738  0.99285  1.0000
  H   H199      1.0  0.29110  0.48500  0.98781  1.0000
  H   H200      1.0  0.48401  0.38645  0.03026  1.0000
  H   H201      1.0  0.32559  0.24203  0.19870  1.0000
  C   C239      1.0  0.18073  0.32420  0.22854  1.0000
  H   H202      1.0  0.42982  0.38413  0.99014  1.0000
  C   C240      1.0  0.99706  0.41036  0.17072  1.0000
  H   H203      1.0  0.25630  0.99619  0.19472  1.0000
  C   C241      1.0  0.01016  0.44999  0.22800  1.0000
  P   P10       1.0  0.00353  0.40405  0.23345  1.0000
  C   C242      1.0  0.31155  0.15658  0.98416  1.0000
  C   C243      1.0  0.43583  0.06663  0.98391  1.0000
  Fe  Fe17      1.0  0.16031  0.41502  0.36702  1.0000
  S   S34       1.0  0.19247  0.42795  0.37655  1.0000
  S   S35       1.0  0.13184  0.40049  0.38696  1.0000
  Fe  Fe18      1.0  0.16855  0.43116  0.32200  1.0000
  S   S36       1.0  0.20084  0.44680  0.32828  1.0000
  S   S37       1.0  0.15479  0.43088  0.29004  1.0000
  Fe  Fe19      1.0  0.20824  0.41462  0.34673  1.0000
  S   S38       1.0  0.23817  0.38946  0.34320  1.0000
  Fe  Fe20      1.0  0.18240  0.45909  0.35742  1.0000
  C   C244      1.0  0.45088  0.23736  0.25391  1.0000
  S   S39       1.0  0.17648  0.39896  0.33938  1.0000
  S   S40       1.0  0.14978  0.44638  0.34908  1.0000
  Fe  Fe21      1.0  0.18594  0.03933  0.38133  1.0000
  H   H204      1.0  0.03212  0.01434  0.42231  1.0000
  S   S41       1.0  0.18725  0.04924  0.41452  1.0000
  Fe  Fe22      1.0  0.16579  0.05030  0.33978  1.0000
  C   C245      1.0  0.41984  0.38597  0.30271  1.0000
  S   S42       1.0  0.14661  0.07839  0.32285  1.0000
  C   C246      1.0  0.48125  0.08114  0.26183  1.0000
  Fe  Fe23      1.0  0.21222  0.02840  0.34092  1.0000
  S   S43       1.0  0.24481  0.02728  0.32039  1.0000
  S   S44       1.0  0.15322  0.03212  0.36904  1.0000
  S   S45       1.0  0.19735  0.06024  0.35316  1.0000
  Fe  Fe24      1.0  0.40544  0.34788  0.26198  1.0000
  S   S46       1.0  0.39637  0.31724  0.24642  1.0000
  S   S47       1.0  0.44098  0.36105  0.25712  1.0000
  Fe  Fe25      1.0  0.35540  0.35809  0.27715  1.0000
  S   S48       1.0  0.34418  0.32728  0.26326  1.0000
  S   S49       1.0  0.33069  0.38596  0.28836  1.0000
  Fe  Fe26      1.0  0.37505  0.31002  0.27539  1.0000
  S   S50       1.0  0.37575  0.27568  0.29206  1.0000
  C   C247      1.0  0.12812  0.00875  0.47213  1.0000
  H   H205      1.0  0.11683  0.48215  0.48268  1.0000
  S   S51       1.0  0.38506  0.34008  0.29169  1.0000
  S   S52       1.0  0.37683  0.36887  0.24886  1.0000
  Fe  Fe27      1.0  0.35308  0.15735  0.25100  1.0000
  S   S53       1.0  0.36694  0.13933  0.27891  1.0000
  C   C248      1.0  0.08858  0.07810  0.37109  1.0000
  H   H206      1.0  0.20709  0.45562  0.43554  1.0000
  S   S54       1.0  0.36641  0.09259  0.25425  1.0000
  C   C249      1.0  0.31515  0.29333  0.30326  1.0000
  Fe  Fe28      1.0  0.34218  0.11258  0.27484  1.0000
  S   S55       1.0  0.31833  0.10198  0.30241  1.0000
  Fe  Fe29      1.0  0.39030  0.12091  0.25643  1.0000
  S   S56       1.0  0.42794  0.12647  0.25877  1.0000
  H   H207      1.0  0.47102  0.14518  0.25863  1.0000
  P   P11       1.0  0.19577  0.13062  0.45975  1.0000
  C   C250      1.0  0.45532  0.11355  0.25950  1.0000
  C   C251      1.0  0.47378  0.12729  0.25930  1.0000
  H   H208      1.0  0.12676  0.03105  0.41469  1.0000
  C   C252      1.0  0.22226  0.42744  0.24393  1.0000
  C   C253      1.0  0.45923  0.09035  0.26069  1.0000
  H   H209      1.0  0.25838  0.48755  0.46509  1.0000
  H   H210      1.0  0.38780  0.12501  0.34660  1.0000
  C   C254      1.0  0.25419  0.02017  0.24912  1.0000
  C   C255      1.0  0.36915  0.25268  0.27805  1.0000
  C   C256      1.0  0.36433  0.25555  0.25724  1.0000
  C   C257      1.0  0.35808  0.23726  0.24663  1.0000
  C   C258      1.0  0.35635  0.21601  0.25667  1.0000
  C   C259      1.0  0.36190  0.21294  0.27731  1.0000
  C   C260      1.0  0.36821  0.23127  0.28799  1.0000
  H   H211      1.0  0.36519  0.27191  0.24935  1.0000
  C   C261      1.0  0.04743  0.44230  0.44749  1.0000
  H   H212      1.0  0.36072  0.19661  0.28516  1.0000
  H   H213      1.0  0.37199  0.22892  0.30409  1.0000
  H   H214      1.0  0.03249  0.24786  0.26442  1.0000
  H   H215      1.0  0.48399  0.06319  0.26297  1.0000
  C   C262      1.0  0.48660  0.36335  0.26003  1.0000
  C   C263      1.0  0.46765  0.35075  0.26543  1.0000
  C   C264      1.0  0.47048  0.33077  0.27742  1.0000
  H   H216      1.0  0.04200  0.27960  0.23953  1.0000
  H   H217      1.0  0.14052  0.35040  0.29337  1.0000
  H   H218      1.0  0.39498  0.34019  0.36565  1.0000
  H   H219      1.0  0.45635  0.32043  0.28108  1.0000
  H   H220      1.0  0.41744  0.40862  0.35705  1.0000
  C   C265      1.0  0.26462  0.04865  0.31514  1.0000
  C   C266      1.0  0.26441  0.06775  0.32661  1.0000
  C   C267      1.0  0.28075  0.08392  0.32228  1.0000
  C   C268      1.0  0.29743  0.08148  0.30629  1.0000
  C   C269      1.0  0.29756  0.06245  0.29473  1.0000
  C   C270      1.0  0.28137  0.04614  0.29922  1.0000
  H   H221      1.0  0.25181  0.06991  0.33899  1.0000
  H   H222      1.0  0.28054  0.09838  0.33151  1.0000
  H   H223      1.0  0.31058  0.05988  0.28281  1.0000
  H   H224      1.0  0.28201  0.03132  0.29046  1.0000
  C   C271      1.0  0.13707  0.07489  0.29804  1.0000
  C   C272      1.0  0.13575  0.05369  0.29042  1.0000
  C   C273      1.0  0.12664  0.05140  0.27120  1.0000
  C   C274      1.0  0.11915  0.07026  0.25933  1.0000
  C   C275      1.0  0.12115  0.09152  0.26662  1.0000
  C   C276      1.0  0.12992  0.09379  0.28601  1.0000
  H   H225      1.0  0.14115  0.03902  0.29957  1.0000
  H   H226      1.0  0.12511  0.03492  0.26563  1.0000
  H   H227      1.0  0.13089  0.11023  0.29184  1.0000
  H   H228      1.0  0.23905  0.46011  0.29012  1.0000
  C   C277      1.0  0.23443  0.45117  0.27707  1.0000
  C   C278      1.0  0.26297  0.38857  0.32654  1.0000
  C   C279      1.0  0.27603  0.36849  0.32587  1.0000
  C   C280      1.0  0.29639  0.36722  0.31383  1.0000
  C   C281      1.0  0.30421  0.38611  0.30249  1.0000
  C   C282      1.0  0.29107  0.40613  0.30302  1.0000
  C   C283      1.0  0.27048  0.40731  0.31472  1.0000
  H   H229      1.0  0.27051  0.35391  0.33500  1.0000
  H   H230      1.0  0.30638  0.35183  0.31371  1.0000
  H   H231      1.0  0.29699  0.42098  0.29457  1.0000
  H   H232      1.0  0.26078  0.42290  0.31510  1.0000
  C   C284      1.0  0.14416  0.40619  0.28119  1.0000
  C   C285      1.0  0.13234  0.40733  0.26306  1.0000
  C   C286      1.0  0.12314  0.38808  0.25607  1.0000
  C   C287      1.0  0.12599  0.36748  0.26701  1.0000
  C   C288      1.0  0.13806  0.36628  0.28492  1.0000
  C   C289      1.0  0.14707  0.38549  0.29196  1.0000
  H   H233      1.0  0.13003  0.42322  0.25454  1.0000
  H   H234      1.0  0.07502  0.37720  0.26227  1.0000
  H   H235      1.0  0.15625  0.38422  0.30575  1.0000
  C   C290      1.0  0.12572  0.08601  0.44397  1.0000
  C   C291      1.0  0.14298  0.07761  0.45615  1.0000
  C   C292      1.0  0.16168  0.06623  0.44696  1.0000
  C   C293      1.0  0.16340  0.06338  0.42560  1.0000
  C   C294      1.0  0.14624  0.07200  0.41343  1.0000
  C   C295      1.0  0.12746  0.08314  0.42261  1.0000
  C   C296      1.0  0.43550  0.19886  0.31751  1.0000
  H   H236      1.0  0.17478  0.05939  0.45644  1.0000
  H   H237      1.0  0.14742  0.07017  0.39693  1.0000
  H   H238      1.0  0.11426  0.08966  0.41304  1.0000
  C   C297      1.0  0.14424  0.36673  0.45035  1.0000
  C   C298      1.0  0.16238  0.37214  0.43666  1.0000
  C   C299      1.0  0.15881  0.38267  0.41716  1.0000
  C   C300      1.0  0.13707  0.38763  0.41128  1.0000
  C   C301      1.0  0.11895  0.38195  0.42487  1.0000
  C   C302      1.0  0.12250  0.37159  0.44442  1.0000
  H   H239      1.0  0.17284  0.38677  0.40662  1.0000
  H   H240      1.0  0.10215  0.38575  0.42030  1.0000
  H   H241      1.0  0.10851  0.36723  0.45489  1.0000
  H   H242      1.0  0.01215  0.41968  0.27403  1.0000
  C   C303      1.0  0.21023  0.33809  0.26823  1.0000
  C   C304      1.0  0.21380  0.34288  0.28862  1.0000
  C   C305      1.0  0.20977  0.36456  0.29513  1.0000
  C   C306      1.0  0.20183  0.38138  0.28136  1.0000
  C   C307      1.0  0.19810  0.37664  0.26101  1.0000
  C   C308      1.0  0.14767  0.00129  0.41700  1.0000
  H   H243      1.0  0.21973  0.32983  0.29942  1.0000
  H   H244      1.0  0.21268  0.36840  0.31088  1.0000
  H   H245      1.0  0.19822  0.39810  0.28656  1.0000
  H   H246      1.0  0.47963  0.23904  0.29597  1.0000
  C   C309      1.0  0.42039  0.21461  0.24604  1.0000
  H   H247      1.0  0.99742  0.25406  0.44380  1.0000
  C   C310      1.0  0.07232  0.06119  0.40300  1.0000
  C   C311      1.0  0.18957  0.10898  0.40143  1.0000
  H   H248      1.0  0.22414  0.15963  0.43305  1.0000
  H   H249      1.0  0.03540  0.31806  0.47930  1.0000
  C   C312      1.0  0.21710  0.14131  0.27050  1.0000
  C   C313      1.0  0.23558  0.02333  0.23696  1.0000
  C   C314      1.0  0.05914  0.21325  0.47478  1.0000
  H   H250      1.0  0.16598  0.02216  0.23845  1.0000
  C   C315      1.0  0.41917  0.40438  0.39000  1.0000
  C   C316      1.0  0.15111  0.42782  0.44988  1.0000
  C   C317      1.0  0.02868  0.24733  0.24835  1.0000
  H   H251      1.0  0.16458  0.32991  0.25864  1.0000
  C   C318      1.0  0.05298  0.28043  0.44382  1.0000
  C   C319      1.0  0.12710  0.01301  0.41658  1.0000
  C   C320      1.0  0.05212  0.35068  0.26199  1.0000
  C   C321      1.0  0.06166  0.39734  0.45037  1.0000
  C   C322      1.0  0.48923  0.22371  0.29944  1.0000
  H   H252      1.0  0.06151  0.06284  0.41679  1.0000
  S   S57       1.0  0.18473  0.49362  0.37095  1.0000
  H   H253      1.0  0.41182  0.40066  0.27288  1.0000
  C   C323      1.0  0.03096  0.34478  0.25690  1.0000
  H   H254      1.0  0.29726  0.29877  0.24739  1.0000
  C   C324      1.0  0.09914  0.05765  0.36655  1.0000
  H   H255      1.0  0.40290  0.21298  0.24334  1.0000
  C   C325      1.0  0.20562  0.07610  0.29724  1.0000
  C   C326      1.0  0.22550  0.08747  0.29549  1.0000
  C   C327      1.0  0.24075  0.08410  0.27878  1.0000
  C   C328      1.0  0.23622  0.06914  0.26396  1.0000
  C   C329      1.0  0.21675  0.05691  0.26612  1.0000
  C   C330      1.0  0.20121  0.06088  0.28263  1.0000
  C   C331      1.0  0.40109  0.29516  0.33611  1.0000
  C   C332      1.0  0.06859  0.29338  0.43226  1.0000
  H   H256      1.0  0.14992  0.45473  0.40236  1.0000
  C   C333      1.0  0.42704  0.13799  0.40197  1.0000
  H   H257      1.0  0.40338  0.07719  0.28722  1.0000
  H   H258      1.0  0.02781  0.15276  0.24704  1.0000
  C   C334      1.0  0.07666  0.41390  0.45318  1.0000
  H   H259      1.0  0.15549  0.20435  0.46416  1.0000
  C   C335      1.0  0.01596  0.36099  0.24876  1.0000
  H   H260      1.0  0.35930  0.40384  0.32051  1.0000
  H   H261      1.0  0.19364  0.07896  0.31001  1.0000
  H   H262      1.0  0.22914  0.09880  0.30714  1.0000
  H   H263      1.0  0.25624  0.09278  0.27756  1.0000
  C   C336      1.0  0.41815  0.30248  0.32215  1.0000
  H   H264      1.0  0.18570  0.05224  0.28436  1.0000
  C   C337      1.0  0.41613  0.14939  0.36746  1.0000
  C   C338      1.0  0.03415  0.26512  0.23438  1.0000
  H   H265      1.0  0.40163  0.16336  0.39525  1.0000
  C   C339      1.0  0.45874  0.36599  0.33333  1.0000
  H   H266      1.0  0.42277  0.39550  0.42233  1.0000
  C   C340      1.0  0.28613  0.34685  0.26224  1.0000
  H   H267      1.0  0.01463  0.21477  0.25221  1.0000
  C   C341      1.0  0.00923  0.43128  0.24203  1.0000
  C   C342      1.0  0.41958  0.33678  0.34015  1.0000
  H   H268      1.0  0.37322  0.41261  0.28448  1.0000
  C   C343      1.0  0.42668  0.37442  0.36659  1.0000
  C   C344      1.0  0.30713  0.42524  0.24543  1.0000
  H   H269      1.0  0.11482  0.14813  0.45849  1.0000
  H   H270      1.0  0.27198  0.17964  0.47434  1.0000
  P   P12       1.0  0.42938  0.36472  0.34076  1.0000
  H   H271      1.0  0.24759  0.38930  0.26820  1.0000
  C   C345      1.0  0.46759  0.38620  0.32530  1.0000
  C   C346      1.0  0.24494  0.42913  0.24752  1.0000
  H   H272      1.0  0.10481  0.02325  0.37651  1.0000
  C   C347      1.0  0.20585  0.43790  0.25656  1.0000
  C   C348      1.0  0.21192  0.44983  0.27307  1.0000
  C   C349      1.0  0.12365  0.45681  0.42637  1.0000
  C   C350      1.0  0.25093  0.44085  0.26435  1.0000
  C   C351      1.0  0.05831  0.37284  0.25896  1.0000
  H   H273      1.0  0.08481  0.32490  0.42919  1.0000
  H   H274      1.0  0.24361  0.47354  0.43351  1.0000
  P   P13       1.0  0.02200  0.27196  0.47691  1.0000
  H   H275      1.0  0.45289  0.11208  0.40388  1.0000
  H   H276      1.0  0.43428  0.35604  0.41653  1.0000
  H   H277      1.0  0.39363  0.27931  0.33419  1.0000
  H   H278      1.0  0.25721  0.18083  0.43932  1.0000
  H   H279      1.0  0.23533  0.10804  0.44125  1.0000
  C   C352      1.0  0.07293  0.02311  0.44287  1.0000
  H   H280      1.0  0.21327  0.32118  0.26344  1.0000
  C   C353      1.0  0.04456  0.31096  0.46621  1.0000
  H   H281      1.0  0.09349  0.40893  0.45703  1.0000
  C   C354      1.0  0.05571  0.01262  0.47671  1.0000
  C   C355      1.0  0.49028  0.38722  0.31934  1.0000
  H   H282      1.0  0.30383  0.41285  0.25790  1.0000
  H   H283      1.0  0.41447  0.42169  0.39250  1.0000
  H   H284      1.0  0.18833  0.43660  0.25376  1.0000
  H   H285      1.0  0.26824  0.44188  0.26781  1.0000
  C   C356      1.0  0.21358  0.46161  0.44939  1.0000
  C   C357      1.0  0.99538  0.16445  0.25904  1.0000
  C   C358      1.0  0.42827  0.23530  0.25048  1.0000
  C   C359      1.0  0.21072  0.09943  0.39674  1.0000
  C   C360      1.0  0.07502  0.04720  0.47146  1.0000
  C   C361      1.0  0.27363  0.00915  0.24141  1.0000
  C   C362      1.0  0.23414  0.47177  0.44822  1.0000
  C   C363      1.0  0.16614  0.31918  0.24572  1.0000
  C   C364      1.0  0.06102  0.00789  0.45608  1.0000
  H   H286      1.0  0.24318  0.23453  0.28424  1.0000
  C   C365      1.0  0.29934  0.26352  0.24161  1.0000
  C   C366      1.0  0.19330  0.01666  0.25882  1.0000
  C   C367      1.0  0.17143  0.14945  0.45964  1.0000
  H   H287      1.0  0.45719  0.10834  0.36633  1.0000
  C   C368      1.0  0.41379  0.15142  0.38885  1.0000
  H   H288      1.0  0.49107  0.06956  0.32337  1.0000
  C   C369      1.0  0.27103  0.28356  0.29701  1.0000
  H   H289      1.0  0.14062  0.29769  0.25891  1.0000
  C   C370      1.0  0.43970  0.17747  0.32659  1.0000
  H   H290      1.0  0.18928  0.17971  0.46275  1.0000
  C   C371      1.0  0.37476  0.10156  0.32728  1.0000
  C   C372      1.0  0.41708  0.09999  0.30709  1.0000
  C   C373      1.0  0.41266  0.18320  0.29292  1.0000
  C   C374      1.0  0.42184  0.20174  0.30076  1.0000
  H   H291      1.0  0.09079  0.05384  0.44143  1.0000
  H   H292      1.0  0.40225  0.18524  0.27980  1.0000
  C   C375      1.0  0.13115  0.15503  0.45903  1.0000
  C   C376      1.0  0.25752  0.17025  0.47161  1.0000
  C   C377      1.0  0.15434  0.33775  0.38985  1.0000
  C   C378      1.0  0.17331  0.34059  0.37662  1.0000
  C   C379      1.0  0.17112  0.34434  0.35537  1.0000
  C   C380      1.0  0.14995  0.34570  0.34737  1.0000
  C   C381      1.0  0.13077  0.34350  0.36063  1.0000
  C   C382      1.0  0.13314  0.33912  0.38192  1.0000
  P   P14       1.0  0.10369  0.34436  0.34982  1.0000
  C   C383      1.0  0.10348  0.31949  0.33538  1.0000
  C   C384      1.0  0.08187  0.34512  0.37015  1.0000
  C   C385      1.0  0.06572  0.32877  0.37262  1.0000
  C   C386      1.0  0.04896  0.32993  0.38848  1.0000
  C   C387      1.0  0.04800  0.34755  0.40174  1.0000
  C   C388      1.0  0.06376  0.36409  0.39911  1.0000
  C   C389      1.0  0.08056  0.36293  0.38334  1.0000
  C   C390      1.0  0.10558  0.29840  0.34581  1.0000
  C   C391      1.0  0.10619  0.27894  0.33484  1.0000
  C   C392      1.0  0.10507  0.28042  0.31334  1.0000
  C   C393      1.0  0.10357  0.30135  0.30280  1.0000
  C   C394      1.0  0.10298  0.32082  0.31372  1.0000
  C   C395      1.0  0.09892  0.36973  0.33406  1.0000
  C   C396      1.0  0.11242  0.38808  0.33524  1.0000
  C   C397      1.0  0.10834  0.40775  0.32321  1.0000
  C   C398      1.0  0.09080  0.40929  0.30993  1.0000
  C   C399      1.0  0.07680  0.39138  0.30919  1.0000
  C   C400      1.0  0.08065  0.37177  0.32141  1.0000
  H   H293      1.0  0.15603  0.33500  0.40637  1.0000
  H   H294      1.0  0.18968  0.34012  0.38287  1.0000
  H   H295      1.0  0.18585  0.34671  0.34515  1.0000
  H   H296      1.0  0.14850  0.34881  0.33089  1.0000
  H   H297      1.0  0.11877  0.33703  0.39256  1.0000
  H   H298      1.0  0.06585  0.31525  0.36229  1.0000
  H   H299      1.0  0.03668  0.31716  0.39049  1.0000
  H   H300      1.0  0.03512  0.34835  0.41411  1.0000
  H   H301      1.0  0.06305  0.37786  0.40924  1.0000
  H   H302      1.0  0.09265  0.37592  0.38144  1.0000
  H   H303      1.0  0.10692  0.29703  0.36242  1.0000
  H   H304      1.0  0.10777  0.26271  0.34297  1.0000
  H   H305      1.0  0.10568  0.26538  0.30479  1.0000
  H   H306      1.0  0.10318  0.30259  0.28607  1.0000
  H   H307      1.0  0.10258  0.33674  0.30504  1.0000
  H   H308      1.0  0.12614  0.38734  0.34536  1.0000
  H   H309      1.0  0.11917  0.42166  0.32379  1.0000
  H   H310      1.0  0.08824  0.42435  0.30018  1.0000
  H   H311      1.0  0.06307  0.39267  0.29905  1.0000
  H   H312      1.0  0.06959  0.35808  0.32077  1.0000
  C   C401      1.0  0.30996  0.19861  0.29378  1.0000
  C   C402      1.0  0.30150  0.18156  0.28310  1.0000
  H   H313      1.0  0.08056  0.06244  0.47732  1.0000
  C   C403      1.0  0.01146  0.15976  0.24332  1.0000
  C   C404      1.0  0.28961  0.22647  0.27270  1.0000
  C   C405      1.0  0.30428  0.22099  0.28849  1.0000
  H   H314      1.0  0.32157  0.19447  0.30572  1.0000
  C   C406      1.0  0.28096  0.20918  0.26222  1.0000
  H   H315      1.0  0.48588  0.22713  0.33236  1.0000
  H   H316      1.0  0.16767  0.06246  0.24786  1.0000
  H   H317      1.0  0.33230  0.29704  0.30569  1.0000
  H   H318      1.0  0.32432  0.27176  0.27867  1.0000
  Fe  Fe30      1.0  0.36643  0.33761  0.23563  1.0000
  C   C407      1.0  0.41307  0.11354  0.32395  1.0000
  H   H319      1.0  0.07800  0.28654  0.41918  1.0000
  H   H320      1.0  0.43967  0.32925  0.31260  1.0000
  C   C408      1.0  0.08363  0.04080  0.39893  1.0000
  H   H321      1.0  0.17921  0.36824  0.44118  1.0000
  H   H322      1.0  0.06303  0.34058  0.45896  1.0000
  C   C409      1.0  0.23796  0.24595  0.27171  1.0000
  C   C410      1.0  0.04134  0.28892  0.46128  1.0000
  H   H323      1.0  0.99919  0.16093  0.27506  1.0000
  C   C411      1.0  0.28011  0.09932  0.23554  1.0000
  H   H324      1.0  0.40561  0.15985  0.35752  1.0000
  S   S58       1.0  0.10153  0.09991  0.45465  1.0000
  Fe  Fe31      1.0  0.17074  0.00114  0.35709  1.0000
  C   C412      1.0  0.31058  0.27894  0.28798  1.0000
  H   H325      1.0  0.31175  0.23382  0.29651  1.0000
  H   H326      1.0  0.19906  0.45783  0.28284  1.0000
  C   C413      1.0  0.22377  0.27552  0.23977  1.0000
  C   C414      1.0  0.09655  0.03902  0.38033  1.0000
  C   C415      1.0  0.13310  0.17792  0.46089  1.0000
  P   P15       1.0  0.28294  0.25532  0.26480  1.0000
  H   H327      1.0  0.28102  0.11333  0.24522  1.0000
  C   C416      1.0  0.20926  0.11399  0.23845  1.0000
  C   C417      1.0  0.01288  0.43388  0.26294  1.0000
  C   C418      1.0  0.28851  0.27378  0.28482  1.0000
  H   H328      1.0  0.06676  0.09567  0.39271  1.0000
  C   C419      1.0  0.49163  0.32418  0.28476  1.0000
  H   H329      1.0  0.02063  0.45670  0.28577  1.0000
  H   H330      1.0  0.46692  0.33156  0.34304  1.0000
  H   H331      1.0  0.49340  0.30904  0.29449  1.0000
  C   C420      1.0  0.23050  0.15885  0.44839  1.0000
  C   C421      1.0  0.29456  0.08072  0.23864  1.0000
  C   C422      1.0  0.13029  0.43508  0.45824  1.0000
  H   H332      1.0  0.48478  0.37874  0.25065  1.0000
  C   C423      1.0  0.06011  0.32386  0.45458  1.0000
  C   C424      1.0  0.29772  0.30287  0.31539  1.0000
  C   C425      1.0  0.07927  0.48450  0.44590  1.0000
  H   H333      1.0  0.30133  0.31393  0.32730  1.0000
  S   S59       1.0  0.18076  0.01916  0.32642  1.0000
  H   H334      1.0  0.07663  0.20807  0.47464  1.0000
  C   C426      1.0  0.41695  0.16184  0.30184  1.0000
  C   C427      1.0  0.25372  0.25825  0.25953  1.0000
  C   C428      1.0  0.27566  0.29811  0.31218  1.0000
  C   C429      1.0  0.40206  0.32954  0.35385  1.0000
  C   C430      1.0  0.37643  0.39935  0.31576  1.0000
  C   C431      1.0  0.23237  0.14017  0.25342  1.0000
  C   C432      1.0  0.21529  0.24838  0.26786  1.0000
  C   C433      1.0  0.06081  0.99991  0.40539  1.0000
  H   H335      1.0  0.25384  0.28003  0.29494  1.0000
  C   C434      1.0  0.46658  0.09661  0.32699  1.0000
  C   C435      1.0  0.01857  0.22875  0.24149  1.0000
  P   P16       1.0  0.43456  0.13135  0.33130  1.0000
  H   H336      1.0  0.40991  0.14774  0.29530  1.0000
  C   C436      1.0  0.20820  0.26314  0.25187  1.0000
  H   H337      1.0  0.20319  0.23875  0.27722  1.0000
  H   H338      1.0  0.42368  0.29240  0.30934  1.0000
  C   C437      1.0  0.42389  0.38963  0.40680  1.0000
  H   H339      1.0  0.47538  0.15097  0.31135  1.0000
  H   H340      1.0  0.45028  0.17545  0.33958  1.0000
  H   H341      1.0  0.26219  0.30564  0.32158  1.0000
  H   H342      1.0  0.12489  0.42864  0.47357  1.0000
  C   C438      1.0  0.43011  0.15883  0.31900  1.0000
  S   S60       1.0  0.11408  0.34296  0.25946  1.0000
  C   C439      1.0  0.04299  0.19720  0.47475  1.0000
  C   C440      1.0  0.43033  0.36739  0.40353  1.0000
  H   H343      1.0  0.41676  0.24969  0.25144  1.0000
  C   C441      1.0  0.17236  0.01257  0.25156  1.0000
  C   C442      1.0  0.01400  0.22642  0.47641  1.0000
  H   H344      1.0  0.19065  0.26488  0.24880  1.0000
  C   C443      1.0  0.37902  0.08800  0.31061  1.0000
  C   C444      1.0  0.44502  0.12045  0.37231  1.0000
  H   H345      1.0  0.38371  0.38342  0.34518  1.0000
  H   H346      1.0  0.19132  0.38986  0.25089  1.0000
  C   C445      1.0  0.47861  0.13330  0.31464  1.0000
  H   H347      1.0  0.00789  0.19118  0.47645  1.0000
  C   C446      1.0  0.11636  0.44977  0.44661  1.0000
  C   C447      1.0  0.20262  0.35502  0.25415  1.0000
  C   C448      1.0  0.49273  0.21701  0.32005  1.0000
  C   C449      1.0  0.28704  0.18685  0.26729  1.0000
  H   H348      1.0  0.24808  0.06682  0.25105  1.0000
  C   C450      1.0  0.44264  0.12253  0.39370  1.0000
  H   H349      1.0  0.28109  0.17364  0.25859  1.0000
  C   C451      1.0  0.03800  0.00238  0.41115  1.0000
  C   C452      1.0  0.43176  0.13387  0.35899  1.0000
  H   H350      1.0  0.43308  0.09973  0.29855  1.0000
  P   P17       1.0  0.21061  0.03809  0.24667  1.0000
  C   C453      1.0  0.38426  0.40428  0.29539  1.0000
  C   C454      1.0  0.01491  0.47090  0.23478  1.0000
  H   H351      1.0  0.14831  0.12307  0.45789  1.0000
  H   H352      1.0  0.35811  0.10251  0.33468  1.0000
  H   H353      1.0  0.17920  0.10533  0.25645  1.0000
  C   C455      1.0  0.02039  0.20376  0.47569  1.0000
  C   C456      1.0  0.46188  0.11966  0.32375  1.0000
  C   C457      1.0  0.24643  0.27317  0.24358  1.0000
  H   H354      1.0  0.11825  0.18877  0.46194  1.0000
  C   C458      1.0  0.39168  0.11431  0.33395  1.0000
  H   H355      1.0  0.42518  0.13952  0.41855  1.0000
  S   S61       1.0  0.20347  0.00769  0.37050  1.0000
  C   C459      1.0  0.14453  0.44950  0.41809  1.0000
  C   C460      1.0  0.39031  0.38779  0.32967  1.0000
  C   C461      1.0  0.20121  0.45956  0.46829  1.0000
  H   H356      1.0  0.18511  0.45206  0.46877  1.0000
  C   C462      1.0  0.40018  0.08722  0.30052  1.0000
  C   C463      1.0  0.20120  0.11819  0.43510  1.0000
  H   H357      1.0  0.17667  0.10855  0.39046  1.0000
  H   H358      1.0  0.36572  0.07849  0.30525  1.0000
  H   H359      1.0  0.45386  0.08570  0.33371  1.0000
  C   C464      1.0  0.41226  0.38134  0.32331  1.0000
  H   H360      1.0  0.10953  0.05631  0.35238  1.0000
  C   C465      1.0  0.22002  0.14593  0.46459  1.0000
  C   C466      1.0  0.20100  0.00372  0.27588  1.0000
  P   P18       1.0  0.08873  0.45765  0.45718  1.0000
  C   C467      1.0  0.05278  0.23589  0.47560  1.0000
  C   C468      1.0  0.08049  0.04245  0.45092  1.0000
  H   H361      1.0  0.41840  0.21830  0.29379  1.0000
  H   H362      1.0  0.11344  0.46776  0.41672  1.0000
  C   C469      1.0  0.07238  0.31499  0.43782  1.0000
  C   C470      1.0  0.07502  0.07983  0.38923  1.0000
  H   H363      1.0  0.18604  0.12962  0.28472  1.0000
  C   C471      1.0  0.42723  0.32329  0.32406  1.0000
  C   C472      1.0  0.26106  0.37956  0.26089  1.0000
  H   H364      1.0  0.06555  0.24798  0.47639  1.0000
  H   H365      1.0  0.05028  0.26371  0.43929  1.0000
  H   H366      1.0  0.14191  0.07980  0.47262  1.0000
  H   H367      1.0  0.21581  0.00765  0.41520  1.0000
  H   H368      1.0  0.24336  0.09131  0.40760  1.0000
  C   C473      1.0  0.15412  0.18667  0.46215  1.0000
  H   H369      1.0  0.26001  0.35377  0.28536  1.0000
  H   H370      1.0  0.19521  0.00479  0.44894  1.0000
  C   C474      1.0  0.26803  0.35930  0.27070  1.0000
  H   H371      1.0  0.16816  0.12527  0.42374  1.0000
  C   C475      1.0  0.17327  0.17254  0.46143  1.0000
  H   H372      1.0  0.21421  0.09170  0.38217  1.0000
  C   C476      1.0  0.07323  0.48627  0.42523  1.0000
  H   H373      1.0  0.37935  0.30324  0.36237  1.0000
  H   H374      1.0  0.29197  0.33158  0.27028  1.0000
  H   H375      1.0  0.16138  0.41587  0.45868  1.0000
  C   C477      1.0  0.27228  0.38755  0.24252  1.0000
  H   H376      1.0  0.04141  0.45956  0.44684  1.0000
  H   H377      1.0  0.17413  0.42893  0.42316  1.0000
  H   H378      1.0  0.06704  0.37993  0.45214  1.0000
  H   H379      1.0  0.33905  0.43219  0.25638  1.0000
  H   H380      1.0  0.02798  0.39016  0.44430  1.0000
  C   C478      1.0  0.18477  0.11832  0.42052  1.0000
  C   C479      1.0  0.15020  0.14084  0.45866  1.0000
  H   H381      1.0  0.07391  0.47167  0.41608  1.0000
  C   C480      1.0  0.22244  0.10854  0.43021  1.0000
  C   C481      1.0  0.39303  0.30869  0.35194  1.0000
  H   H382      1.0  0.44271  0.21323  0.32349  1.0000
  C   C482      1.0  0.03256  0.42565  0.44434  1.0000
  H   H383      1.0  0.30657  0.16427  0.28676  1.0000
  H   H384      1.0  0.16298  0.01022  0.41514  1.0000
  C   C483      1.0  0.01869  0.47331  0.25557  1.0000
  H   H385      1.0  0.21697  0.00678  0.28196  1.0000
  C   C484      1.0  0.22713  0.09916  0.41114  1.0000
  C   C485      1.0  0.15826  0.43508  0.42985  1.0000
  C   C486      1.0  0.10725  0.00143  0.41798  1.0000
  C   C487      1.0  0.42072  0.39686  0.36993  1.0000
  H   H386      1.0  0.17119  0.49454  0.48226  1.0000
  H   H387      1.0  0.04803  0.17963  0.47464  1.0000
  P   P19       1.0  0.08080  0.01656  0.41659  1.0000
  H   H388      1.0  0.43620  0.38003  0.29706  1.0000
  H   H389      1.0  0.13598  0.48965  0.37725  1.0000
  C   C488      1.0  0.19998  0.08749  0.47856  1.0000
  C   C489      1.0  0.40595  0.39758  0.28887  1.0000
  H   H390      1.0  0.43723  0.34264  0.38113  1.0000
  C   C490      1.0  0.19778  0.12901  0.27141  1.0000
  H   H391      1.0  0.99653  0.23119  0.47799  1.0000
  C   C491      1.0  0.43187  0.35983  0.38348  1.0000
  H   H392      1.0  0.44530  0.07949  0.26090  1.0000
  H   H393      1.0  0.45692  0.40108  0.32334  1.0000
  C   C492      1.0  0.06971  0.43652  0.45171  1.0000
  S   S62       1.0  0.32667  0.13247  0.24870  1.0000
  C   C493      1.0  0.46584  0.21877  0.25247  1.0000
  S   S63       1.0  0.34591  0.19431  0.24314  1.0000
  C   C494      1.0  0.24242  0.47970  0.46600  1.0000
  H   H394      1.0  0.06403  0.33799  0.26759  1.0000
  C   C495      1.0  0.24920  0.17092  0.45189  1.0000
  H   H395      1.0  0.11545  0.10614  0.25757  1.0000
  C   C496      1.0  0.48766  0.08740  0.32132  1.0000
  H   H396      1.0  0.20881  0.08251  0.46447  1.0000
  H   H397      1.0  0.01549  0.43015  0.44085  1.0000
  C   C497      1.0  0.19392  0.11527  0.25544  1.0000
  H   H398      1.0  0.09093  0.09254  0.36048  1.0000
  H   H399      1.0  0.11211  0.00864  0.46536  1.0000
  C   C498      1.0  0.03962  0.40316  0.44599  1.0000
  H   H400      1.0  0.28803  0.00712  0.25078  1.0000
  S   S64       1.0  0.14916  0.35387  0.47473  1.0000
  C   C499      1.0  0.19139  0.10947  0.48041  1.0000
  C   C500      1.0  0.30326  0.28620  0.23691  1.0000
  C   C501      1.0  0.47315  0.34718  0.33638  1.0000
  H   H401      1.0  0.24746  0.14941  0.25322  1.0000
  H   H402      1.0  0.22038  0.15145  0.28318  1.0000
  H   H403      1.0  0.45652  0.25343  0.25773  1.0000
  H   H404      1.0  0.25373  0.02608  0.26461  1.0000
  C   C502      1.0  0.45747  0.19782  0.24927  1.0000
  C   C503      1.0  0.03014  0.24271  0.47562  1.0000
  H   H405      1.0  0.16009  0.48260  0.44115  1.0000
  C   C504      1.0  0.43494  0.19582  0.24568  1.0000
  H   H406      1.0  0.02251  0.48952  0.26075  1.0000
  H   H407      1.0  0.25810  0.28294  0.23395  1.0000
  S   S65       1.0  0.10725  0.06644  0.23561  1.0000
  H   H408      1.0  0.02652  0.32742  0.25830  1.0000
  H   H409      1.0  0.00011  0.35575  0.24407  1.0000
  C   C505      1.0  0.29051  0.37499  0.23424  1.0000
  C   C506      1.0  0.15915  0.99610  0.26150  1.0000
  C   C507      1.0  0.15245  0.30086  0.24595  1.0000
  H   H410      1.0  0.30666  0.08065  0.25039  1.0000
  H   H411      1.0  0.46840  0.18303  0.24935  1.0000
  H   H412      1.0  0.11364  0.38925  0.24237  1.0000
  C   C508      1.0  0.29723  0.35465  0.24389  1.0000
  C   C509      1.0  0.22827  0.12689  0.23701  1.0000
  C   C510      1.0  0.32720  0.43625  0.24461  1.0000
  H   H413      1.0  0.31147  0.34539  0.23725  1.0000
  H   H414      1.0  0.42869  0.17956  0.24296  1.0000
  C   C511      1.0  0.04344  0.38908  0.25073  1.0000
  H   H415      1.0  0.27000  0.21300  0.24974  1.0000
  C   C512      1.0  0.02204  0.38332  0.24565  1.0000
  C   C513      1.0  0.13410  0.02747  0.48201  1.0000
  C   C514      1.0  0.01764  0.45481  0.26966  1.0000
  H   H416      1.0  0.04902  0.40593  0.24764  1.0000
  H   H417      1.0  0.24393  0.33599  0.23899  1.0000
  H   H418      1.0  0.12266  0.04187  0.48308  1.0000
  H   H419      1.0  0.05830  0.05430  0.23398  1.0000
  S   S66       1.0  0.18393  0.45773  0.58436  1.0000
  Fe  Fe32      1.0  0.10161  0.37063  0.53826  1.0000
  S   S67       1.0  0.09634  0.38017  0.50478  1.0000
  S   S68       1.0  0.10268  0.40014  0.55956  1.0000
  Fe  Fe33      1.0  0.09784  0.31980  0.53058  1.0000
  C   C515      1.0  0.16775  0.49276  0.53479  1.0000
  S   S69       1.0  0.09764  0.28427  0.54601  1.0000
  H   H420      1.0  0.09925  0.02823  0.58632  1.0000
  C   C516      1.0  0.01000  0.34248  0.51946  1.0000
  Fe  Fe34      1.0  0.06945  0.35507  0.50694  1.0000
  H   H421      1.0  0.18635  0.01026  0.49467  1.0000
  S   S70       1.0  0.12675  0.34272  0.53120  1.0000
  S   S71       1.0  0.07290  0.34704  0.54085  1.0000
  Fe  Fe35      1.0  0.10947  0.10271  0.53262  1.0000
  S   S72       1.0  0.08442  0.08630  0.51474  1.0000
  S   S73       1.0  0.13184  0.08321  0.55543  1.0000
  Fe  Fe36      1.0  0.09675  0.15066  0.51427  1.0000
  H   H422      1.0  0.06097  0.08538  0.56370  1.0000
  S   S74       1.0  0.10226  0.18816  0.50642  1.0000
  Fe  Fe37      1.0  0.06114  0.11521  0.52323  1.0000
  S   S75       1.0  0.02582  0.11200  0.53755  1.0000
  C   C517      1.0  0.22101  0.47997  0.53960  1.0000
  C   C518      1.0  0.08153  0.05809  0.57612  1.0000
  S   S76       1.0  0.08540  0.13049  0.54308  1.0000
  S   S77       1.0  0.12305  0.12422  0.50547  1.0000
  H   H423      1.0  0.06607  0.43310  0.49289  1.0000
  H   H424      1.0  0.02045  0.29058  0.56209  1.0000
  C   C519      1.0  0.17001  0.00939  0.48864  1.0000
  C   C520      1.0  0.09777  0.25782  0.53451  1.0000
  C   C521      1.0  0.09401  0.23834  0.54724  1.0000
  C   C522      1.0  0.09490  0.21696  0.53898  1.0000
  C   C523      1.0  0.09983  0.21471  0.51783  1.0000
  C   C524      1.0  0.10330  0.23422  0.50507  1.0000
  C   C525      1.0  0.10210  0.25561  0.51327  1.0000
  H   H425      1.0  0.09070  0.23975  0.56368  1.0000
  H   H426      1.0  0.09227  0.20222  0.54908  1.0000
  H   H427      1.0  0.23709  0.48338  0.49860  1.0000
  H   H428      1.0  0.10519  0.27033  0.50326  1.0000
  C   C526      1.0  0.18897  0.41893  0.50162  1.0000
  C   C527      1.0  0.13443  0.03973  0.54182  1.0000
  C   C528      1.0  0.13932  0.05407  0.55707  1.0000
  C   C529      1.0  0.15091  0.04517  0.57413  1.0000
  Fe  Fe38      1.0  0.18475  0.49245  0.59753  1.0000
  H   H429      1.0  0.15476  0.05606  0.58605  1.0000
  C   C530      1.0  0.16103  0.44207  0.57763  1.0000
  C   C531      1.0  0.13880  0.44964  0.58081  1.0000
  C   C532      1.0  0.12125  0.43640  0.57562  1.0000
  C   C533      1.0  0.12559  0.41571  0.56661  1.0000
  C   C534      1.0  0.14782  0.40814  0.56351  1.0000
  C   C535      1.0  0.16536  0.42122  0.56899  1.0000
  H   H430      1.0  0.13516  0.46559  0.58748  1.0000
  H   H431      1.0  0.10416  0.44222  0.57863  1.0000
  H   H432      1.0  0.15154  0.39220  0.55682  1.0000
  H   H433      1.0  0.18244  0.41509  0.56652  1.0000
  H   H434      1.0  0.13196  0.41858  0.63879  1.0000
  H   H435      1.0  0.01919  0.10710  0.49380  1.0000
  H   H436      1.0  0.05519  0.19199  0.52793  1.0000
  H   H437      1.0  0.12541  0.04623  0.52868  1.0000
  Fe  Fe39      1.0  0.11971  0.35109  0.49787  1.0000
  C   C536      1.0  0.10607  0.47191  0.49293  1.0000
  H   H438      1.0  0.11280  0.42827  0.68608  1.0000
  C   C537      1.0  0.00166  0.11035  0.52339  1.0000
  C   C538      1.0  0.17223  0.46053  0.67695  1.0000
  C   C539      1.0  0.06839  0.47375  0.70232  1.0000
  C   C540      1.0  0.14066  0.45934  0.65526  1.0000
  C   C541      1.0  0.07334  0.45557  0.71597  1.0000
  C   C542      1.0  0.00238  0.21501  0.52732  1.0000
  C   C543      1.0  0.02562  0.21370  0.52830  1.0000
  C   C544      1.0  0.04084  0.28477  0.51259  1.0000
  C   C545      1.0  0.08468  0.03489  0.57868  1.0000
  H   H439      1.0  0.03945  0.01977  0.55403  1.0000
  H   H440      1.0  0.05469  0.29583  0.53994  1.0000
  C   C546      1.0  0.00214  0.27474  0.51667  1.0000
  C   C547      1.0  0.07998  0.44433  0.51985  1.0000
  H   H441      1.0  0.08133  0.39344  0.60369  1.0000
  H   H442      1.0  0.03417  0.06084  0.54974  1.0000
  H   H443      1.0  0.17880  0.46374  0.69164  1.0000
  C   C548      1.0  0.07946  0.47564  0.68276  1.0000
  H   H444      1.0  0.14511  0.38477  0.50607  1.0000
  C   C549      1.0  0.10782  0.47232  0.51429  1.0000
  C   C550      1.0  0.01757  0.48110  0.51954  1.0000
  C   C551      1.0  0.17844  0.45257  0.64093  1.0000
  C   C552      1.0  0.21311  0.46067  0.53166  1.0000
  C   C553      1.0  0.04817  0.05346  0.55794  1.0000
  C   C554      1.0  0.03716  0.19305  0.52729  1.0000
  C   C555      1.0  0.17478  0.48681  0.51476  1.0000
  C   C556      1.0  0.06327  0.06738  0.56582  1.0000
  H   H445      1.0  0.07521  0.00563  0.53041  1.0000
  H   H446      1.0  0.14945  0.45339  0.62314  1.0000
  C   C557      1.0  0.15552  0.45499  0.63835  1.0000
  H   H447      1.0  0.18979  0.44900  0.62783  1.0000
  C   C558      1.0  0.04017  0.28965  0.53343  1.0000
  H   H448      1.0  0.24107  0.49323  0.56222  1.0000
  C   C559      1.0  0.07760  0.44440  0.49853  1.0000
  H   H449      1.0  0.05588  0.48637  0.70682  1.0000
  H   H450      1.0  0.18249  0.06488  0.52589  1.0000
  H   H451      1.0  0.21402  0.42443  0.53470  1.0000
  C   C560      1.0  0.02550  0.17377  0.52510  1.0000
  Fe  Fe40      1.0  0.09673  0.10924  0.48814  1.0000
  H   H452      1.0  0.25307  0.45599  0.57700  1.0000
  C   C561      1.0  0.17676  0.09914  0.51522  1.0000
  C   C562      1.0  0.17876  0.43803  0.51027  1.0000
  H   H453      1.0  0.04629  0.00097  0.48677  1.0000
  H   H454      1.0  0.05833  0.03627  0.50026  1.0000
  C   C563      1.0  0.15630  0.43759  0.51741  1.0000
  C   C564      1.0  0.18681  0.45537  0.66021  1.0000
  C   C565      1.0  0.00304  0.10782  0.50207  1.0000
  H   H455      1.0  0.13768  0.00606  0.53151  1.0000
  H   H456      1.0  0.16761  0.10361  0.52940  1.0000
  C   C566      1.0  0.17987  0.11519  0.49893  1.0000
  H   H457      1.0  0.09298  0.42495  0.72049  1.0000
  C   C567      1.0  0.15316  0.00808  0.56047  1.0000
  H   H458      1.0  0.09680  0.45823  0.54422  1.0000
  C   C568      1.0  0.20970  0.46691  0.48637  1.0000
  C   C569      1.0  0.23462  0.43797  0.55627  1.0000
  H   H459      1.0  0.13840  0.46758  0.68746  1.0000
  C   C570      1.0  0.10609  0.48874  0.63870  1.0000
  H   H460      1.0  0.20464  0.45418  0.66198  1.0000
  H   H461      1.0  0.09981  0.47574  0.60912  1.0000
  C   C571      1.0  0.14406  0.41864  0.51537  1.0000
  H   H462      1.0  0.07069  0.43289  0.53031  1.0000
  C   C572      1.0  0.23551  0.47828  0.55577  1.0000
  H   H463      1.0  0.09349  0.06894  0.58184  1.0000
  C   C573      1.0  0.24228  0.45728  0.56413  1.0000
  C   C574      1.0  0.23027  0.47730  0.48501  1.0000
  C   C575      1.0  0.22010  0.43962  0.54011  1.0000
  S   S78       1.0  0.07111  0.13669  0.49509  1.0000
  H   H464      1.0  0.12676  0.41827  0.52105  1.0000
  H   H465      1.0  0.17371  0.48330  0.54821  1.0000
  H   H466      1.0  0.05586  0.42545  0.61274  1.0000
  C   C576      1.0  0.09489  0.45845  0.52772  1.0000
  H   H467      1.0  0.03448  0.15777  0.52425  1.0000
  C   C577      1.0  0.15502  0.02778  0.49026  1.0000
  C   C578      1.0  0.06937  0.02073  0.57115  1.0000
  H   H468      1.0  0.11915  0.39013  0.61692  1.0000
  H   H469      1.0  0.10731  0.23277  0.48873  1.0000
  H   H470      1.0  0.05633  0.28660  0.50338  1.0000
  H   H471      1.0  0.36050  0.47175  0.71982  1.0000
  P   P20       1.0  0.11097  0.46179  0.65195  1.0000
  C   C579      1.0  0.00230  0.17503  0.52404  1.0000
  C   C580      1.0  0.15438  0.39971  0.50695  1.0000
  C   C581      1.0  0.10048  0.44110  0.69052  1.0000
  H   H472      1.0  0.14831  0.45162  0.52496  1.0000
  H   H473      1.0  0.03482  0.22869  0.52963  1.0000
  H   H474      1.0  0.23947  0.42172  0.56310  1.0000
  C   C582      1.0  0.10811  0.40419  0.62091  1.0000
  C   C583      1.0  0.07981  0.44079  0.63042  1.0000
  C   C584      1.0  0.07248  0.42419  0.61843  1.0000
  C   C585      1.0  0.10162  0.43956  0.63725  1.0000
  C   C586      1.0  0.02075  0.28676  0.54595  1.0000
  C   C587      1.0  0.14145  0.01694  0.54346  1.0000
  C   C588      1.0  0.05121  0.03023  0.56051  1.0000
  C   C589      1.0  0.08673  0.40603  0.61348  1.0000
  C   C590      1.0  0.09592  0.45953  0.67687  1.0000
  C   C591      1.0  0.15764  0.02231  0.57592  1.0000
  C   C592      1.0  0.17680  0.39982  0.50005  1.0000
  C   C593      1.0  0.11545  0.42068  0.63302  1.0000
  C   C594      1.0  0.14924  0.46264  0.67450  1.0000
  H   H475      1.0  0.02464  0.33896  0.52822  1.0000
  P   P21       1.0  0.19406  0.46322  0.51095  1.0000
  H   H476      1.0  0.06863  0.45483  0.63406  1.0000
  C   C595      1.0  0.01175  0.35479  0.50056  1.0000
  H   H477      1.0  0.16651  0.01580  0.58915  1.0000
  C   C596      1.0  0.08930  0.43920  0.71003  1.0000
  H   H478      1.0  0.02999  0.00233  0.59443  1.0000
  H   H479      1.0  0.11964  0.48293  0.52048  1.0000
  H   H480      1.0  0.03414  0.47320  0.51851  1.0000
  H   H481      1.0  0.15958  0.04240  0.49783  1.0000
  C   C597      1.0  0.09054  0.45835  0.48488  1.0000
  C   C598      1.0  0.18519  0.07728  0.51323  1.0000
  H   H482      1.0  0.06465  0.45406  0.73106  1.0000
  S   S79       1.0  0.09254  0.32668  0.49679  1.0000
  C   C599      1.0  0.10072  0.49047  0.61784  1.0000
  H   H483      1.0  0.00136  0.45045  0.52886  1.0000
  S   S80       1.0  0.03757  0.36511  0.49072  1.0000
  H   H484      1.0  0.07503  0.48964  0.67234  1.0000
  H   H485      1.0  0.17326  0.13208  0.50085  1.0000
  C   C600      1.0  0.00175  0.27923  0.53758  1.0000
  C   C601      1.0  0.02162  0.27779  0.50392  1.0000
  H   H486      1.0  0.18461  0.38498  0.49350  1.0000
  H   H487      1.0  0.20634  0.41879  0.49612  1.0000
  H   H488      1.0  0.00925  0.40829  0.49429  1.0000
  C   C602      1.0  0.99912  0.46828  0.52536  1.0000
  C   C603      1.0  0.19689  0.07148  0.49493  1.0000
  H   H489      1.0  0.20338  0.05451  0.49335  1.0000
  H   H490      1.0  0.25352  0.15707  0.50314  1.0000
  H   H491      1.0  0.22064  0.13577  0.49722  1.0000
  C   C604      1.0  0.24713  0.15752  0.48783  1.0000
  C   C605      1.0  0.22843  0.14542  0.48438  1.0000
  C   C606      1.0  0.06255  0.03239  0.48435  1.0000
  S   S81       1.0  0.31648  0.47457  0.87342  1.0000
  Fe  Fe41      1.0  0.36023  0.35699  0.93280  1.0000
  S   S82       1.0  0.38875  0.37414  0.94519  1.0000
  S   S83       1.0  0.33167  0.37612  0.91612  1.0000
  Fe  Fe42      1.0  0.37447  0.31043  0.95384  1.0000
  S   S84       1.0  0.40313  0.32570  0.96821  1.0000
  S   S85       1.0  0.37086  0.27324  0.96479  1.0000
  C   C607      1.0  0.38806  0.43369  0.96953  1.0000
  C   C608      1.0  0.27892  0.44719  0.94787  1.0000
  Fe  Fe43      1.0  0.40969  0.34341  0.93734  1.0000
  S   S86       1.0  0.44474  0.34264  0.92205  1.0000
  S   S87       1.0  0.35038  0.33865  0.96324  1.0000
  S   S88       1.0  0.38191  0.32723  0.92231  1.0000
  Fe  Fe44      1.0  0.35132  0.09425  0.91822  1.0000
  S   S89       1.0  0.37833  0.07413  0.93394  1.0000
  S   S90       1.0  0.32514  0.07993  0.89867  1.0000
  Fe  Fe45      1.0  0.36712  0.13933  0.93361  1.0000
  S   S91       1.0  0.39467  0.12175  0.95098  1.0000
  S   S92       1.0  0.36419  0.17754  0.92641  1.0000
  Fe  Fe46      1.0  0.40120  0.10165  0.92304  1.0000
  S   S93       1.0  0.43576  0.09401  0.90855  1.0000
  Fe  Fe47      1.0  0.36981  0.09550  0.96081  1.0000
  C   C609      1.0  0.04645  0.48348  0.77262  1.0000
  S   S94       1.0  0.37495  0.12025  0.90489  1.0000
  S   S95       1.0  0.34125  0.11455  0.94586  1.0000
  H   H492      1.0  0.47377  0.12382  0.96552  1.0000
  C   C610      1.0  0.36806  0.20387  0.93711  1.0000
  C   C611      1.0  0.36550  0.22361  0.92443  1.0000
  C   C612      1.0  0.36734  0.24493  0.93230  1.0000
  C   C613      1.0  0.37138  0.24688  0.95313  1.0000
  C   C614      1.0  0.37456  0.22711  0.96567  1.0000
  C   C615      1.0  0.37311  0.20579  0.95772  1.0000
  H   H493      1.0  0.36176  0.22243  0.90843  1.0000
  H   H494      1.0  0.36481  0.25985  0.92241  1.0000
  C   C616      1.0  0.37624  0.46997  0.98224  1.0000
  H   H495      1.0  0.37529  0.19088  0.96768  1.0000
  H   H496      1.0  0.04496  0.49048  0.75697  1.0000
  C   C617      1.0  0.46624  0.34952  0.95761  1.0000
  C   C618      1.0  0.46837  0.34354  0.93707  1.0000
  H   H497      1.0  0.46633  0.28346  0.92052  1.0000
  C   C619      1.0  0.30129  0.20123  0.96348  1.0000
  C   C620      1.0  0.30324  0.01586  0.95421  1.0000
  C   C621      1.0  0.48088  0.09441  0.91390  1.0000
  C   C622      1.0  0.45936  0.10055  0.92181  1.0000
  C   C623      1.0  0.45696  0.11127  0.94042  1.0000
  C   C624      1.0  0.47579  0.11557  0.95113  1.0000
  C   C625      1.0  0.47480  0.06136  0.97277  1.0000
  H   H498      1.0  0.44064  0.11607  0.94672  1.0000
  C   C626      1.0  0.48426  0.20299  0.97217  1.0000
  C   C627      1.0  0.29632  0.02585  0.87710  1.0000
  C   C628      1.0  0.30170  0.04781  0.88126  1.0000
  C   C629      1.0  0.31950  0.05178  0.89363  1.0000
  C   C630      1.0  0.33195  0.03341  0.90172  1.0000
  C   C631      1.0  0.37108  0.47728  0.96203  1.0000
  H   H499      1.0  0.28252  0.02314  0.86767  1.0000
  H   H500      1.0  0.29191  0.06184  0.87492  1.0000
  H   H501      1.0  0.34560  0.03610  0.91133  1.0000
  C   C632      1.0  0.31975  0.44815  0.88746  1.0000
  C   C633      1.0  0.34120  0.44073  0.89330  1.0000
  C   C634      1.0  0.34506  0.41914  0.90273  1.0000
  C   C635      1.0  0.32756  0.40442  0.90617  1.0000
  C   C636      1.0  0.30607  0.41203  0.90062  1.0000
  C   C637      1.0  0.30212  0.43374  0.89153  1.0000
  H   H502      1.0  0.35498  0.45167  0.89028  1.0000
  H   H503      1.0  0.36169  0.41360  0.90676  1.0000
  H   H504      1.0  0.29240  0.40085  0.90302  1.0000
  H   H505      1.0  0.28560  0.43899  0.88696  1.0000
  H   H506      1.0  0.44113  0.05090  0.93427  1.0000
  C   C638      1.0  0.35752  0.47580  0.77961  1.0000
  C   C639      1.0  0.38091  0.01951  0.97089  1.0000
  H   H507      1.0  0.49238  0.06204  0.97518  1.0000
  H   H508      1.0  0.24656  0.03728  0.97486  1.0000
  C   C640      1.0  0.35401  0.49496  0.76651  1.0000
  H   H509      1.0  0.36538  0.43747  0.74271  1.0000
  C   C641      1.0  0.32658  0.02093  0.83351  1.0000
  C   C642      1.0  0.39318  0.01134  0.95381  1.0000
  H   H510      1.0  0.43891  0.17683  0.95736  1.0000
  H   H511      1.0  0.30192  0.12378  0.89465  1.0000
  C   C643      1.0  0.26354  0.48497  0.94294  1.0000
  C   C644      1.0  0.40939  0.43324  0.83944  1.0000
  H   H512      1.0  0.41604  0.46797  0.88636  1.0000
  C   C645      1.0  0.04987  0.46478  0.81285  1.0000
  H   H513      1.0  0.41219  0.06093  0.96143  1.0000
  C   C646      1.0  0.27854  0.05064  0.93419  1.0000
  H   H514      1.0  0.12781  0.46698  0.73994  1.0000
  C   C647      1.0  0.47162  0.18859  0.96163  1.0000
  C   C648      1.0  0.32615  0.44490  0.82395  1.0000
  C   C649      1.0  0.41593  0.48953  0.85864  1.0000
  C   C650      1.0  0.42792  0.25730  0.96458  1.0000
  H   H515      1.0  0.38419  0.42960  0.93719  1.0000
  H   H516      1.0  0.42161  0.42215  0.84686  1.0000
  H   H517      1.0  0.42028  0.00966  0.83397  1.0000
  H   H518      1.0  0.26960  0.06387  0.92564  1.0000
  H   H519      1.0  0.24908  0.16905  0.95026  1.0000
  C   C651      1.0  0.44856  0.18779  0.96577  1.0000
  H   H520      1.0  0.31850  0.26304  0.95489  1.0000
  H   H521      1.0  0.36305  0.43987  0.78071  1.0000
  C   C652      1.0  0.28596  0.45013  0.82608  1.0000
  C   C653      1.0  0.44594  0.05482  0.94946  1.0000
  C   C654      1.0  0.39671  0.45404  0.80886  1.0000
  C   C655      1.0  0.28115  0.35666  0.94569  1.0000
  C   C656      1.0  0.39027  0.44067  0.85075  1.0000
  H   H522      1.0  0.30474  0.07179  0.94150  1.0000
  H   H523      1.0  0.42001  0.20058  0.98363  1.0000
  H   H524      1.0  0.44994  0.35399  0.96441  1.0000
  H   H525      1.0  0.28329  0.20767  0.93565  1.0000
  Fe  Fe48      1.0  0.37970  0.35486  0.97501  1.0000
  C   C657      1.0  0.43876  0.27693  0.96736  1.0000
  H   H526      1.0  0.36917  0.46837  0.93047  1.0000
  C   C658      1.0  0.26884  0.37516  0.93775  1.0000
  C   C659      1.0  0.34874  0.99933  0.96215  1.0000
  H   H527      1.0  0.38827  0.03090  0.98070  1.0000
  C   C660      1.0  0.28671  0.12537  0.92547  1.0000
  C   C661      1.0  0.36119  0.45498  0.77089  1.0000
  C   C662      1.0  0.41412  0.01737  0.84795  1.0000
  H   H528      1.0  0.22228  0.42827  0.98347  1.0000
  H   H529      1.0  0.33658  0.99747  0.90355  1.0000
  C   C663      1.0  0.38326  0.99737  0.94079  1.0000
  H   H530      1.0  0.15957  0.49209  0.74000  1.0000
  C   C664      1.0  0.32828  0.46671  0.81504  1.0000
  P   P22       1.0  0.35539  0.47738  0.80741  1.0000
  C   C665      1.0  0.28436  0.13750  0.94332  1.0000
  C   C666      1.0  0.03465  0.46450  0.77914  1.0000
  C   C667      1.0  0.03632  0.45517  0.79925  1.0000
  H   H531      1.0  0.32635  0.04167  0.95920  1.0000
  C   C668      1.0  0.35954  0.47282  0.73648  1.0000
  H   H532      1.0  0.42774  0.43469  0.80989  1.0000
  C   C669      1.0  0.41277  0.44021  0.81859  1.0000
  C   C670      1.0  0.30510  0.43685  0.82979  1.0000
  H   H533      1.0  0.25565  0.40828  0.94284  1.0000
  H   H534      1.0  0.42348  0.47697  0.84882  1.0000
  H   H535      1.0  0.48115  0.05139  0.94153  1.0000
  C   C671      1.0  0.30877  0.00748  0.88518  1.0000
  C   C672      1.0  0.42965  0.06063  0.96464  1.0000
  C   C673      1.0  0.26690  0.44469  0.96706  1.0000
  H   H536      1.0  0.48311  0.16550  0.90596  1.0000
  H   H537      1.0  0.29887  0.34251  0.97156  1.0000
  H   H538      1.0  0.49146  0.33305  0.91250  1.0000
  C   C674      1.0  0.29468  0.15802  0.94394  1.0000
  C   C675      1.0  0.27701  0.46717  0.93577  1.0000
  C   C676      1.0  0.46850  0.05509  0.95357  1.0000
  C   C677      1.0  0.31328  0.24596  0.95746  1.0000
  H   H539      1.0  0.09128  0.47783  0.75643  1.0000
  H   H540      1.0  0.34061  0.43400  0.82657  1.0000
  H   H541      1.0  0.30055  0.01047  0.81511  1.0000
  H   H542      1.0  0.47933  0.17800  0.95013  1.0000
  C   C678      1.0  0.26523  0.39413  0.94925  1.0000
  C   C679      1.0  0.41180  0.48451  0.87978  1.0000
  H   H543      1.0  0.31808  0.40934  0.97220  1.0000
  H   H544      1.0  0.35379  0.02662  0.85208  1.0000
  C   C680      1.0  0.48525  0.34994  0.96926  1.0000
  C   C681      1.0  0.37394  0.46282  0.94585  1.0000
  P   P23       1.0  0.27087  0.41953  0.98327  1.0000
  H   H545      1.0  0.26245  0.37492  0.92249  1.0000
  H   H546      1.0  0.35964  0.46047  0.85012  1.0000
  H   H547      1.0  0.38763  0.43536  0.86693  1.0000
  H   H548      1.0  0.32106  0.15945  0.89594  1.0000
  H   H549      1.0  0.43554  0.28571  0.98139  1.0000
  C   C682      1.0  0.38237  0.44099  0.94961  1.0000
  C   C683      1.0  0.10492  0.48897  0.75669  1.0000
  C   C684      1.0  0.29377  0.21453  0.94655  1.0000
  C   C685      1.0  0.35877  0.01366  0.97500  1.0000
  C   C686      1.0  0.29965  0.13345  0.90829  1.0000
  C   C687      1.0  0.28786  0.47138  0.81635  1.0000
  C   C688      1.0  0.48967  0.33777  0.92837  1.0000
  H   H550      1.0  0.48447  0.20652  0.90382  1.0000
  C   C689      1.0  0.36237  0.45354  0.74939  1.0000
  H   H551      1.0  0.05113  0.45757  0.82847  1.0000
  H   H552      1.0  0.48291  0.08616  0.89948  1.0000
  C   C690      1.0  0.42453  0.03626  0.85390  1.0000
  C   C691      1.0  0.41679  0.04675  0.87179  1.0000
  C   C692      1.0  0.39869  0.03831  0.88380  1.0000
  C   C693      1.0  0.38837  0.01937  0.87799  1.0000
  C   C694      1.0  0.27428  0.39479  0.96867  1.0000
  C   C695      1.0  0.29841  0.05508  0.94305  1.0000
  H   H553      1.0  0.27908  0.10938  0.92506  1.0000
  C   C696      1.0  0.31033  0.15359  0.90896  1.0000
  H   H554      1.0  0.31696  0.18097  0.92706  1.0000
  C   C697      1.0  0.37699  0.46069  0.81990  1.0000
  C   C698      1.0  0.34644  0.01468  0.84292  1.0000
  C   C699      1.0  0.37437  0.45476  0.84114  1.0000
  C   C700      1.0  0.05993  0.49336  0.78627  1.0000
  P   P24       1.0  0.29300  0.17266  0.96757  1.0000
  H   H555      1.0  0.28451  0.34224  0.93651  1.0000
  C   C701      1.0  0.28940  0.35688  0.96537  1.0000
  C   C702      1.0  0.31079  0.03778  0.95291  1.0000
  H   H556      1.0  0.43849  0.04295  0.84456  1.0000
  H   H557      1.0  0.42467  0.06156  0.87627  1.0000
  H   H558      1.0  0.39247  0.04669  0.89745  1.0000
  H   H559      1.0  0.37422  0.01318  0.88735  1.0000
  H   H560      1.0  0.32162  0.49160  0.91329  1.0000
  H   H561      1.0  0.27293  0.48152  0.81345  1.0000
  C   C703      1.0  0.30790  0.16582  0.92670  1.0000
  C   C704      1.0  0.39591  0.00881  0.85997  1.0000
  C   C705      1.0  0.27057  0.02904  0.93591  1.0000
  C   C706      1.0  0.30893  0.47974  0.81090  1.0000
  C   C707      1.0  0.47441  0.25100  0.89188  1.0000
  H   H562      1.0  0.02705  0.44056  0.80435  1.0000
  P   P25       1.0  0.44888  0.24237  0.90565  1.0000
  C   C708      1.0  0.42505  0.25185  0.89124  1.0000
  C   C709      1.0  0.44869  0.21218  0.90914  1.0000
  C   C710      1.0  0.42833  0.20155  0.91296  1.0000
  C   C711      1.0  0.42776  0.17823  0.91399  1.0000
  C   C712      1.0  0.44747  0.16529  0.91139  1.0000
  C   C713      1.0  0.46785  0.17565  0.90799  1.0000
  C   C714      1.0  0.46851  0.19899  0.90686  1.0000
  C   C715      1.0  0.41329  0.27194  0.89562  1.0000
  C   C716      1.0  0.39446  0.27873  0.88483  1.0000
  C   C717      1.0  0.38726  0.26561  0.86959  1.0000
  C   C718      1.0  0.39903  0.24578  0.86495  1.0000
  C   C719      1.0  0.41792  0.23896  0.87564  1.0000
  C   C720      1.0  0.44594  0.25521  0.93023  1.0000
  C   C721      1.0  0.45626  0.27538  0.93293  1.0000
  C   C722      1.0  0.45289  0.28595  0.95156  1.0000
  H   H563      1.0  0.26964  0.44398  0.83081  1.0000
  H   H564      1.0  0.25526  0.02556  0.92886  1.0000
  C   C723      1.0  0.43155  0.24639  0.94614  1.0000
  C   C724      1.0  0.32665  0.01147  0.89744  1.0000
  H   H565      1.0  0.45973  0.25807  0.86233  1.0000
  H   H566      1.0  0.46061  0.30160  0.95347  1.0000
  H   H567      1.0  0.41275  0.21122  0.91459  1.0000
  H   H568      1.0  0.41193  0.17017  0.91645  1.0000
  H   H569      1.0  0.44689  0.14723  0.91173  1.0000
  H   H570      1.0  0.02403  0.45712  0.76865  1.0000
  C   C725      1.0  0.12564  0.48273  0.74731  1.0000
  H   H571      1.0  0.41843  0.28239  0.90742  1.0000
  H   H572      1.0  0.38535  0.29413  0.88840  1.0000
  H   H573      1.0  0.37254  0.27084  0.86139  1.0000
  H   H574      1.0  0.39342  0.23559  0.85315  1.0000
  H   H575      1.0  0.42682  0.22352  0.87183  1.0000
  H   H576      1.0  0.31895  0.03741  0.83556  1.0000
  H   H577      1.0  0.27490  0.13068  0.95676  1.0000
  H   H578      1.0  0.41022  0.01621  0.95042  1.0000
  H   H579      1.0  0.30365  0.42037  0.83739  1.0000
  H   H580      1.0  0.42244  0.23159  0.94413  1.0000
  H   H581      1.0  0.48974  0.24712  0.95580  1.0000
  H   H582      1.0  0.29472  0.24674  0.93002  1.0000
  H   H583      1.0  0.28995  0.43380  0.94230  1.0000
  H   H584      1.0  0.39963  0.45928  0.79271  1.0000
  C   C726      1.0  0.30002  0.23672  0.94341  1.0000
  H   H585      1.0  0.28607  0.46891  0.92086  1.0000
  C   C727      1.0  0.47473  0.25783  0.87081  1.0000
  C   C728      1.0  0.32007  0.23311  0.97478  1.0000
  C   C729      1.0  0.28585  0.37581  0.97689  1.0000
  C   C730      1.0  0.43794  0.20108  0.98066  1.0000
  H   H586      1.0  0.47845  0.00186  0.96200  1.0000
  C   C731      1.0  0.06167  0.48378  0.80640  1.0000
  C   C732      1.0  0.31414  0.21082  0.97781  1.0000
  C   C733      1.0  0.31618  0.00577  0.82202  1.0000
  C   C734      1.0  0.25203  0.48285  0.96224  1.0000
  H   H587      1.0  0.39421  0.41660  0.97254  1.0000
  H   H588      1.0  0.34131  0.16821  0.96733  1.0000
  C   C735      1.0  0.49429  0.25076  0.90229  1.0000
  C   C736      1.0  0.28258  0.01181  0.94630  1.0000
  C   C737      1.0  0.24658  0.17214  0.96652  1.0000
  H   H589      1.0  0.37759  0.22833  0.98183  1.0000
  H   H590      1.0  0.07202  0.49096  0.81720  1.0000
  C   C738      1.0  0.44937  0.00328  0.98300  1.0000
  H   H591      1.0  0.41603  0.25095  0.97638  1.0000
  C   C739      1.0  0.33468  0.15762  0.98012  1.0000
  H   H592      1.0  0.21074  0.17248  0.96575  1.0000
  C   C740      1.0  0.35526  0.49350  0.74506  1.0000
  C   C741      1.0  0.25381  0.46285  0.97436  1.0000
  H   H593      1.0  0.44839  0.02127  0.98257  1.0000
  C   C742      1.0  0.22478  0.17428  0.97520  1.0000
  C   C743      1.0  0.26484  0.17425  0.97875  1.0000
  H   H594      1.0  0.49471  0.27015  0.84423  1.0000
  H   H595      1.0  0.49443  0.24527  0.91843  1.0000
  C   C744      1.0  0.49457  0.26471  0.86046  1.0000
  H   H596      1.0  0.36432  0.49406  0.95892  1.0000
  S   S96       1.0  0.28326  0.95410  0.07818  1.0000
  H   H597      1.0  0.38195  0.98748  0.00785  1.0000
  S   S97       1.0  0.34341  0.61963  0.01691  1.0000
  C   C745      1.0  0.42384  0.70097  0.00898  1.0000
  Fe  Fe49      1.0  0.40633  0.60798  0.00011  1.0000
  S   S98       1.0  0.39440  0.61476  0.03250  1.0000
  C   C746      1.0  0.26474  0.93278  0.00084  1.0000
  Fe  Fe50      1.0  0.36662  0.59135  0.02837  1.0000
  S   S99       1.0  0.36220  0.56312  0.05380  1.0000
  Fe  Fe51      1.0  0.37240  0.64256  0.01856  1.0000
  S   S100      1.0  0.37413  0.67659  0.03340  1.0000
  H   H598      1.0  0.28905  0.94639  0.01929  1.0000
  C   C747      1.0  0.46910  0.61499  0.08992  1.0000
  Fe  Fe52      1.0  0.41429  0.83625  0.00687  1.0000
  S   S101      1.0  0.38574  0.82739  0.02947  1.0000
  S   S102      1.0  0.44837  0.82822  0.01986  1.0000
  H   H599      1.0  0.44210  0.65138  0.99000  1.0000
  S   S103      1.0  0.35174  0.84533  0.99398  1.0000
  H   H600      1.0  0.46026  0.94898  0.02929  1.0000
  Fe  Fe53      1.0  0.36962  0.86068  0.01913  1.0000
  S   S104      1.0  0.36138  0.88897  0.04137  1.0000
  Fe  Fe54      1.0  0.37073  0.81267  0.00251  1.0000
  S   S105      1.0  0.35569  0.77832  0.99961  1.0000
  S   S106      1.0  0.39914  0.86983  0.99785  1.0000
  H   H601      1.0  0.03934  0.95182  0.17279  1.0000
  C   C748      1.0  0.36966  0.70475  0.02327  1.0000
  C   C749      1.0  0.37622  0.72257  0.03455  1.0000
  C   C750      1.0  0.37288  0.74509  0.02726  1.0000
  C   C751      1.0  0.36229  0.75021  0.00880  1.0000
  C   C752      1.0  0.35571  0.73241  0.99756  1.0000
  C   C753      1.0  0.35964  0.70988  0.00454  1.0000
  H   H602      1.0  0.38395  0.71891  0.04905  1.0000
  H   H603      1.0  0.37790  0.75849  0.03621  1.0000
  C   C754      1.0  0.36052  0.92147  0.99473  1.0000
  H   H604      1.0  0.35441  0.69649  0.99568  1.0000
  C   C755      1.0  0.18768  0.98230  0.02119  1.0000
  C   C756      1.0  0.47620  0.85629  0.99538  1.0000
  C   C757      1.0  0.47407  0.84044  0.01199  1.0000
  H   H605      1.0  0.43414  0.55589  0.00418  1.0000
  H   H606      1.0  0.46716  0.69791  0.09648  1.0000
  H   H607      1.0  0.44342  0.71791  0.12230  1.0000
  C   C758      1.0  0.38463  0.98477  0.02418  1.0000
  H   H608      1.0  0.47029  0.87861  0.04343  1.0000
  C   C759      1.0  0.49022  0.70676  0.99875  1.0000
  C   C760      1.0  0.48653  0.60765  0.03084  1.0000
  C   C761      1.0  0.46660  0.60455  0.02111  1.0000
  C   C762      1.0  0.46651  0.60552  0.99954  1.0000
  H   H609      1.0  0.07402  0.96736  0.11427  1.0000
  C   C763      1.0  0.48524  0.68390  0.05599  1.0000
  H   H610      1.0  0.48642  0.60710  0.04752  1.0000
  H   H611      1.0  0.45128  0.60168  0.03027  1.0000
  S   S107      1.0  0.27207  0.99535  0.12598  1.0000
  C   C764      1.0  0.43435  0.61265  0.07324  1.0000
  C   C765      1.0  0.33935  0.90729  0.05077  1.0000
  C   C766      1.0  0.34456  0.92451  0.06337  1.0000
  C   C767      1.0  0.32777  0.93923  0.07158  1.0000
  C   C768      1.0  0.30541  0.93680  0.06746  1.0000
  C   C769      1.0  0.30022  0.91954  0.05491  1.0000
  C   C770      1.0  0.31705  0.90510  0.04636  1.0000
  H   H612      1.0  0.36172  0.92639  0.06694  1.0000
  H   H613      1.0  0.33207  0.95222  0.08137  1.0000
  H   H614      1.0  0.28297  0.91727  0.05184  1.0000
  H   H615      1.0  0.31269  0.89202  0.03671  1.0000
  C   C771      1.0  0.34155  0.54261  0.05903  1.0000
  C   C772      1.0  0.34534  0.52492  0.07384  1.0000
  C   C773      1.0  0.32958  0.50818  0.07822  1.0000
  C   C774      1.0  0.30603  0.52656  0.05303  1.0000
  C   C775      1.0  0.32157  0.54352  0.04897  1.0000
  H   H616      1.0  0.36058  0.52417  0.08199  1.0000
  H   H617      1.0  0.31808  0.55738  0.03811  1.0000
  C   C776      1.0  0.21312  0.98260  0.05755  1.0000
  H   H618      1.0  0.43145  0.87249  0.03486  1.0000
  H   H619      1.0  0.34980  0.53411  0.00767  1.0000
  C   C777      1.0  0.44937  0.69979  0.09463  1.0000
  C   C778      1.0  0.39006  0.97728  0.06653  1.0000
  H   H620      1.0  0.04871  0.94315  0.13628  1.0000
  C   C779      1.0  0.43631  0.63462  0.06507  1.0000
  H   H621      1.0  0.42324  0.64214  0.05579  1.0000
  H   H622      1.0  0.16479  0.99180  0.20944  1.0000
  C   C780      1.0  0.41280  0.71271  0.10785  1.0000
  C   C781      1.0  0.05036  0.96240  0.16315  1.0000
  C   C782      1.0  0.44529  0.67912  0.03408  1.0000
  C   C783      1.0  0.43755  0.88929  0.03406  1.0000
  C   C784      1.0  0.05565  0.95752  0.14260  1.0000
  C   C785      1.0  0.43976  0.69076  0.07790  1.0000
  H   H623      1.0  0.14507  0.94624  0.02696  1.0000
  H   H624      1.0  0.05511  0.98446  0.18732  1.0000
  C   C786      1.0  0.33220  0.89672  0.11823  1.0000
  C   C787      1.0  0.31073  0.90226  0.11194  1.0000
  C   C788      1.0  0.29975  0.88742  0.10062  1.0000
  C   C789      1.0  0.31042  0.86727  0.09512  1.0000
  C   C790      1.0  0.33251  0.86214  0.10033  1.0000
  C   C791      1.0  0.34292  0.87657  0.11275  1.0000
  P   P26       1.0  0.34651  0.83610  0.09331  1.0000
  C   C792      1.0  0.37593  0.83875  0.08668  1.0000
  C   C793      1.0  0.34241  0.81692  0.11547  1.0000
  C   C794      1.0  0.32255  0.80537  0.11848  1.0000
  C   C795      1.0  0.31911  0.79081  0.13590  1.0000
  C   C796      1.0  0.33533  0.78794  0.15053  1.0000
  C   C797      1.0  0.35497  0.79971  0.14780  1.0000
  C   C798      1.0  0.35848  0.81424  0.13038  1.0000
  C   C799      1.0  0.38981  0.81942  0.08494  1.0000
  C   C800      1.0  0.41231  0.82110  0.07840  1.0000
  C   C801      1.0  0.42114  0.84206  0.07366  1.0000
  C   C802      1.0  0.40746  0.86135  0.07550  1.0000
  C   C803      1.0  0.38491  0.85971  0.08167  1.0000
  C   C804      1.0  0.33575  0.82499  0.07074  1.0000
  C   C805      1.0  0.33709  0.80186  0.06813  1.0000
  C   C806      1.0  0.32969  0.79333  0.05022  1.0000
  C   C807      1.0  0.32076  0.80777  0.03489  1.0000
  C   C808      1.0  0.31958  0.83079  0.03729  1.0000
  C   C809      1.0  0.32755  0.83940  0.05489  1.0000
  H   H625      1.0  0.34056  0.90814  0.12726  1.0000
  H   H626      1.0  0.30258  0.91811  0.11576  1.0000
  H   H627      1.0  0.28304  0.89176  0.09586  1.0000
  H   H628      1.0  0.30139  0.85587  0.08669  1.0000
  H   H629      1.0  0.35943  0.87241  0.11802  1.0000
  H   H630      1.0  0.30969  0.80768  0.10742  1.0000
  H   H631      1.0  0.30378  0.78186  0.13811  1.0000
  H   H632      1.0  0.33258  0.77675  0.16407  1.0000
  H   H633      1.0  0.36740  0.79771  0.15929  1.0000
  H   H634      1.0  0.37362  0.82351  0.12867  1.0000
  H   H635      1.0  0.38311  0.80303  0.08807  1.0000
  H   H636      1.0  0.42280  0.80615  0.07640  1.0000
  H   H637      1.0  0.43842  0.84330  0.06804  1.0000
  H   H638      1.0  0.41409  0.87763  0.07154  1.0000
  H   H639      1.0  0.37447  0.87483  0.08182  1.0000
  H   H640      1.0  0.34422  0.79040  0.07968  1.0000
  H   H641      1.0  0.33124  0.77555  0.04792  1.0000
  H   H642      1.0  0.31535  0.80113  0.02088  1.0000
  H   H643      1.0  0.31305  0.84201  0.02523  1.0000
  H   H644      1.0  0.32758  0.85731  0.05598  1.0000
  C   C810      1.0  0.45943  0.89275  0.03890  1.0000
  C   C811      1.0  0.23436  0.96388  0.01875  1.0000
  H   H645      1.0  0.40762  0.77738  0.00441  1.0000
  C   C812      1.0  0.15418  0.96089  0.02167  1.0000
  H   H646      1.0  0.33317  0.96996  0.03916  1.0000
  C   C813      1.0  0.22795  0.60911  0.99148  1.0000
  C   C814      1.0  0.40307  0.70312  0.09161  1.0000
  C   C815      1.0  0.43975  0.66472  0.00060  1.0000
  H   H647      1.0  0.26242  0.97357  0.03517  1.0000
  H   H648      1.0  0.38510  0.70401  0.09052  1.0000
  H   H649      1.0  0.45906  0.64766  0.02383  1.0000
  H   H650      1.0  0.13913  0.96309  0.20020  1.0000
  C   C816      1.0  0.45083  0.60277  0.08549  1.0000
  Fe  Fe55      1.0  0.28269  0.98823  0.09301  1.0000
  H   H651      1.0  0.22893  0.60622  0.00806  1.0000
  H   H652      1.0  0.29080  0.52734  0.04486  1.0000
  C   C817      1.0  0.41645  0.69198  0.07682  1.0000
  C   C818      1.0  0.45363  0.93244  0.03079  1.0000
  C   C819      1.0  0.22742  0.94964  0.00411  1.0000
  H   H653      1.0  0.25747  0.58880  0.98430  1.0000
  C   C820      1.0  0.27186  0.94725  0.01500  1.0000
  C   C821      1.0  0.11521  0.98707  0.18737  1.0000
  C   C822      1.0  0.42222  0.54282  0.00398  1.0000
  C   C823      1.0  0.31360  0.99321  0.99423  1.0000
  C   C824      1.0  0.32733  0.98043  0.00758  1.0000
  C   C825      1.0  0.24258  0.93406  0.99529  1.0000
  C   C826      1.0  0.49312  0.83333  0.02248  1.0000
  C   C827      1.0  0.25674  0.96272  0.02393  1.0000
  H   H654      1.0  0.49259  0.67069  0.99984  1.0000
  C   C828      1.0  0.05927  0.98095  0.17132  1.0000
  H   H655      1.0  0.39178  0.97409  0.08300  1.0000
  C   C829      1.0  0.22395  0.96526  0.09047  1.0000
  C   C830      1.0  0.22567  0.96635  0.06885  1.0000
  C   C831      1.0  0.29888  0.51816  0.99532  1.0000
  H   H656      1.0  0.47005  0.76371  0.07167  1.0000
  S   S108      1.0  0.44182  0.60231  0.98652  1.0000
  C   C832      1.0  0.39050  0.50987  0.00313  1.0000
  H   H657      1.0  0.31883  0.94687  0.98555  1.0000
  H   H658      1.0  0.48182  0.60737  0.09951  1.0000
  C   C833      1.0  0.13496  0.98064  0.19694  1.0000
  H   H659      1.0  0.27634  0.92052  0.99419  1.0000
  H   H660      1.0  0.12773  0.97523  0.00346  1.0000
  H   H661      1.0  0.18311  0.95066  0.03835  1.0000
  C   C834      1.0  0.32286  0.98021  0.02893  1.0000
  H   H662      1.0  0.47222  0.70725  0.00045  1.0000
  H   H663      1.0  0.48293  0.80178  0.99050  1.0000
  C   C835      1.0  0.43331  0.69883  0.02820  1.0000
  S   S109      1.0  0.38022  0.58291  0.99655  1.0000
  H   H664      1.0  0.28198  0.52488  0.99390  1.0000
  C   C836      1.0  0.06990  0.97116  0.13020  1.0000
  C   C837      1.0  0.17572  0.96343  0.02807  1.0000
  H   H665      1.0  0.20867  0.97972  0.11773  1.0000
  H   H666      1.0  0.23438  0.95329  0.09907  1.0000
  H   H667      1.0  0.23706  0.95463  0.06127  1.0000
  H   H668      1.0  0.46262  0.75009  0.03760  1.0000
  H   H669      1.0  0.31157  0.54930  0.00340  1.0000
  C   C838      1.0  0.44910  0.66248  0.01987  1.0000
  C   C839      1.0  0.40025  0.96831  0.03106  1.0000
  C   C840      1.0  0.39580  0.93942  0.99689  1.0000
  C   C841      1.0  0.39211  0.52188  0.02091  1.0000
  C   C842      1.0  0.46736  0.91437  0.03760  1.0000
  H   H670      1.0  0.44934  0.58568  0.09162  1.0000
  C   C843      1.0  0.40489  0.51457  0.98573  1.0000
  H   H671      1.0  0.47747  0.71838  0.06226  1.0000
  H   H672      1.0  0.40670  0.90430  0.02422  1.0000
  H   H673      1.0  0.41430  0.95161  0.05816  1.0000
  P   P27       1.0  0.21551  0.98496  0.02959  1.0000
  H   H674      1.0  0.48506  0.64633  0.08583  1.0000
  S   S110      1.0  0.38601  0.63672  0.98629  1.0000
  C   C844      1.0  0.49048  0.70612  0.05839  1.0000
  C   C845      1.0  0.40790  0.53828  0.02130  1.0000
  C   C846      1.0  0.43507  0.96768  0.99617  1.0000
  C   C847      1.0  0.42365  0.90735  0.02767  1.0000
  C   C848      1.0  0.43186  0.92891  0.02514  1.0000
  P   P28       1.0  0.41571  0.95135  0.01256  1.0000
  C   C849      1.0  0.48663  0.60890  0.98784  1.0000
  H   H675      1.0  0.28970  0.99261  0.21557  1.0000
  H   H676      1.0  0.10439  0.97426  0.18331  1.0000
  C   C850      1.0  0.20946  0.98008  0.10097  1.0000
  H   H677      1.0  0.40236  0.72116  0.11939  1.0000
  H   H678      1.0  0.41347  0.71559  0.00505  1.0000
  H   H679      1.0  0.34147  0.97060  0.00149  1.0000
  H   H680      1.0  0.42002  0.60327  0.07006  1.0000
  C   C851      1.0  0.42682  0.68385  0.99527  1.0000
  C   C852      1.0  0.45488  0.64680  0.06900  1.0000
  H   H681      1.0  0.40857  0.54790  0.03489  1.0000
  C   C853      1.0  0.47737  0.75947  0.03917  1.0000
  H   H682      1.0  0.34499  0.91580  0.00215  1.0000
  H   H683      1.0  0.43062  0.71228  0.03859  1.0000
  H   H684      1.0  0.38087  0.51894  0.03439  1.0000
  C   C854      1.0  0.43376  0.99113  0.99528  1.0000
  H   H685      1.0  0.21045  0.95053  0.99932  1.0000
  C   C855      1.0  0.43593  0.71093  0.10943  1.0000
  C   C856      1.0  0.33732  0.52319  0.00301  1.0000
  C   C857      1.0  0.48169  0.76688  0.05857  1.0000
  C   C858      1.0  0.40281  0.96456  0.05238  1.0000
  C   C859      1.0  0.30993  0.50867  0.06756  1.0000
  C   C860      1.0  0.31555  0.53190  0.00074  1.0000
  H   H686      1.0  0.37029  0.93639  0.02183  1.0000
  H   H687      1.0  0.48437  0.91700  0.04134  1.0000
  P   P29       1.0  0.45671  0.67546  0.05921  1.0000
  H   H688      1.0  0.40850  0.68415  0.06465  1.0000
  C   C861      1.0  0.47100  0.63702  0.08192  1.0000
  C   C862      1.0  0.37498  0.93320  0.00587  1.0000
  C   C863      1.0  0.42069  0.53099  0.98621  1.0000
  C   C864      1.0  0.34255  0.50064  0.99956  1.0000
  C   C865      1.0  0.14441  0.97722  0.00844  1.0000
  C   C866      1.0  0.30525  0.99344  0.03715  1.0000
  H   H689      1.0  0.46164  0.86196  0.98720  1.0000
  C   C867      1.0  0.30399  0.49572  0.99186  1.0000
  C   C868      1.0  0.07348  0.99481  0.15891  1.0000
  H   H690      1.0  0.44681  0.77782  0.01320  1.0000
  H   H691      1.0  0.45396  0.93862  0.98523  1.0000
  Fe  Fe56      1.0  0.35883  0.61207  0.98525  1.0000
  C   C869      1.0  0.42010  0.76702  0.99635  1.0000
  P   P30       1.0  0.48753  0.75362  0.99710  1.0000
  C   C870      1.0  0.07883  0.98973  0.13831  1.0000
  C   C871      1.0  0.37482  0.99388  0.05952  1.0000
  H   H692      1.0  0.19825  0.63034  0.99388  1.0000
  C   C872      1.0  0.45237  0.95672  0.98462  1.0000
  C   C873      1.0  0.45840  0.75266  0.99182  1.0000
  H   H693      1.0  0.49151  0.82135  0.03550  1.0000
  C   C874      1.0  0.44231  0.76667  0.00172  1.0000
  H   H694      1.0  0.30168  0.99316  0.05367  1.0000
  C   C875      1.0  0.49211  0.76404  0.02202  1.0000
  H   H695      1.0  0.23715  0.92300  0.98410  1.0000
  S   S111      1.0  0.14910  0.97000  0.36060  1.0000
  Fe  Fe57      1.0  0.07311  0.61330  0.45629  1.0000
  S   S112      1.0  0.08013  0.62036  0.42224  1.0000
  C   C876      1.0  0.05211  0.68749  0.44103  1.0000
  Fe  Fe58      1.0  0.12276  0.60693  0.46413  1.0000
  S   S113      1.0  0.13305  0.61395  0.43058  1.0000
  C   C877      1.0  0.00230  0.55736  0.44153  1.0000
  Fe  Fe59      1.0  0.10702  0.64233  0.43194  1.0000
  S   S114      1.0  0.11271  0.67770  0.41755  1.0000
  Fe  Fe60      1.0  0.10560  0.59134  0.42423  1.0000
  S   S115      1.0  0.10595  0.56102  0.40390  1.0000
  S   S116      1.0  0.09871  0.63656  0.46583  1.0000
  S   S117      1.0  0.09657  0.58311  0.45792  1.0000
  Fe  Fe61      1.0  0.10208  0.80942  0.45166  1.0000
  S   S118      1.0  0.07124  0.82296  0.46881  1.0000
  S   S119      1.0  0.10903  0.77190  0.46009  1.0000
  Fe  Fe62      1.0  0.11413  0.85759  0.43373  1.0000
  S   S120      1.0  0.08366  0.87323  0.44967  1.0000
  S   S121      1.0  0.14224  0.87898  0.41809  1.0000
  H   H696      1.0  0.19630  0.82376  0.43182  1.0000
  H   H697      1.0  0.23178  0.50770  0.38147  1.0000
  Fe  Fe63      1.0  0.06544  0.84385  0.43973  1.0000
  H   H698      1.0  0.04341  0.65306  0.44136  1.0000
  S   S122      1.0  0.12355  0.83632  0.46224  1.0000
  S   S123      1.0  0.09549  0.82920  0.42179  1.0000
  C   C878      1.0  0.02006  0.55770  0.45447  1.0000
  C   C879      1.0  0.00617  0.84235  0.43818  1.0000
  H   H699      1.0  0.01726  0.50207  0.46222  1.0000
  C   C880      1.0  0.19037  0.60972  0.41380  1.0000
  H   H700      1.0  0.10399  0.72708  0.47645  1.0000
  H   H701      1.0  0.03167  0.61158  0.42922  1.0000
  H   H702      1.0  0.15651  0.97090  0.28653  1.0000
  C   C881      1.0  0.10967  0.70389  0.42953  1.0000
  C   C882      1.0  0.10639  0.70526  0.45097  1.0000
  C   C883      1.0  0.10563  0.72627  0.45986  1.0000
  C   C884      1.0  0.10748  0.74627  0.44755  1.0000
  C   C885      1.0  0.10958  0.74498  0.42604  1.0000
  C   C886      1.0  0.11096  0.72393  0.41715  1.0000
  H   H703      1.0  0.10522  0.69010  0.46076  1.0000
  H   H704      1.0  0.00718  0.73379  0.40663  1.0000
  H   H705      1.0  0.11077  0.76014  0.41626  1.0000
  H   H706      1.0  0.11321  0.72318  0.40054  1.0000
  C   C887      1.0  0.14736  0.94539  0.37761  1.0000
  C   C888      1.0  0.12709  0.93423  0.37998  1.0000
  C   C889      1.0  0.12497  0.91438  0.39273  1.0000
  C   C890      1.0  0.14330  0.90498  0.40298  1.0000
  C   C891      1.0  0.16357  0.91616  0.40066  1.0000
  C   C892      1.0  0.16557  0.93625  0.38824  1.0000
  H   H707      1.0  0.11290  0.94098  0.37181  1.0000
  H   H708      1.0  0.10931  0.90603  0.39417  1.0000
  H   H709      1.0  0.17796  0.90909  0.40830  1.0000
  H   H710      1.0  0.18133  0.94441  0.38649  1.0000
  C   C893      1.0  0.16739  0.53365  0.38562  1.0000
  C   C894      1.0  0.15047  0.54864  0.39322  1.0000
  C   C895      1.0  0.12820  0.54250  0.39497  1.0000
  C   C896      1.0  0.12322  0.52111  0.38901  1.0000
  C   C897      1.0  0.02255  0.98944  0.40241  1.0000
  H   H711      1.0  0.15456  0.56511  0.39735  1.0000
  H   H712      1.0  0.10609  0.51622  0.38995  1.0000
  C   C898      1.0  0.15954  0.50055  0.44205  1.0000
  C   C899      1.0  0.18788  0.98705  0.28559  1.0000
  C   C900      1.0  0.16248  0.51214  0.37993  1.0000
  C   C901      1.0  0.16572  0.79042  0.44190  1.0000
  H   H713      1.0  0.27370  0.81063  0.46938  1.0000
  H   H714      1.0  0.13766  0.97579  0.46336  1.0000
  H   H715      1.0  0.24852  0.56571  0.42923  1.0000
  C   C902      1.0  0.19448  0.58685  0.41806  1.0000
  H   H716      1.0  0.18437  0.53898  0.38376  1.0000
  C   C903      1.0  0.22502  0.54113  0.42241  1.0000
  C   C904      1.0  0.99758  0.72002  0.40258  1.0000
  H   H717      1.0  0.15637  0.64749  0.45759  1.0000
  C   C905      1.0  0.14019  0.50598  0.38172  1.0000
  H   H718      1.0  0.01966  0.79838  0.42049  1.0000
  S   S124      1.0  0.03875  0.61315  0.47319  1.0000
  H   H719      1.0  0.26754  0.52712  0.37689  1.0000
  C   C906      1.0  0.04574  0.70881  0.44735  1.0000
  H   H720      1.0  0.09306  0.96883  0.42355  1.0000
  H   H721      1.0  0.19555  0.73263  0.43452  1.0000
  C   C907      1.0  0.23801  0.53732  0.47104  1.0000
  C   C908      1.0  0.20122  0.98958  0.44187  1.0000
  C   C909      1.0  0.19444  0.76275  0.45125  1.0000
  H   H722      1.0  0.12382  0.50405  0.44100  1.0000
  H   H723      1.0  0.22328  0.93610  0.41514  1.0000
  C   C910      1.0  0.06619  0.52612  0.42733  1.0000
  H   H724      1.0  0.18786  0.64233  0.42615  1.0000
  H   H725      1.0  0.02554  0.69650  0.40524  1.0000
  S   S125      1.0  0.03216  0.84658  0.42438  1.0000
  C   C911      1.0  0.02525  0.71239  0.45829  1.0000
  H   H726      1.0  0.01780  0.96416  0.38091  1.0000
  H   H727      1.0  0.20824  0.75703  0.46039  1.0000
  H   H728      1.0  0.27572  0.55624  0.40076  1.0000
  H   H729      1.0  0.19278  0.86328  0.41944  1.0000
  C   C912      1.0  0.18784  0.87558  0.44993  1.0000
  C   C913      1.0  0.22042  0.52499  0.40851  1.0000
  C   C914      1.0  0.14278  0.99012  0.47096  1.0000
  C   C915      1.0  0.26038  0.54734  0.40309  1.0000
  C   C916      1.0  0.00988  0.79426  0.40778  1.0000
  C   C917      1.0  0.20083  0.59387  0.45363  1.0000
  H   H730      1.0  0.16452  0.96904  0.41855  1.0000
  H   H731      1.0  0.02387  0.81988  0.38703  1.0000
  C   C918      1.0  0.03822  0.66969  0.44588  1.0000
  C   C919      1.0  0.01435  0.61313  0.45910  1.0000
  C   C920      1.0  0.26004  0.80098  0.47624  1.0000
  C   C921      1.0  0.17905  0.53511  0.44275  1.0000
  C   C922      1.0  0.06677  0.50699  0.41601  1.0000
  C   C923      1.0  0.19147  0.62467  0.42941  1.0000
  H   H732      1.0  0.22965  0.97345  0.39796  1.0000
  Fe  Fe64      1.0  0.09226  0.85081  0.47736  1.0000
  H   H733      1.0  0.15891  0.71866  0.46068  1.0000
  H   H734      1.0  0.02124  0.72885  0.46370  1.0000
  H   H735      1.0  0.20480  0.51670  0.40942  1.0000
  H   H736      1.0  0.19335  0.57544  0.40584  1.0000
  C   C924      1.0  0.01652  0.55351  0.47580  1.0000
  C   C925      1.0  0.01227  0.80643  0.38885  1.0000
  H   H737      1.0  0.07135  0.53941  0.45668  1.0000
  C   C926      1.0  0.21543  0.54325  0.46838  1.0000
  C   C927      1.0  0.20575  0.94921  0.44205  1.0000
  H   H738      1.0  0.05794  0.96070  0.36969  1.0000
  C   C928      1.0  0.13914  0.51255  0.44229  1.0000
  H   H739      1.0  0.19502  0.50235  0.44276  1.0000
  H   H740      1.0  0.18593  0.61580  0.39845  1.0000
  H   H741      1.0  0.24978  0.53588  0.45795  1.0000
  H   H742      1.0  0.16587  0.68450  0.44108  1.0000
  C   C929      1.0  0.16658  0.94156  0.47944  1.0000
  C   C930      1.0  0.01776  0.67322  0.45673  1.0000
  H   H743      1.0  0.00740  0.65912  0.46068  1.0000
  H   H744      1.0  0.19377  0.97741  0.29900  1.0000
  C   C931      1.0  0.14305  0.91545  0.46440  1.0000
  H   H745      1.0  0.99719  0.60972  0.41030  1.0000
  C   C932      1.0  0.19976  0.57877  0.43800  1.0000
  C   C933      1.0  0.21717  0.95100  0.42267  1.0000
  C   C934      1.0  0.01561  0.61208  0.43760  1.0000
  C   C935      1.0  0.18374  0.78376  0.45397  1.0000
  P   P31       1.0  0.20501  0.54917  0.44295  1.0000
  C   C936      1.0  0.10817  0.97812  0.42158  1.0000
  C   C937      1.0  0.07156  0.52447  0.44803  1.0000
  H   H746      1.0  0.20353  0.93280  0.44956  1.0000
  H   H747      1.0  0.14445  0.78170  0.41832  1.0000
  H   H748      1.0  0.05688  0.72249  0.44395  1.0000
  H   H749      1.0  0.13573  0.90934  0.45101  1.0000
  H   H750      1.0  0.15691  0.80631  0.44389  1.0000
  C   C938      1.0  0.19667  0.61674  0.44931  1.0000
  H   H751      1.0  0.03635  0.56237  0.44804  1.0000
  H   H752      1.0  0.06787  0.68467  0.43249  1.0000
  C   C939      1.0  0.15861  0.77645  0.42730  1.0000
  C   C940      1.0  0.16927  0.75560  0.42469  1.0000
  C   C941      1.0  0.18729  0.74881  0.43657  1.0000
  C   C942      1.0  0.15842  0.54703  0.44395  1.0000
  C   C943      1.0  0.19176  0.85885  0.43590  1.0000
  H   H753      1.0  0.20440  0.58815  0.46924  1.0000
  H   H754      1.0  0.15752  0.56505  0.44471  1.0000
  C   C944      1.0  0.19729  0.96849  0.45160  1.0000
  H   H755      1.0  0.16048  0.94111  0.44687  1.0000
  H   H756      1.0  0.06212  0.54232  0.41987  1.0000
  C   C945      1.0  0.16688  0.98339  0.27856  1.0000
  C   C946      1.0  0.22076  0.97204  0.41297  1.0000
  C   C947      1.0  0.23577  0.51991  0.39229  1.0000
  C   C948      1.0  0.15965  0.68317  0.45710  1.0000
  H   H757      1.0  0.00122  0.81113  0.35790  1.0000
  H   H758      1.0  0.19699  0.62822  0.46157  1.0000
  C   C949      1.0  0.17934  0.51177  0.44272  1.0000
  C   C950      1.0  0.25580  0.53096  0.38963  1.0000
  C   C951      1.0  0.00475  0.83774  0.45958  1.0000
  C   C952      1.0  0.13857  0.53570  0.44370  1.0000
  C   C953      1.0  0.14852  0.97803  0.41919  1.0000
  C   C954      1.0  0.19057  0.83053  0.46424  1.0000
  H   H759      1.0  0.12938  0.94838  0.42362  1.0000
  C   C955      1.0  0.12877  0.96646  0.42189  1.0000
  C   C956      1.0  0.15421  0.66235  0.46633  1.0000
  C   C957      1.0  0.02974  0.97426  0.38762  1.0000
  H   H760      1.0  0.16338  0.74466  0.41361  1.0000
  H   H761      1.0  0.12275  0.54497  0.44367  1.0000
  C   C958      1.0  0.15717  0.93345  0.46213  1.0000
  C   C959      1.0  0.05234  0.97226  0.38132  1.0000
  H   H762      1.0  0.18589  0.89285  0.44431  1.0000
  H   H763      1.0  0.01975  0.83675  0.46808  1.0000
  H   H764      1.0  0.01301  0.50999  0.42472  1.0000
  C   C960      1.0  0.24498  0.55256  0.41927  1.0000
  C   C961      1.0  0.19331  0.83641  0.44300  1.0000
  H   H765      1.0  0.06295  0.50841  0.39985  1.0000
  C   C962      1.0  0.06781  0.98521  0.38999  1.0000
  C   C963      1.0  0.22036  0.79428  0.47999  1.0000
  C   C964      1.0  0.18583  0.86993  0.47111  1.0000
  H   H766      1.0  0.23525  0.82053  0.46004  1.0000
  H   H767      1.0  0.08184  0.50312  0.47339  1.0000
  C   C965      1.0  0.15583  0.70240  0.46818  1.0000
  C   C966      1.0  0.07784  0.50375  0.45737  1.0000
  H   H768      1.0  0.08522  0.98366  0.38464  1.0000
  C   C967      1.0  0.00071  0.50037  0.43384  1.0000
  C   C968      1.0  0.23816  0.80657  0.47102  1.0000
  C   C969      1.0  0.00813  0.69881  0.40182  1.0000
  H   H769      1.0  0.00488  0.56151  0.42510  1.0000
  C   C970      1.0  0.21293  0.99129  0.42265  1.0000
  C   C971      1.0  0.01075  0.69469  0.46254  1.0000
  P   P32       1.0  0.19199  0.80154  0.47360  1.0000
  H   H770      1.0  0.23078  0.95249  0.47658  1.0000
  C   C972      1.0  0.18720  0.84752  0.47824  1.0000
  H   H771      1.0  0.14521  0.78875  0.48044  1.0000
  H   H772      1.0  0.00498  0.99122  0.40705  1.0000
  H   H773      1.0  0.05599  0.99229  0.45051  1.0000
  H   H774      1.0  0.14277  0.99342  0.25616  1.0000
  C   C973      1.0  0.16383  0.99019  0.47928  1.0000
  P   P33       1.0  0.18300  0.96626  0.47683  1.0000
  C   C974      1.0  0.99602  0.61102  0.42689  1.0000
  H   H775      1.0  0.18283  0.88288  0.48201  1.0000
  H   H776      1.0  0.00453  0.66419  0.39586  1.0000
  C   C975      1.0  0.99944  0.80152  0.37251  1.0000
  C   C976      1.0  0.99635  0.68064  0.39641  1.0000
  C   C977      1.0  0.00311  0.49587  0.45497  1.0000
  Fe  Fe65      1.0  0.35457  0.58768  0.71850  1.0000
  S   S126      1.0  0.37341  0.57744  0.68914  1.0000
  C   C978      1.0  0.18138  0.85301  0.72290  1.0000
  Fe  Fe66      1.0  0.34940  0.63638  0.70277  1.0000
  S   S127      1.0  0.36716  0.62935  0.67241  1.0000
  S   S128      1.0  0.33337  0.66988  0.71168  1.0000
  Fe  Fe67      1.0  0.34673  0.59840  0.67305  1.0000
  S   S129      1.0  0.32919  0.58969  0.64407  1.0000
  Fe  Fe68      1.0  0.39234  0.60903  0.69125  1.0000
  S   S130      1.0  0.42932  0.61747  0.68351  1.0000
  S   S131      1.0  0.32734  0.60700  0.70219  1.0000
  S   S132      1.0  0.37507  0.61772  0.72182  1.0000
  Fe  Fe69      1.0  0.39852  0.84009  0.68633  1.0000
  S   S133      1.0  0.39213  0.81351  0.71151  1.0000
  S   S134      1.0  0.43404  0.85172  0.67623  1.0000
  Fe  Fe70      1.0  0.34809  0.84235  0.67465  1.0000
  S   S135      1.0  0.33950  0.81549  0.69923  1.0000
  S   S136      1.0  0.32010  0.85084  0.65204  1.0000
  C   C979      1.0  0.09787  0.98292  0.51479  1.0000
  H   H777      1.0  0.12150  0.95805  0.50318  1.0000
  Fe  Fe71      1.0  0.37130  0.79747  0.68919  1.0000
  S   S137      1.0  0.37763  0.76126  0.68096  1.0000
  S   S138      1.0  0.36798  0.86201  0.69556  1.0000
  S   S139      1.0  0.37914  0.82296  0.66337  1.0000
  Fe  Fe72      1.0  0.16617  0.54060  0.59327  1.0000
  H   H778      1.0  0.13339  0.53761  0.52283  1.0000
  S   S140      1.0  0.13846  0.56097  0.57773  1.0000
  Fe  Fe73      1.0  0.17634  0.52015  0.63579  1.0000
  C   C980      1.0  0.28296  0.80825  0.67669  1.0000
  C   C981      1.0  0.09740  0.51148  0.60770  1.0000
  Fe  Fe74      1.0  0.21462  0.53204  0.60536  1.0000
  S   S141      1.0  0.24962  0.54587  0.59996  1.0000
  C   C982      1.0  0.14624  0.70088  0.48835  1.0000
  S   S142      1.0  0.18566  0.55243  0.61894  1.0000
  C   C983      1.0  0.20065  0.54440  0.48589  1.0000
  Fe  Fe75      1.0  0.16153  0.92130  0.62326  1.0000
  S   S143      1.0  0.18422  0.95016  0.61832  1.0000
  S   S144      1.0  0.13760  0.91957  0.65149  1.0000
  Fe  Fe76      1.0  0.17801  0.90141  0.58299  1.0000
  S   S145      1.0  0.20288  0.92814  0.57567  1.0000
  S   S146      1.0  0.17509  0.87327  0.56152  1.0000
  Fe  Fe77      1.0  0.21062  0.92363  0.60949  1.0000
  S   S147      1.0  0.24387  0.92422  0.62564  1.0000
  Fe  Fe78      1.0  0.17450  0.95215  0.58514  1.0000
  H   H779      1.0  0.04154  0.65464  0.49619  1.0000
  S   S148      1.0  0.18785  0.89504  0.61582  1.0000
  S   S149      1.0  0.14966  0.92518  0.59105  1.0000
  H   H780      1.0  0.16063  0.70814  0.53064  1.0000
  H   H781      1.0  0.18249  0.58105  0.51368  1.0000
  C   C984      1.0  0.02003  0.89319  0.66512  1.0000
  H   H782      1.0  0.11866  0.96582  0.64756  1.0000
  C   C985      1.0  0.11349  0.86668  0.52393  1.0000
  C   C986      1.0  0.11211  0.88021  0.54098  1.0000
  C   C987      1.0  0.13081  0.88248  0.55273  1.0000
  C   C988      1.0  0.15099  0.87110  0.54752  1.0000
  C   C989      1.0  0.15222  0.85742  0.53067  1.0000
  C   C990      1.0  0.13364  0.85526  0.51883  1.0000
  H   H783      1.0  0.09655  0.88905  0.54505  1.0000
  H   H784      1.0  0.12954  0.89293  0.56580  1.0000
  H   H785      1.0  0.16778  0.84867  0.52669  1.0000
  H   H786      1.0  0.13491  0.84470  0.50583  1.0000
  C   C991      1.0  0.14224  0.57122  0.55181  1.0000
  C   C992      1.0  0.12364  0.57950  0.54116  1.0000
  C   C993      1.0  0.12616  0.58766  0.52041  1.0000
  C   C994      1.0  0.14740  0.58805  0.51042  1.0000
  C   C995      1.0  0.16600  0.58027  0.52123  1.0000
  C   C996      1.0  0.16344  0.57157  0.54177  1.0000
  H   H787      1.0  0.10723  0.57940  0.54892  1.0000
  H   H788      1.0  0.11176  0.59374  0.51219  1.0000
  H   H789      1.0  0.17787  0.56551  0.54995  1.0000
  C   C997      1.0  0.46204  0.84677  0.68432  1.0000
  C   C998      1.0  0.47990  0.85574  0.67189  1.0000
  H   H790      1.0  0.05450  0.89121  0.67306  1.0000
  H   H791      1.0  0.46995  0.81945  0.65007  1.0000
  C   C999      1.0  0.46708  0.83403  0.70236  1.0000
  C   C1000     1.0  0.46805  0.73722  0.69704  1.0000
  H   H792      1.0  0.02357  0.90167  0.65017  1.0000
  H   H793      1.0  0.45366  0.82722  0.71227  1.0000
  C   C1001     1.0  0.29846  0.87126  0.64575  1.0000
  C   C1002     1.0  0.28364  0.86667  0.63059  1.0000
  C   C1003     1.0  0.26671  0.88242  0.62449  1.0000
  C   C1004     1.0  0.26431  0.90315  0.63344  1.0000
  C   C1005     1.0  0.27900  0.90766  0.64874  1.0000
  C   C1006     1.0  0.29583  0.89183  0.65496  1.0000
  H   H794      1.0  0.28545  0.85090  0.62328  1.0000
  H   H795      1.0  0.25577  0.87866  0.61260  1.0000
  H   H796      1.0  0.27750  0.92363  0.65572  1.0000
  H   H797      1.0  0.30705  0.89576  0.66656  1.0000
  C   C1007     1.0  0.34555  0.69529  0.70298  1.0000
  C   C1008     1.0  0.33644  0.71557  0.71023  1.0000
  C   C1009     1.0  0.34609  0.73604  0.70387  1.0000
  C   C1010     1.0  0.36463  0.73632  0.68979  1.0000
  C   C1011     1.0  0.37336  0.71607  0.68225  1.0000
  C   C1012     1.0  0.36408  0.69564  0.68899  1.0000
  H   H798      1.0  0.13304  0.79525  0.54550  1.0000
  H   H799      1.0  0.33909  0.75155  0.70963  1.0000
  H   H800      1.0  0.38745  0.71610  0.67111  1.0000
  H   H801      1.0  0.37120  0.68018  0.68322  1.0000
  C   C1013     1.0  0.45734  0.60779  0.68851  1.0000
  C   C1014     1.0  0.46230  0.58768  0.69969  1.0000
  H   H802      1.0  0.04075  0.55215  0.56873  1.0000
  C   C1015     1.0  0.47529  0.62085  0.68078  1.0000
  H   H803      1.0  0.44885  0.57732  0.70567  1.0000
  H   H804      1.0  0.47182  0.63631  0.67195  1.0000
  C   C1016     1.0  0.30634  0.57656  0.63368  1.0000
  C   C1017     1.0  0.30495  0.57833  0.61217  1.0000
  C   C1018     1.0  0.28761  0.56875  0.60255  1.0000
  C   C1019     1.0  0.27092  0.55720  0.61411  1.0000
  C   C1020     1.0  0.27205  0.55523  0.63579  1.0000
  C   C1021     1.0  0.28976  0.56483  0.64556  1.0000
  H   H805      1.0  0.31753  0.58719  0.60275  1.0000
  H   H806      1.0  0.28716  0.57039  0.58589  1.0000
  H   H807      1.0  0.25948  0.54616  0.64495  1.0000
  H   H808      1.0  0.29065  0.56311  0.66216  1.0000
  C   C1022     1.0  0.13295  0.85580  0.69375  1.0000
  C   C1023     1.0  0.14726  0.85606  0.67586  1.0000
  C   C1024     1.0  0.14904  0.87555  0.66285  1.0000
  C   C1025     1.0  0.13654  0.89495  0.66770  1.0000
  C   C1026     1.0  0.12239  0.89472  0.68565  1.0000
  C   C1027     1.0  0.12063  0.87525  0.69865  1.0000
  H   H809      1.0  0.15695  0.84113  0.67204  1.0000
  H   H810      1.0  0.15991  0.87544  0.64903  1.0000
  H   H811      1.0  0.11267  0.90965  0.68951  1.0000
  H   H812      1.0  0.10951  0.87527  0.71231  1.0000
  C   C1028     1.0  0.12220  0.57364  0.69718  1.0000
  C   C1029     1.0  0.12943  0.55547  0.70987  1.0000
  C   C1030     1.0  0.14323  0.53839  0.70140  1.0000
  C   C1031     1.0  0.14984  0.53942  0.68029  1.0000
  C   C1032     1.0  0.14280  0.55769  0.66767  1.0000
  C   C1033     1.0  0.12882  0.57461  0.67606  1.0000
  C   C1034     1.0  0.22483  0.77615  0.49403  1.0000
  H   H813      1.0  0.14877  0.52430  0.71113  1.0000
  H   H814      1.0  0.14773  0.55857  0.65137  1.0000
  C   C1035     1.0  0.22754  0.85144  0.65063  1.0000
  C   C1036     1.0  0.04428  0.95779  0.56530  1.0000
  C   C1037     1.0  0.07600  0.83750  0.67723  1.0000
  C   C1038     1.0  0.04507  0.82834  0.65739  1.0000
  C   C1039     1.0  0.05819  0.83192  0.63904  1.0000
  C   C1040     1.0  0.08057  0.83756  0.63973  1.0000
  C   C1041     1.0  0.08902  0.84131  0.65892  1.0000
  P   P34       1.0  0.09759  0.84250  0.61615  1.0000
  C   C1042     1.0  0.12668  0.83637  0.62044  1.0000
  C   C1043     1.0  0.09167  0.82445  0.59594  1.0000
  C   C1044     1.0  0.09700  0.83107  0.57520  1.0000
  C   C1045     1.0  0.09200  0.81762  0.55933  1.0000
  C   C1046     1.0  0.08245  0.79700  0.56409  1.0000
  C   C1047     1.0  0.07809  0.78976  0.58476  1.0000
  C   C1048     1.0  0.08281  0.80337  0.60067  1.0000
  C   C1049     1.0  0.13295  0.81907  0.63473  1.0000
  C   C1050     1.0  0.15550  0.81375  0.63754  1.0000
  C   C1051     1.0  0.17195  0.82529  0.62575  1.0000
  C   C1052     1.0  0.16583  0.84197  0.61101  1.0000
  C   C1053     1.0  0.14330  0.84759  0.60837  1.0000
  C   C1054     1.0  0.09223  0.87148  0.60826  1.0000
  C   C1055     1.0  0.07624  0.87758  0.59375  1.0000
  C   C1056     1.0  0.07170  0.90010  0.58815  1.0000
  C   C1057     1.0  0.08258  0.91670  0.59741  1.0000
  C   C1058     1.0  0.09797  0.91078  0.61229  1.0000
  C   C1059     1.0  0.10286  0.88827  0.61769  1.0000
  H   H815      1.0  0.02786  0.82382  0.65683  1.0000
  H   H816      1.0  0.05088  0.83032  0.62435  1.0000
  H   H817      1.0  0.10573  0.84711  0.65982  1.0000
  H   H818      1.0  0.10481  0.84677  0.57126  1.0000
  H   H819      1.0  0.09544  0.82336  0.54331  1.0000
  H   H820      1.0  0.07843  0.78672  0.55171  1.0000
  H   H821      1.0  0.07086  0.77369  0.58847  1.0000
  H   H822      1.0  0.07957  0.79743  0.61659  1.0000
  H   H823      1.0  0.12048  0.80970  0.64381  1.0000
  H   H824      1.0  0.16020  0.80079  0.64897  1.0000
  H   H825      1.0  0.18943  0.82127  0.62793  1.0000
  H   H826      1.0  0.17859  0.85056  0.60155  1.0000
  H   H827      1.0  0.13896  0.86051  0.59676  1.0000
  H   H828      1.0  0.06723  0.86503  0.58672  1.0000
  H   H829      1.0  0.05971  0.90466  0.57663  1.0000
  H   H830      1.0  0.07906  0.93413  0.59315  1.0000
  H   H831      1.0  0.10629  0.92367  0.61960  1.0000
  H   H832      1.0  0.11485  0.88402  0.62928  1.0000
  C   C1060     1.0  0.03383  0.55996  0.55490  1.0000
  C   C1061     1.0  0.11602  0.95414  0.53625  1.0000
  C   C1062     1.0  0.08971  0.98097  0.55196  1.0000
  C   C1063     1.0  0.14090  0.67997  0.49779  1.0000
  H   H833      1.0  0.05128  0.59043  0.55656  1.0000
  C   C1064     1.0  0.10991  0.97078  0.63377  1.0000
  H   H834      1.0  0.29463  0.64648  0.72343  1.0000
  C   C1065     1.0  0.02357  0.94786  0.56618  1.0000
  C   C1066     1.0  0.30300  0.77243  0.67510  1.0000
  P   P35       1.0  0.07345  0.99067  0.57425  1.0000
  C   C1067     1.0  0.15493  0.62177  0.56628  1.0000
  S   S150      1.0  0.16131  0.97909  0.56169  1.0000
  C   C1068     1.0  0.23085  0.53438  0.50823  1.0000
  H   H835      1.0  0.12310  0.58853  0.66612  1.0000
  C   C1069     1.0  0.13763  0.65603  0.53974  1.0000
  C   C1070     1.0  0.08652  0.99126  0.53230  1.0000
  C   C1071     1.0  0.40133  0.68767  0.72944  1.0000
  C   C1072     1.0  0.16192  0.93105  0.49900  1.0000
  C   C1073     1.0  0.10448  0.96224  0.55378  1.0000
  H   H836      1.0  0.14502  0.52693  0.48743  1.0000
  H   H837      1.0  0.28186  0.82581  0.67169  1.0000
  C   C1074     1.0  0.02838  0.98715  0.58644  1.0000
  H   H838      1.0  0.05818  0.94997  0.55671  1.0000
  H   H839      1.0  0.21465  0.94952  0.65504  1.0000
  C   C1075     1.0  0.14445  0.79555  0.53198  1.0000
  C   C1076     1.0  0.09951  0.53088  0.61825  1.0000
  C   C1077     1.0  0.14479  0.73431  0.54816  1.0000
  H   H840      1.0  0.48880  0.74017  0.63646  1.0000
  C   C1078     1.0  0.45248  0.77479  0.69127  1.0000
  H   H841      1.0  0.03468  0.60861  0.52522  1.0000
  C   C1079     1.0  0.18692  0.87543  0.72139  1.0000
  C   C1080     1.0  0.03747  0.88735  0.67801  1.0000
  H   H842      1.0  0.44237  0.79660  0.63524  1.0000
  H   H843      1.0  0.47635  0.86571  0.65795  1.0000
  S   S151      1.0  0.20631  0.50018  0.62353  1.0000
  S   S152      1.0  0.10446  0.59526  0.70672  1.0000
  H   H844      1.0  0.04640  0.87201  0.70745  1.0000
  C   C1081     1.0  0.20371  0.92645  0.71189  1.0000
  C   C1082     1.0  0.22489  0.93391  0.70498  1.0000
  C   C1083     1.0  0.22876  0.94211  0.68451  1.0000
  C   C1084     1.0  0.21150  0.94335  0.67093  1.0000
  C   C1085     1.0  0.19027  0.93659  0.67782  1.0000
  C   C1086     1.0  0.18631  0.92834  0.69823  1.0000
  C   C1087     1.0  0.23462  0.83443  0.66469  1.0000
  C   C1088     1.0  0.20212  0.80353  0.70257  1.0000
  C   C1089     1.0  0.03970  0.58157  0.54811  1.0000
  C   C1090     1.0  0.13416  0.63205  0.57119  1.0000
  C   C1091     1.0  0.11265  0.96441  0.51675  1.0000
  H   H845      1.0  0.48077  0.72624  0.70357  1.0000
  C   C1092     1.0  0.01010  0.55850  0.52593  1.0000
  C   C1093     1.0  0.30052  0.79489  0.66843  1.0000
  C   C1094     1.0  0.25819  0.83019  0.72456  1.0000
  H   H846      1.0  0.48828  0.56496  0.71118  1.0000
  H   H847      1.0  0.16126  0.60805  0.57621  1.0000
  C   C1095     1.0  0.47436  0.80228  0.64679  1.0000
  H   H848      1.0  0.25008  0.75669  0.51015  1.0000
  C   C1096     1.0  0.09170  0.64840  0.51820  1.0000
  H   H849      1.0  0.14774  0.63678  0.71727  1.0000
  C   C1097     1.0  0.26433  0.78304  0.49035  1.0000
  C   C1098     1.0  0.14488  0.66076  0.48656  1.0000
  C   C1099     1.0  0.00907  0.67496  0.53258  1.0000
  C   C1100     1.0  0.00399  0.68856  0.51510  1.0000
  H   H850      1.0  0.17686  0.93767  0.66728  1.0000
  H   H851      1.0  0.16968  0.92320  0.70326  1.0000
  H   H852      1.0  0.12771  0.93996  0.53789  1.0000
  H   H853      1.0  0.13975  0.98001  0.61583  1.0000
  H   H854      1.0  0.19779  0.80831  0.51747  1.0000
  C   C1101     1.0  0.06359  0.68134  0.50002  1.0000
  C   C1102     1.0  0.01888  0.54851  0.54399  1.0000
  H   H855      1.0  0.24521  0.94737  0.67904  1.0000
  C   C1103     1.0  0.16722  0.62875  0.54830  1.0000
  H   H856      1.0  0.18601  0.88445  0.70656  1.0000
  C   C1104     1.0  0.12523  0.70334  0.53599  1.0000
  H   H857      1.0  0.29024  0.83515  0.70806  1.0000
  H   H858      1.0  0.16004  0.74314  0.54903  1.0000
  C   C1105     1.0  0.23445  0.96205  0.52728  1.0000
  H   H859      1.0  0.12439  0.55460  0.72615  1.0000
  C   C1106     1.0  0.12180  0.97871  0.61592  1.0000
  H   H860      1.0  0.07764  0.96296  0.64766  1.0000
  C   C1107     1.0  0.20829  0.53970  0.50570  1.0000
  C   C1108     1.0  0.28798  0.63594  0.66424  1.0000
  C   C1109     1.0  0.28500  0.65739  0.67149  1.0000
  C   C1110     1.0  0.26346  0.66615  0.67605  1.0000
  C   C1111     1.0  0.24494  0.65317  0.67403  1.0000
  C   C1112     1.0  0.24793  0.63106  0.66802  1.0000
  C   C1113     1.0  0.26953  0.62298  0.66219  1.0000
  P   P36       1.0  0.22434  0.61374  0.66580  1.0000
  C   C1114     1.0  0.23056  0.58503  0.67418  1.0000
  C   C1115     1.0  0.20011  0.62170  0.68191  1.0000
  C   C1116     1.0  0.20251  0.63075  0.70109  1.0000
  C   C1117     1.0  0.18369  0.63634  0.71376  1.0000
  C   C1118     1.0  0.16237  0.63253  0.70751  1.0000
  C   C1119     1.0  0.15987  0.62284  0.68878  1.0000
  C   C1120     1.0  0.17864  0.61724  0.67608  1.0000
  C   C1121     1.0  0.21699  0.56814  0.66852  1.0000
  C   C1122     1.0  0.22119  0.54593  0.67539  1.0000
  C   C1123     1.0  0.23884  0.54041  0.68808  1.0000
  C   C1124     1.0  0.25220  0.55713  0.69408  1.0000
  C   C1125     1.0  0.24795  0.57941  0.68736  1.0000
  C   C1126     1.0  0.21777  0.61613  0.63896  1.0000
  C   C1127     1.0  0.22668  0.60049  0.62518  1.0000
  C   C1128     1.0  0.22176  0.60252  0.60435  1.0000
  C   C1129     1.0  0.20803  0.62027  0.59708  1.0000
  C   C1130     1.0  0.19933  0.63615  0.61064  1.0000
  C   C1131     1.0  0.20433  0.63421  0.63149  1.0000
  H   H861      1.0  0.30464  0.62933  0.66010  1.0000
  H   H862      1.0  0.29942  0.66728  0.67327  1.0000
  H   H863      1.0  0.26118  0.68305  0.68106  1.0000
  H   H864      1.0  0.22839  0.66045  0.67713  1.0000
  H   H865      1.0  0.27222  0.60656  0.65618  1.0000
  H   H866      1.0  0.21890  0.63323  0.70633  1.0000
  C   C1132     1.0  0.13700  0.79075  0.51277  1.0000
  C   C1133     1.0  0.99981  0.65399  0.53593  1.0000
  H   H867      1.0  0.14330  0.61946  0.68426  1.0000
  H   H868      1.0  0.17632  0.60921  0.66186  1.0000
  H   H869      1.0  0.20315  0.57207  0.65878  1.0000
  H   H870      1.0  0.21086  0.53295  0.67070  1.0000
  H   H871      1.0  0.24220  0.52313  0.69314  1.0000
  H   H872      1.0  0.26598  0.55283  0.70381  1.0000
  H   H873      1.0  0.25826  0.59208  0.69258  1.0000
  H   H874      1.0  0.23749  0.58672  0.63045  1.0000
  H   H875      1.0  0.22872  0.59026  0.59386  1.0000
  H   H876      1.0  0.20431  0.62177  0.58092  1.0000
  H   H877      1.0  0.18881  0.65000  0.60497  1.0000
  H   H878      1.0  0.19772  0.64676  0.64178  1.0000
  H   H879      1.0  0.22574  0.84806  0.63460  1.0000
  C   C1134     1.0  0.22354  0.87313  0.65705  1.0000
  C   C1135     1.0  0.10507  0.52929  0.63890  1.0000
  P   P37       1.0  0.12584  0.67768  0.52266  1.0000
  H   H880      1.0  0.08926  0.70410  0.50444  1.0000
  H   H881      1.0  0.17994  0.97635  0.52064  1.0000
  H   H882      1.0  0.17637  0.84518  0.70940  1.0000
  C   C1136     1.0  0.15153  0.79205  0.49517  1.0000
  H   H883      1.0  0.02038  0.68061  0.54343  1.0000
  C   C1137     1.0  0.47781  0.68700  0.68171  1.0000
  C   C1138     1.0  0.07116  0.64278  0.51129  1.0000
  C   C1139     1.0  0.14503  0.71457  0.53764  1.0000
  C   C1140     1.0  0.04680  0.97761  0.57533  1.0000
  H   H884      1.0  0.10280  0.63517  0.52415  1.0000
  H   H885      1.0  0.22812  0.58100  0.72708  1.0000
  H   H886      1.0  0.16768  0.79463  0.70274  1.0000
  H   H887      1.0  0.18552  0.84358  0.49466  1.0000
  C   C1141     1.0  0.22643  0.87787  0.67746  1.0000
  H   H888      1.0  0.14424  0.90515  0.51629  1.0000
  H   H889      1.0  0.05766  0.97388  0.61630  1.0000
  H   H890      1.0  0.10730  0.95385  0.56866  1.0000
  H   H891      1.0  0.16872  0.93687  0.51271  1.0000
  H   H892      1.0  0.24637  0.96081  0.53927  1.0000
  H   H893      1.0  0.01161  0.70460  0.51246  1.0000
  C   C1142     1.0  0.43404  0.68656  0.70569  1.0000
  H   H894      1.0  0.22364  0.89479  0.68213  1.0000
  C   C1143     1.0  0.01109  0.87125  0.70366  1.0000
  S   S153      1.0  0.15445  0.50987  0.61144  1.0000
  H   H895      1.0  0.10939  0.65693  0.56199  1.0000
  S   S154      1.0  0.19569  0.52276  0.57791  1.0000
  C   C1144     1.0  0.07554  0.97531  0.61587  1.0000
  H   H896      1.0  0.11405  0.50747  0.66474  1.0000
  P   P38       1.0  0.44960  0.69885  0.68362  1.0000
  C   C1145     1.0  0.43529  0.69341  0.66078  1.0000
  C   C1146     1.0  0.45073  0.72861  0.68665  1.0000
  C   C1147     1.0  0.43400  0.74339  0.67907  1.0000
  C   C1148     1.0  0.43488  0.76635  0.68143  1.0000
  H   H897      1.0  0.17206  0.80588  0.54840  1.0000
  H   H898      1.0  0.09521  0.99086  0.49970  1.0000
  C   C1149     1.0  0.16649  0.80145  0.53362  1.0000
  C   C1150     1.0  0.43874  0.70682  0.64254  1.0000
  C   C1151     1.0  0.42767  0.70273  0.62483  1.0000
  C   C1152     1.0  0.41327  0.68501  0.62516  1.0000
  C   C1153     1.0  0.41000  0.67136  0.64316  1.0000
  C   C1154     1.0  0.42092  0.67553  0.66091  1.0000
  H   H899      1.0  0.49310  0.82030  0.72164  1.0000
  C   C1155     1.0  0.15130  0.51727  0.50063  1.0000
  C   C1156     1.0  0.26981  0.77640  0.69789  1.0000
  C   C1157     1.0  0.05411  0.83075  0.67650  1.0000
  H   H900      1.0  0.21888  0.88656  0.64613  1.0000
  C   C1158     1.0  0.19696  0.97084  0.51664  1.0000
  C   C1159     1.0  0.12558  0.64923  0.55806  1.0000
  H   H901      1.0  0.12727  0.89135  0.48565  1.0000
  C   C1160     1.0  0.48476  0.58071  0.70280  1.0000
  H   H902      1.0  0.19314  0.57812  0.70912  1.0000
  H   H903      1.0  0.42016  0.73728  0.67138  1.0000
  H   H904      1.0  0.42200  0.77771  0.67538  1.0000
  C   C1161     1.0  0.10877  0.50834  0.64900  1.0000
  H   H905      1.0  0.23684  0.53130  0.52364  1.0000
  H   H906      1.0  0.06609  0.56434  0.71287  1.0000
  H   H907      1.0  0.45011  0.72031  0.64206  1.0000
  H   H908      1.0  0.43027  0.71324  0.61083  1.0000
  H   H909      1.0  0.40472  0.68172  0.61146  1.0000
  H   H910      1.0  0.39910  0.65739  0.64341  1.0000
  H   H911      1.0  0.41810  0.66462  0.67459  1.0000
  H   H912      1.0  0.31704  0.76232  0.66906  1.0000
  H   H913      1.0  0.11980  0.78657  0.51128  1.0000
  C   C1162     1.0  0.14785  0.91301  0.50116  1.0000
  H   H914      1.0  0.14202  0.71620  0.49594  1.0000
  S   S155      1.0  0.13028  0.83072  0.70914  1.0000
  C   C1163     1.0  0.22202  0.80153  0.71304  1.0000
  H   H915      1.0  0.42784  0.63642  0.73244  1.0000
  H   H916      1.0  0.09015  0.70259  0.54586  1.0000
  H   H917      1.0  0.19673  0.54048  0.51913  1.0000
  C   C1164     1.0  0.10527  0.73112  0.55667  1.0000
  C   C1165     1.0  0.26754  0.79918  0.69166  1.0000
  C   C1166     1.0  0.46414  0.76705  0.63454  1.0000
  C   C1167     1.0  0.03295  0.87650  0.69732  1.0000
  H   H918      1.0  0.08293  0.83988  0.69201  1.0000
  H   H919      1.0  0.09765  0.54715  0.61020  1.0000
  H   H920      1.0  0.28960  0.74569  0.69483  1.0000
  H   H921      1.0  0.02546  0.57178  0.71991  1.0000
  C   C1168     1.0  0.15869  0.64590  0.53510  1.0000
  H   H922      1.0  0.02166  0.93270  0.55824  1.0000
  C   C1169     1.0  0.28756  0.76314  0.68972  1.0000
  C   C1170     1.0  0.18323  0.79239  0.71049  1.0000
  H   H923      1.0  0.99657  0.83126  0.69654  1.0000
  H   H924      1.0  0.25818  0.76887  0.70925  1.0000
  C   C1171     1.0  0.18405  0.77902  0.72880  1.0000
  H   H925      1.0  0.09393  0.51277  0.59148  1.0000
  C   C1172     1.0  0.01582  0.58029  0.51944  1.0000
  H   H926      1.0  0.23850  0.93354  0.71514  1.0000
  H   H927      1.0  0.14798  0.51592  0.55322  1.0000
  Fe  Fe79      1.0  0.36077  0.83401  0.71935  1.0000
  H   H928      1.0  0.12002  0.99098  0.58441  1.0000
  C   C1173     1.0  0.43856  0.66429  0.71254  1.0000
  H   H929      1.0  0.06677  0.62544  0.51180  1.0000
  C   C1174     1.0  0.11060  0.98488  0.59807  1.0000
  C   C1175     1.0  0.45878  0.78937  0.63837  1.0000
  P   P39       1.0  0.24610  0.81709  0.70364  1.0000
  H   H930      1.0  0.23530  0.86511  0.70738  1.0000
  H   H931      1.0  0.18313  0.62047  0.54432  1.0000
  H   H932      1.0  0.08992  0.73741  0.56423  1.0000
  S   S156      1.0  0.16639  0.51737  0.67001  1.0000
  H   H933      1.0  0.31260  0.80221  0.65720  1.0000
  H   H934      1.0  0.43222  0.74428  0.73311  1.0000
  C   C1176     1.0  0.03051  0.59178  0.53048  1.0000
  C   C1177     1.0  0.17365  0.79818  0.49659  1.0000
  C   C1178     1.0  0.24089  0.95596  0.50728  1.0000
  H   H935      1.0  0.47960  0.68605  0.64826  1.0000
  C   C1179     1.0  0.23772  0.83913  0.68527  1.0000
  C   C1180     1.0  0.14477  0.52337  0.52060  1.0000
  C   C1181     1.0  0.46908  0.76025  0.69911  1.0000
  H   H936      1.0  0.00901  0.58836  0.50577  1.0000
  H   H937      1.0  0.02915  0.51392  0.51094  1.0000
  C   C1182     1.0  0.10545  0.71144  0.54607  1.0000
  H   H938      1.0  0.12475  0.75784  0.56587  1.0000
  C   C1183     1.0  0.23331  0.86095  0.69162  1.0000
  H   H939      1.0  0.04407  0.82790  0.69076  1.0000
  H   H940      1.0  0.45178  0.75712  0.62830  1.0000
  C   C1184     1.0  0.12490  0.74262  0.55763  1.0000
  C   C1185     1.0  0.08413  0.68704  0.50690  1.0000
  H   H941      1.0  0.16851  0.65093  0.52125  1.0000
  C   C1186     1.0  0.26060  0.63783  0.73090  1.0000
  H   H942      1.0  0.20080  0.81411  0.68860  1.0000
  C   C1187     1.0  0.41518  0.69808  0.71410  1.0000
  C   C1188     1.0  0.05765  0.55671  0.72657  1.0000
  H   H943      1.0  0.23789  0.81773  0.65948  1.0000
  S   S157      1.0  0.08965  0.86415  0.50964  1.0000
  C   C1189     1.0  0.09825  0.67065  0.51623  1.0000
  H   H944      1.0  0.12459  0.62637  0.58503  1.0000
  H   H945      1.0  0.25789  0.95004  0.50373  1.0000
  C   C1190     1.0  0.15297  0.51111  0.53769  1.0000
  C   C1191     1.0  0.48828  0.68283  0.66230  1.0000
  C   C1192     1.0  0.05709  0.65921  0.50221  1.0000
  H   H946      1.0  0.26317  0.52890  0.49292  1.0000
  C   C1193     1.0  0.20328  0.96489  0.49647  1.0000
  C   C1194     1.0  0.18103  0.80284  0.51600  1.0000
  H   H947      1.0  0.32192  0.71540  0.72084  1.0000
  H   H948      1.0  0.45328  0.79264  0.69260  1.0000
  H   H949      1.0  0.45215  0.65452  0.70539  1.0000
  H   H950      1.0  0.18554  0.64333  0.72857  1.0000
  C   C1195     1.0  0.28011  0.83758  0.72215  1.0000
  H   H951      1.0  0.04423  0.67939  0.72846  1.0000
  H   H952      1.0  0.21136  0.76632  0.50098  1.0000
  H   H953      1.0  0.39877  0.76544  0.72119  1.0000
  C   C1196     1.0  0.24673  0.77060  0.49921  1.0000
  H   H954      1.0  0.25377  0.65130  0.72107  1.0000
  H   H955      1.0  0.41060  0.71482  0.70830  1.0000
  C   C1197     1.0  0.08678  0.96913  0.63376  1.0000
  H   H956      1.0  0.48193  0.68499  0.71474  1.0000
  H   H957      1.0  0.10711  0.54434  0.64693  1.0000
  C   C1198     1.0  0.19256  0.58016  0.72563  1.0000
  C   C1199     1.0  0.08747  0.98296  0.59774  1.0000
  H   H958      1.0  0.20751  0.97422  0.54745  1.0000
  C   C1200     1.0  0.22539  0.95738  0.49191  1.0000
  C   C1201     1.0  0.99804  0.88830  0.67158  1.0000
  H   H959      1.0  0.14004  0.64458  0.49320  1.0000
  C   C1202     1.0  0.00770  0.97717  0.58727  1.0000
  H   H960      1.0  0.05306  0.69394  0.49235  1.0000
  C   C1203     1.0  0.22274  0.78791  0.73137  1.0000
  C   C1204     1.0  0.42465  0.65389  0.72788  1.0000
  H   H961      1.0  0.00803  0.86267  0.71865  1.0000
  C   C1205     1.0  0.21253  0.96957  0.53191  1.0000
  C   C1206     1.0  0.01468  0.50415  0.51528  1.0000
  C   C1207     1.0  0.00528  0.95756  0.57712  1.0000
  C   C1208     1.0  0.24568  0.53313  0.49091  1.0000
  C   C1209     1.0  0.16623  0.49904  0.49773  1.0000
  H   H962      1.0  0.01411  0.53202  0.54978  1.0000
  H   H963      1.0  0.48280  0.76691  0.70665  1.0000
  H   H964      1.0  0.03047  0.55431  0.48553  1.0000
  H   H965      1.0  0.01872  0.64883  0.72393  1.0000
  C   C1210     1.0  0.48965  0.68211  0.69959  1.0000
  H   H966      1.0  0.03061  0.78638  0.72307  1.0000
  C   C1211     1.0  0.48521  0.75765  0.63892  1.0000
  H   H967      1.0  0.28129  0.77881  0.49445  1.0000
  C   C1212     1.0  0.48953  0.83018  0.70767  1.0000
  H   H968      1.0  0.15668  0.58110  0.72875  1.0000
  C   C1213     1.0  0.28367  0.63527  0.73237  1.0000
  C   C1214     1.0  0.01207  0.66463  0.72944  1.0000
  C   C1215     1.0  0.02644  0.68180  0.73203  1.0000
  S   S158      1.0  0.15155  0.59820  0.48454  1.0000
  H   H969      1.0  0.00382  0.64342  0.54943  1.0000
  H   H970      1.0  0.21556  0.49636  0.53363  1.0000
  C   C1216     1.0  0.03480  0.56093  0.73052  1.0000
  H   H971      1.0  0.18323  0.54929  0.48426  1.0000
  C   C1217     1.0  0.13830  0.90528  0.48393  1.0000
  Fe  Fe80      1.0  0.26816  0.53944  0.89558  1.0000
  C   C1218     1.0  0.01798  0.70186  0.73979  1.0000
  S   S159      1.0  0.26801  0.54829  0.92913  1.0000
  Fe  Fe81      1.0  0.28661  0.55125  0.85172  1.0000
  S   S160      1.0  0.27622  0.51914  0.84009  1.0000
  S   S161      1.0  0.30348  0.57930  0.83268  1.0000
  Fe  Fe82      1.0  0.24361  0.52684  0.85791  1.0000
  S   S162      1.0  0.21114  0.52345  0.84115  1.0000
  C   C1219     1.0  0.24750  0.59378  0.81043  1.0000
  S   S163      1.0  0.25394  0.55955  0.86870  1.0000
  S   S164      1.0  0.30148  0.53400  0.87951  1.0000
  Fe  Fe83      1.0  0.28630  0.90258  0.86696  1.0000
  S   S165      1.0  0.26068  0.92933  0.87548  1.0000
  S   S166      1.0  0.29371  0.87416  0.89057  1.0000
  Fe  Fe84      1.0  0.29649  0.92489  0.82442  1.0000
  S   S167      1.0  0.27204  0.95362  0.83017  1.0000
  S   S168      1.0  0.31836  0.92593  0.79479  1.0000
  Fe  Fe85      1.0  0.28585  0.95389  0.86190  1.0000
  H   H972      1.0  0.24194  0.49687  0.96789  1.0000
  Fe  Fe86      1.0  0.24893  0.92650  0.84309  1.0000
  S   S169      1.0  0.21187  0.92706  0.83505  1.0000
  S   S170      1.0  0.31175  0.92673  0.85486  1.0000
  S   S171      1.0  0.27303  0.89807  0.83563  1.0000
  Fe  Fe87      1.0  0.06111  0.60618  0.77520  1.0000
  H   H973      1.0  0.26221  0.50051  0.93363  1.0000
  S   S172      1.0  0.02556  0.59805  0.78780  1.0000
  Fe  Fe88      1.0  0.11131  0.60509  0.78499  1.0000
  S   S173      1.0  0.12032  0.62521  0.75540  1.0000
  S   S174      1.0  0.13929  0.59792  0.80791  1.0000
  Fe  Fe89      1.0  0.08953  0.64658  0.76241  1.0000
  C   C1220     1.0  0.31501  0.94666  0.96957  1.0000
  C   C1221     1.0  0.29260  0.61837  0.74554  1.0000
  C   C1222     1.0  0.13668  0.93149  0.76535  1.0000
  S   S175      1.0  0.08164  0.62840  0.79307  1.0000
  S   S176      1.0  0.09024  0.58154  0.76922  1.0000
  Fe  Fe90      1.0  0.11130  0.85324  0.78264  1.0000
  S   S177      1.0  0.13156  0.82466  0.76940  1.0000
  S   S178      1.0  0.12779  0.88103  0.79913  1.0000
  Fe  Fe91      1.0  0.06685  0.83754  0.76508  1.0000
  S   S179      1.0  0.08555  0.80859  0.75059  1.0000
  S   S180      1.0  0.03051  0.83982  0.75467  1.0000
  Fe  Fe92      1.0  0.10266  0.80357  0.78030  1.0000
  S   S181      1.0  0.10697  0.76969  0.79739  1.0000
  H   H974      1.0  0.35370  0.50719  0.89305  1.0000
  C   C1223     1.0  0.35618  0.95610  0.87873  1.0000
  S   S182      1.0  0.08304  0.83155  0.79568  1.0000
  S   S183      1.0  0.09316  0.86199  0.75331  1.0000
  H   H975      1.0  0.02763  0.53153  0.77654  1.0000
  C   C1224     1.0  0.22883  0.62122  0.83211  1.0000
  C   C1225     1.0  0.09302  0.70647  0.76439  1.0000
  H   H976      1.0  0.38563  0.51246  0.79226  1.0000
  C   C1226     1.0  0.09987  0.74636  0.76310  1.0000
  C   C1227     1.0  0.10176  0.74544  0.78450  1.0000
  C   C1228     1.0  0.09948  0.72488  0.79580  1.0000
  C   C1229     1.0  0.09518  0.70540  0.78578  1.0000
  H   H977      1.0  0.35326  0.88239  0.73900  1.0000
  H   H978      1.0  0.10198  0.76196  0.75421  1.0000
  H   H979      1.0  0.10093  0.72408  0.81237  1.0000
  H   H980      1.0  0.09328  0.68967  0.79460  1.0000
  H   H981      1.0  0.20624  0.62283  0.78524  1.0000
  H   H982      1.0  0.39488  0.65728  0.74775  1.0000
  C   C1230     1.0  0.18986  0.91253  0.82446  1.0000
  C   C1231     1.0  0.19190  0.89054  0.81771  1.0000
  C   C1232     1.0  0.17325  0.88032  0.80995  1.0000
  C   C1233     1.0  0.15246  0.89205  0.80869  1.0000
  C   C1234     1.0  0.15077  0.91391  0.81535  1.0000
  C   C1235     1.0  0.16911  0.92396  0.82304  1.0000
  H   H983      1.0  0.20771  0.88136  0.81872  1.0000
  H   H984      1.0  0.17485  0.86334  0.80521  1.0000
  H   H985      1.0  0.13502  0.92326  0.81462  1.0000
  H   H986      1.0  0.16709  0.94083  0.82810  1.0000
  C   C1236     1.0  0.25799  0.92273  0.77836  1.0000
  C   C1237     1.0  0.31792  0.87367  0.90486  1.0000
  C   C1238     1.0  0.31881  0.86038  0.92336  1.0000
  C   C1239     1.0  0.33800  0.85946  0.93492  1.0000
  C   C1240     1.0  0.35665  0.87142  0.92778  1.0000
  C   C1241     1.0  0.35590  0.88432  0.90907  1.0000
  C   C1242     1.0  0.33649  0.88578  0.89786  1.0000
  H   H987      1.0  0.30457  0.85080  0.92880  1.0000
  H   H988      1.0  0.33847  0.84915  0.94912  1.0000
  H   H989      1.0  0.37045  0.89314  0.90316  1.0000
  H   H990      1.0  0.33600  0.89593  0.88362  1.0000
  C   C1243     1.0  0.32545  0.90078  0.78271  1.0000
  C   C1244     1.0  0.32011  0.88009  0.79229  1.0000
  C   C1245     1.0  0.32693  0.86028  0.78277  1.0000
  C   C1246     1.0  0.33907  0.86097  0.76363  1.0000
  C   C1247     1.0  0.34399  0.88165  0.75380  1.0000
  C   C1248     1.0  0.33723  0.90150  0.76336  1.0000
  H   H991      1.0  0.31106  0.87934  0.80718  1.0000
  H   H992      1.0  0.16922  0.77078  0.73510  1.0000
  H   H993      1.0  0.34134  0.91748  0.75582  1.0000
  C   C1249     1.0  0.19195  0.54449  0.83102  1.0000
  C   C1250     1.0  0.17449  0.53828  0.81914  1.0000
  C   C1251     1.0  0.15851  0.55429  0.81152  1.0000
  C   C1252     1.0  0.15936  0.57675  0.81619  1.0000
  C   C1253     1.0  0.17699  0.58295  0.82781  1.0000
  C   C1254     1.0  0.19338  0.56709  0.83480  1.0000
  H   H994      1.0  0.17328  0.52091  0.81584  1.0000
  H   H995      1.0  0.14534  0.54919  0.80237  1.0000
  H   H996      1.0  0.17803  0.60025  0.83136  1.0000
  H   H997      1.0  0.20690  0.57231  0.84346  1.0000
  C   C1255     1.0  0.31390  0.57441  0.80726  1.0000
  C   C1256     1.0  0.31080  0.55416  0.79842  1.0000
  C   C1257     1.0  0.32004  0.55031  0.77852  1.0000
  C   C1258     1.0  0.33229  0.56671  0.76718  1.0000
  C   C1259     1.0  0.33508  0.58717  0.77583  1.0000
  C   C1260     1.0  0.32591  0.59098  0.79585  1.0000
  H   H998      1.0  0.30150  0.54134  0.80695  1.0000
  H   H999      1.0  0.34466  0.59984  0.76725  1.0000
  H   H1000     1.0  0.32839  0.60664  0.80266  1.0000
  C   C1261     1.0  0.28985  0.56476  0.93608  1.0000
  C   C1262     1.0  0.30351  0.57581  0.92099  1.0000
  C   C1263     1.0  0.32025  0.58947  0.92680  1.0000
  C   C1264     1.0  0.32349  0.59233  0.94771  1.0000
  C   C1265     1.0  0.30991  0.58123  0.96288  1.0000
  C   C1266     1.0  0.29311  0.56751  0.95705  1.0000
  H   H1001     1.0  0.30081  0.57427  0.90483  1.0000
  H   H1002     1.0  0.33057  0.59820  0.91504  1.0000
  H   H1003     1.0  0.28251  0.55912  0.96879  1.0000
  H   H1004     1.0  0.23544  0.94270  0.79738  1.0000
  C   C1267     1.0  0.35623  0.99321  0.84064  1.0000
  C   C1268     1.0  0.36154  0.81802  0.89701  1.0000
  C   C1269     1.0  0.38032  0.82758  0.90398  1.0000
  C   C1270     1.0  0.39446  0.83967  0.89008  1.0000
  C   C1271     1.0  0.38984  0.84225  0.86917  1.0000
  C   C1272     1.0  0.37087  0.83287  0.86205  1.0000
  C   C1273     1.0  0.35687  0.82051  0.87611  1.0000
  P   P40       1.0  0.36433  0.83729  0.83520  1.0000
  C   C1274     1.0  0.38220  0.81978  0.81878  1.0000
  C   C1275     1.0  0.33502  0.83216  0.83345  1.0000
  C   C1276     1.0  0.31888  0.84603  0.84344  1.0000
  C   C1277     1.0  0.29622  0.84180  0.84302  1.0000
  C   C1278     1.0  0.28938  0.82403  0.83228  1.0000
  C   C1279     1.0  0.30527  0.81001  0.82244  1.0000
  C   C1280     1.0  0.32801  0.81376  0.82338  1.0000
  C   C1281     1.0  0.40183  0.80927  0.82600  1.0000
  C   C1282     1.0  0.41583  0.79641  0.81289  1.0000
  C   C1283     1.0  0.41037  0.79398  0.79248  1.0000
  C   C1284     1.0  0.39090  0.80437  0.78520  1.0000
  C   C1285     1.0  0.37697  0.81721  0.79826  1.0000
  C   C1286     1.0  0.36805  0.86650  0.82755  1.0000
  C   C1287     1.0  0.37459  0.87325  0.80706  1.0000
  C   C1288     1.0  0.37668  0.89590  0.80125  1.0000
  C   C1289     1.0  0.37226  0.91203  0.81576  1.0000
  C   C1290     1.0  0.36609  0.90552  0.83623  1.0000
  C   C1291     1.0  0.36390  0.88288  0.84208  1.0000
  H   H1005     1.0  0.35027  0.80921  0.90797  1.0000
  H   H1006     1.0  0.38358  0.82614  0.92029  1.0000
  H   H1007     1.0  0.40866  0.84753  0.89573  1.0000
  H   H1008     1.0  0.40077  0.85197  0.85863  1.0000
  H   H1009     1.0  0.34200  0.81327  0.87120  1.0000
  H   H1010     1.0  0.32367  0.85991  0.85195  1.0000
  H   H1011     1.0  0.28395  0.85229  0.85121  1.0000
  H   H1012     1.0  0.27175  0.82109  0.83178  1.0000
  H   H1013     1.0  0.29997  0.79618  0.81416  1.0000
  H   H1014     1.0  0.33988  0.80222  0.81619  1.0000
  H   H1015     1.0  0.40649  0.81104  0.84165  1.0000
  H   H1016     1.0  0.43106  0.78853  0.81847  1.0000
  H   H1017     1.0  0.42130  0.78427  0.78222  1.0000
  H   H1018     1.0  0.38673  0.80291  0.76927  1.0000
  H   H1019     1.0  0.36218  0.82547  0.79227  1.0000
  H   H1020     1.0  0.37747  0.86135  0.79526  1.0000
  H   H1021     1.0  0.38086  0.90100  0.78525  1.0000
  H   H1022     1.0  0.37306  0.92957  0.81095  1.0000
  H   H1023     1.0  0.36241  0.91804  0.84744  1.0000
  H   H1024     1.0  0.35864  0.87820  0.85789  1.0000
  C   C1292     1.0  0.39893  0.57331  0.92713  1.0000
  C   C1293     1.0  0.40405  0.55373  0.91659  1.0000
  C   C1294     1.0  0.42521  0.54308  0.91832  1.0000
  P   P41       1.0  0.38373  0.54304  0.90056  1.0000
  C   C1295     1.0  0.37631  0.54124  0.80941  1.0000
  C   C1296     1.0  0.36121  0.53034  0.91608  1.0000
  C   C1297     1.0  0.35419  0.53849  0.93533  1.0000
  C   C1298     1.0  0.33564  0.52979  0.94642  1.0000
  H   H1025     1.0  0.35023  0.51114  0.77266  1.0000
  S   S184      1.0  0.25500  0.50687  0.88669  1.0000
  H   H1026     1.0  0.00640  0.55517  0.75166  1.0000
  P   P42       1.0  0.31956  0.99340  0.96663  1.0000
  H   H1027     1.0  0.15443  0.52858  0.75612  1.0000
  C   C1299     1.0  0.24646  0.62319  0.74229  1.0000
  H   H1028     1.0  0.22802  0.83035  0.74452  1.0000
  C   C1300     1.0  0.37288  0.56654  0.88510  1.0000
  C   C1301     1.0  0.34991  0.56956  0.88280  1.0000
  C   C1302     1.0  0.34157  0.58757  0.87059  1.0000
  C   C1303     1.0  0.35609  0.60270  0.86048  1.0000
  C   C1304     1.0  0.37904  0.60000  0.86288  1.0000
  C   C1305     1.0  0.38743  0.58204  0.87524  1.0000
  H   H1029     1.0  0.38281  0.58204  0.92596  1.0000
  H   H1030     1.0  0.18987  0.58569  0.78489  1.0000
  H   H1031     1.0  0.36237  0.55203  0.94167  1.0000
  C   C1306     1.0  0.34566  0.97810  0.82900  1.0000
  H   H1032     1.0  0.28337  0.86153  0.76812  1.0000
  H   H1033     1.0  0.33597  0.54341  0.84811  1.0000
  C   C1307     1.0  0.39977  0.97692  0.81297  1.0000
  C   C1308     1.0  0.39652  0.52229  0.88399  1.0000
  H   H1034     1.0  0.38811  0.55181  0.80071  1.0000
  H   H1035     1.0  0.33834  0.55818  0.89057  1.0000
  H   H1036     1.0  0.32377  0.58968  0.86896  1.0000
  H   H1037     1.0  0.34951  0.61647  0.85081  1.0000
  H   H1038     1.0  0.39033  0.61183  0.85519  1.0000
  H   H1039     1.0  0.40524  0.58014  0.87703  1.0000
  P   P43       1.0  0.07507  0.51791  0.77781  1.0000
  H   H1040     1.0  0.48115  0.96039  0.96347  1.0000
  C   C1309     1.0  0.32785  0.75408  0.76768  1.0000
  C   C1310     1.0  0.35833  0.50564  0.81474  1.0000
  P   P44       1.0  0.01303  0.74001  0.80099  1.0000
  H   H1041     1.0  0.27652  0.90214  0.75686  1.0000
  H   H1042     1.0  0.01009  0.83767  0.79751  1.0000
  C   C1311     1.0  0.32713  0.77753  0.76758  1.0000
  H   H1043     1.0  0.05585  0.57838  0.82537  1.0000
  C   C1312     1.0  0.14354  0.49686  0.74734  1.0000
  H   H1044     1.0  0.20193  0.64075  0.81850  1.0000
  H   H1045     1.0  0.34548  0.66382  0.75277  1.0000
  C   C1313     1.0  0.27231  0.52880  0.75910  1.0000
  H   H1046     1.0  0.28277  0.74763  0.73928  1.0000
  H   H1047     1.0  0.31195  0.91083  0.97151  1.0000
  H   H1048     1.0  0.22709  0.62931  0.84664  1.0000
  H   H1049     1.0  0.33965  0.78625  0.77501  1.0000
  C   C1314     1.0  0.11993  0.52379  0.76561  1.0000
  C   C1315     1.0  0.02209  0.66295  0.80172  1.0000
  C   C1316     1.0  0.41400  0.75456  0.98020  1.0000
  H   H1050     1.0  0.39382  0.71729  0.78589  1.0000
  C   C1317     1.0  0.00514  0.77556  0.74575  1.0000
  C   C1318     1.0  0.27851  0.60366  0.75688  1.0000
  C   C1319     1.0  0.00735  0.67293  0.81622  1.0000
  H   H1051     1.0  0.43164  0.53479  0.97277  1.0000
  C   C1320     1.0  0.41182  0.96459  0.79812  1.0000
  C   C1321     1.0  0.04005  0.75420  0.76680  1.0000
  C   C1322     1.0  0.00065  0.76378  0.76466  1.0000
  C   C1323     1.0  0.03343  0.75008  0.81726  1.0000
  H   H1052     1.0  0.15515  0.58392  0.76677  1.0000
  H   H1053     1.0  0.23780  0.78627  0.73983  1.0000
  C   C1324     1.0  0.17197  0.58145  0.73672  1.0000
  C   C1325     1.0  0.01815  0.75313  0.77544  1.0000
  C   C1326     1.0  0.24402  0.59926  0.97810  1.0000
  C   C1327     1.0  0.17111  0.58334  0.75809  1.0000
  C   C1328     1.0  0.04319  0.73572  0.83240  1.0000
  C   C1329     1.0  0.05987  0.74325  0.84415  1.0000
  C   C1330     1.0  0.06684  0.76515  0.84099  1.0000
  C   C1331     1.0  0.05700  0.77961  0.82620  1.0000
  C   C1332     1.0  0.04049  0.77213  0.81428  1.0000
  C   C1333     1.0  0.01633  0.70979  0.80107  1.0000
  C   C1334     1.0  0.36230  0.55001  0.82511  1.0000
  C   C1335     1.0  0.09528  0.72702  0.75315  1.0000
  C   C1336     1.0  0.99522  0.70462  0.74537  1.0000
  H   H1054     1.0  0.04234  0.70939  0.77644  1.0000
  H   H1055     1.0  0.41882  0.68524  0.98068  1.0000
  C   C1337     1.0  0.29506  0.75598  0.74731  1.0000
  C   C1338     1.0  0.37465  0.51900  0.80450  1.0000
  C   C1339     1.0  0.24927  0.52255  0.79058  1.0000
  C   C1340     1.0  0.23305  0.59981  0.79463  1.0000
  H   H1056     1.0  0.05388  0.74677  0.77513  1.0000
  H   H1057     1.0  0.38599  0.76539  0.84093  1.0000
  H   H1058     1.0  0.27120  0.49742  0.77687  1.0000
  H   H1059     1.0  0.29893  0.94379  0.91283  1.0000
  H   H1060     1.0  0.03835  0.71859  0.83492  1.0000
  H   H1061     1.0  0.30797  0.97978  0.92585  1.0000
  S   S185      1.0  0.30258  0.97924  0.88102  1.0000
  H   H1062     1.0  0.06776  0.73196  0.85541  1.0000
  H   H1063     1.0  0.08023  0.77084  0.84961  1.0000
  H   H1064     1.0  0.06279  0.79642  0.82349  1.0000
  H   H1065     1.0  0.10970  0.51625  0.80833  1.0000
  C   C1341     1.0  0.03190  0.69958  0.78725  1.0000
  C   C1342     1.0  0.31157  0.74337  0.75761  1.0000
  H   H1066     1.0  0.38607  0.75279  0.80553  1.0000
  H   H1067     1.0  0.39608  0.54326  0.85561  1.0000
  H   H1068     1.0  0.12146  0.96413  0.76960  1.0000
  H   H1069     1.0  0.31050  0.61660  0.74685  1.0000
  C   C1343     1.0  0.44094  0.55192  0.93032  1.0000
  H   H1070     1.0  0.19609  0.63720  0.95632  1.0000
  H   H1071     1.0  0.42965  0.71990  0.76535  1.0000
  C   C1344     1.0  0.02406  0.55154  0.74841  1.0000
  H   H1072     1.0  0.31338  0.62841  0.88522  1.0000
  C   C1345     1.0  0.37754  0.75455  0.74744  1.0000
  C   C1346     1.0  0.23738  0.93305  0.78372  1.0000
  C   C1347     1.0  0.28911  0.84879  0.73782  1.0000
  H   H1073     1.0  0.33106  0.66623  0.81816  1.0000
  H   H1074     1.0  0.42982  0.52817  0.91026  1.0000
  H   H1075     1.0  0.31761  0.53457  0.77185  1.0000
  C   C1348     1.0  0.18740  0.85115  0.75948  1.0000
  H   H1076     1.0  0.42532  0.73180  0.95703  1.0000
  H   H1077     1.0  0.32267  0.84438  0.79020  1.0000
  H   H1078     1.0  0.27206  0.92461  0.78773  1.0000
  H   H1079     1.0  0.34359  0.95820  0.86751  1.0000
  C   C1349     1.0  0.42247  0.93700  0.82481  1.0000
  S   S186      1.0  0.34395  0.61083  0.95386  1.0000
  H   H1080     1.0  0.33735  0.70656  0.81614  1.0000
  S   S187      1.0  0.34808  0.83554  0.75284  1.0000
  C   C1350     1.0  0.39486  0.72843  0.77215  1.0000
  C   C1351     1.0  0.43563  0.57127  0.94085  1.0000
  C   C1352     1.0  0.26040  0.90992  0.76102  1.0000
  S   S188      1.0  0.38134  0.87030  0.94146  1.0000
  H   H1081     1.0  0.24320  0.51159  0.80337  1.0000
  C   C1353     1.0  0.37632  0.96702  0.87569  1.0000
  H   H1082     1.0  0.02420  0.64489  0.80177  1.0000
  C   C1354     1.0  0.33553  0.67467  0.80337  1.0000
  C   C1355     1.0  0.08666  0.56081  0.83287  1.0000
  C   C1356     1.0  0.14066  0.51741  0.75643  1.0000
  C   C1357     1.0  0.31050  0.79003  0.75739  1.0000
  C   C1358     1.0  0.33898  0.69765  0.80210  1.0000
  H   H1083     1.0  0.21643  0.70225  0.89919  1.0000
  H   H1084     1.0  0.44780  0.57807  0.95022  1.0000
  C   C1359     1.0  0.21701  0.61725  0.79748  1.0000
  C   C1360     1.0  0.37043  0.76155  0.83455  1.0000
  H   H1085     1.0  0.36321  0.76392  0.74163  1.0000
  H   H1086     1.0  0.22886  0.55053  0.80055  1.0000
  H   H1087     1.0  0.04873  0.55483  0.79717  1.0000
  C   C1361     1.0  0.33784  0.66250  0.78559  1.0000
  H   H1088     1.0  0.45730  0.54380  0.93152  1.0000
  C   C1362     1.0  0.36770  0.93950  0.91148  1.0000
  C   C1363     1.0  0.17348  0.66811  0.91218  1.0000
  C   C1364     1.0  0.40210  0.50081  0.89242  1.0000
  H   H1089     1.0  0.28458  0.61122  0.86598  1.0000
  P   P45       1.0  0.34966  0.73828  0.78073  1.0000
  H   H1090     1.0  0.15540  0.66844  0.91355  1.0000
  H   H1091     1.0  0.20431  0.76654  0.75353  1.0000
  C   C1365     1.0  0.34933  0.51328  0.90822  1.0000
  C   C1366     1.0  0.06347  0.55109  0.80568  1.0000
  C   C1367     1.0  0.06746  0.56459  0.82183  1.0000
  C   C1368     1.0  0.29647  0.62735  0.89182  1.0000
  H   H1092     1.0  0.36308  0.56740  0.82859  1.0000
  C   C1369     1.0  0.26492  0.51460  0.77569  1.0000
  C   C1370     1.0  0.39892  0.96933  0.83388  1.0000
  H   H1093     1.0  0.40397  0.50572  0.97178  1.0000
  C   C1371     1.0  0.05927  0.53421  0.75890  1.0000
  C   C1372     1.0  0.28024  0.61764  0.88104  1.0000
  H   H1094     1.0  0.30378  0.64225  0.91999  1.0000
  H   H1095     1.0  0.25677  0.59982  0.84104  1.0000
  C   C1373     1.0  0.34456  0.70869  0.78290  1.0000
  Fe  Fe93      1.0  0.28849  0.50193  0.86965  1.0000
  H   H1096     1.0  0.40044  0.94742  0.91992  1.0000
  H   H1097     1.0  0.35051  0.76953  0.86205  1.0000
  C   C1374     1.0  0.29102  0.63526  0.91139  1.0000
  C   C1375     1.0  0.30376  0.94454  0.92863  1.0000
  H   H1098     1.0  0.12280  0.92271  0.77297  1.0000
  H   H1099     1.0  0.17684  0.63335  0.92179  1.0000
  C   C1376     1.0  0.21915  0.93081  0.77166  1.0000
  C   C1377     1.0  0.10200  0.50941  0.76623  1.0000
  H   H1100     1.0  0.26068  0.58108  0.80831  1.0000
  H   H1101     1.0  0.09006  0.57170  0.84498  1.0000
  C   C1378     1.0  0.31087  0.92606  0.96172  1.0000
  C   C1379     1.0  0.07889  0.53390  0.80014  1.0000
  C   C1380     1.0  0.30872  0.96502  0.93617  1.0000
  H   H1102     1.0  0.46451  0.73043  0.96677  1.0000
  C   C1381     1.0  0.29457  0.77930  0.74716  1.0000
  C   C1382     1.0  0.20953  0.62652  0.96206  1.0000
  H   H1103     1.0  0.15343  0.98412  0.75238  1.0000
  C   C1383     1.0  0.17367  0.93049  0.74812  1.0000
  C   C1384     1.0  0.33023  0.75164  0.81819  1.0000
  C   C1385     1.0  0.03620  0.53820  0.76253  1.0000
  C   C1386     1.0  0.25853  0.61584  0.88982  1.0000
  C   C1387     1.0  0.26933  0.63353  0.92019  1.0000
  C   C1388     1.0  0.09773  0.52967  0.81189  1.0000
  C   C1389     1.0  0.24538  0.60447  0.82907  1.0000
  C   C1390     1.0  0.42315  0.94462  0.80402  1.0000
  H   H1104     1.0  0.26546  0.63977  0.93537  1.0000
  C   C1391     1.0  0.39233  0.96381  0.89065  1.0000
  C   C1392     1.0  0.20742  0.55869  0.90889  1.0000
  C   C1393     1.0  0.21228  0.58184  0.73581  1.0000
  P   P46       1.0  0.38191  0.98463  0.85262  1.0000
  C   C1394     1.0  0.38803  0.95001  0.90846  1.0000
  C   C1395     1.0  0.41517  0.72982  0.76055  1.0000
  C   C1396     1.0  0.25297  0.62354  0.90958  1.0000
  C   C1397     1.0  0.49299  0.79547  0.97755  1.0000
  H   H1105     1.0  0.35099  0.70443  0.75018  1.0000
  H   H1106     1.0  0.03363  0.78350  0.80245  1.0000
  H   H1107     1.0  0.33627  0.93409  0.89858  1.0000
  C   C1398     1.0  0.35028  0.74910  0.80615  1.0000
  H   H1108     1.0  0.99818  0.66257  0.82770  1.0000
  P   P47       1.0  0.23706  0.58728  0.77001  1.0000
  C   C1399     1.0  0.36672  0.91580  0.97457  1.0000
  C   C1400     1.0  0.39780  0.75559  0.73574  1.0000
  C   C1401     1.0  0.37039  0.75426  0.81444  1.0000
  H   H1109     1.0  0.17865  0.58711  0.87148  1.0000
  C   C1402     1.0  0.41017  0.51072  0.85009  1.0000
  H   H1110     1.0  0.36417  0.92880  0.92521  1.0000
  C   C1403     1.0  0.21150  0.58472  0.75715  1.0000
  H   H1111     1.0  0.41042  0.59676  0.94779  1.0000
  C   C1404     1.0  0.15544  0.91932  0.75775  1.0000
  H   H1112     1.0  0.40981  0.94280  0.85562  1.0000
  C   C1405     1.0  0.19867  0.60224  0.89293  1.0000
  H   H1113     1.0  0.20328  0.93861  0.77650  1.0000
  C   C1406     1.0  0.35044  0.76385  0.84648  1.0000
  H   H1114     1.0  0.31482  0.76078  0.84753  1.0000
  C   C1407     1.0  0.35191  0.94245  0.89652  1.0000
  H   H1115     1.0  0.19767  0.88130  0.77176  1.0000
  C   C1408     1.0  0.41459  0.58186  0.93938  1.0000
  C   C1409     1.0  0.19347  0.87343  0.75795  1.0000
  C   C1410     1.0  0.25538  0.60552  0.75476  1.0000
  H   H1116     1.0  0.28447  0.52270  0.74754  1.0000
  C   C1411     1.0  0.41665  0.74349  0.74239  1.0000
  C   C1412     1.0  0.31407  0.96644  0.95684  1.0000
  C   C1413     1.0  0.30515  0.92500  0.94127  1.0000
  H   H1117     1.0  0.30171  0.90909  0.93518  1.0000
  C   C1414     1.0  0.21472  0.62768  0.81626  1.0000
  C   C1415     1.0  0.24876  0.55916  0.77256  1.0000
  C   C1416     1.0  0.99912  0.60439  0.75356  1.0000
  H   H1118     1.0  0.09363  0.72796  0.73660  1.0000
  C   C1417     1.0  0.00464  0.69623  0.81605  1.0000
  C   C1418     1.0  0.37596  0.74111  0.76592  1.0000
  C   C1419     1.0  0.33093  0.50446  0.91957  1.0000
  H   H1119     1.0  0.31451  0.74779  0.81208  1.0000
  C   C1420     1.0  0.99990  0.59978  0.77491  1.0000
  C   C1421     1.0  0.22153  0.91834  0.75393  1.0000
  H   H1120     1.0  0.40816  0.97186  0.88846  1.0000
  C   C1422     1.0  0.33034  0.75888  0.83830  1.0000
  C   C1423     1.0  0.41039  0.94927  0.83971  1.0000
  Fe  Fe94      1.0  0.11245  0.83241  0.74088  1.0000
  C   C1424     1.0  0.32577  0.98438  0.81972  1.0000
  H   H1121     1.0  0.31156  0.72536  0.75751  1.0000
  H   H1122     1.0  0.32997  0.53675  0.96084  1.0000
  H   H1123     1.0  0.22859  0.62577  0.74155  1.0000
  S   S189      1.0  0.08653  0.68301  0.75096  1.0000
  H   H1124     1.0  0.43106  0.92139  0.82933  1.0000
  C   C1425     1.0  0.34687  0.69628  0.76515  1.0000
  H   H1125     1.0  0.39248  0.91666  0.95021  1.0000
  H   H1126     1.0  0.26980  0.56155  0.74426  1.0000
  H   H1127     1.0  0.30913  0.50670  0.94696  1.0000
  H   H1128     1.0  0.43227  0.93495  0.79246  1.0000
  H   H1129     1.0  0.31766  0.97254  0.81091  1.0000
  H   H1130     1.0  0.11660  0.54037  0.83660  1.0000
  S   S190      1.0  0.06733  0.62578  0.74534  1.0000
  C   C1426     1.0  0.13596  0.95481  0.76347  1.0000
  C   C1427     1.0  0.34363  0.67329  0.76653  1.0000
  H   H1131     1.0  0.18681  0.84195  0.77435  1.0000
  C   C1428     1.0  0.00306  0.83444  0.76572  1.0000
  C   C1429     1.0  0.20786  0.68714  0.90405  1.0000
  H   H1132     1.0  0.41791  0.93758  0.96933  1.0000
  C   C1430     1.0  0.19083  0.58464  0.76832  1.0000
  H   H1133     1.0  0.11796  0.53997  0.77222  1.0000
  H   H1134     1.0  0.23815  0.66742  0.90718  1.0000
  H   H1135     1.0  0.48676  0.60944  0.97114  1.0000
  C   C1431     1.0  0.22567  0.61670  0.94848  1.0000
  H   H1136     1.0  0.18731  0.54840  0.88489  1.0000
  H   H1137     1.0  0.24622  0.60821  0.88126  1.0000
  H   H1138     1.0  0.24424  0.84973  0.77221  1.0000
  C   C1432     1.0  0.32393  0.51288  0.93856  1.0000
  C   C1433     1.0  0.10165  0.54318  0.82807  1.0000
  C   C1434     1.0  0.17275  0.95393  0.74612  1.0000
  H   H1139     1.0  0.39893  0.49670  0.90878  1.0000
  C   C1435     1.0  0.04441  0.76570  0.74775  1.0000
  Fe  Fe95      1.0  0.38210  0.85291  0.97349  1.0000
  C   C1436     1.0  0.22013  0.66729  0.90860  1.0000
  H   H1140     1.0  0.18664  0.96284  0.73873  1.0000
  H   H1141     1.0  0.01438  0.60765  0.74443  1.0000
  S   S191      1.0  0.34455  0.56049  0.74271  1.0000
  H   H1142     1.0  0.33247  0.50428  0.83942  1.0000
  C   C1437     1.0  0.20382  0.77673  0.73920  1.0000
  H   H1143     1.0  0.25541  0.59516  0.94657  1.0000
  C   C1438     1.0  0.24118  0.54473  0.78901  1.0000
  H   H1144     1.0  0.33512  0.64471  0.78651  1.0000
  C   C1439     1.0  0.38732  0.92199  0.96549  1.0000
  H   H1145     1.0  0.38651  0.69654  0.73533  1.0000
  C   C1440     1.0  0.25436  0.84599  0.75836  1.0000
  S   S192      1.0  0.40013  0.81994  0.98040  1.0000
  H   H1146     1.0  0.30598  0.85457  0.73570  1.0000
  H   H1147     1.0  0.31021  0.80813  0.75711  1.0000
  C   C1441     1.0  0.03451  0.67629  0.78739  1.0000
  P   P48       1.0  0.22478  0.62187  0.92075  1.0000
  H   H1148     1.0  0.06143  0.76675  0.74140  1.0000
  C   C1442     1.0  0.36112  0.99134  0.94492  1.0000
  H   H1149     1.0  0.19564  0.61885  0.88600  1.0000
  H   H1150     1.0  0.17508  0.70293  0.90223  1.0000
  H   H1151     1.0  0.04638  0.66859  0.77647  1.0000
  C   C1443     1.0  0.24284  0.60296  0.95671  1.0000
  H   H1152     1.0  0.41213  0.97038  0.78197  1.0000
  H   H1153     1.0  0.21133  0.54178  0.91476  1.0000
  C   C1444     1.0  0.21197  0.59869  0.91003  1.0000
  H   H1154     1.0  0.31212  0.58357  0.97903  1.0000
  H   H1155     1.0  0.35257  0.96132  0.82727  1.0000
  C   C1445     1.0  0.20912  0.64765  0.91492  1.0000
  C   C1446     1.0  0.40051  0.52707  0.86268  1.0000
  H   H1156     1.0  0.28569  0.59086  0.76726  1.0000
  H   H1157     1.0  0.35361  0.98080  0.93448  1.0000
  C   C1447     1.0  0.26412  0.55096  0.75741  1.0000
  C   C1448     1.0  0.18456  0.68754  0.90580  1.0000
  H   H1158     1.0  0.17596  0.82391  0.74320  1.0000
  C   C1449     1.0  0.45219  0.74041  0.97539  1.0000
  C   C1450     1.0  0.34687  0.53647  0.83608  1.0000
  C   C1451     1.0  0.24214  0.90737  0.74904  1.0000
  H   H1159     1.0  0.08755  0.54066  0.73734  1.0000
  C   C1452     1.0  0.34480  0.51436  0.83093  1.0000
  C   C1453     1.0  0.06983  0.54328  0.74060  1.0000
  H   H1160     1.0  0.22667  0.57341  0.93086  1.0000
  C   C1454     1.0  0.19393  0.56241  0.89210  1.0000
  C   C1455     1.0  0.43006  0.74133  0.96965  1.0000
  C   C1456     1.0  0.18569  0.64826  0.91678  1.0000
  H   H1161     1.0  0.35601  0.90584  0.96621  1.0000
  Fe  Fe96      1.0  0.09763  0.60315  0.74031  1.0000
  H   H1162     1.0  0.15550  0.90128  0.75963  1.0000
  P   P49       1.0  0.19816  0.91529  0.73812  1.0000
  C   C1457     1.0  0.18129  0.84097  0.74195  1.0000
  C   C1458     1.0  0.21622  0.57675  0.91795  1.0000
  C   C1459     1.0  0.27635  0.85278  0.75601  1.0000
  C   C1460     1.0  0.18929  0.58422  0.88436  1.0000
  C   C1461     1.0  0.19305  0.88583  0.73894  1.0000
  H   H1163     1.0  0.39680  0.75529  0.97584  1.0000
  C   C1462     1.0  0.99735  0.83486  0.78694  1.0000
  H   H1164     1.0  0.39262  0.99158  0.92725  1.0000
  C   C1463     1.0  0.40182  0.93374  0.97655  1.0000
  C   C1464     1.0  0.15397  0.96604  0.75382  1.0000
  H   H1165     1.0  0.31014  0.49639  0.80360  1.0000
  H   H1166     1.0  0.02927  0.71502  0.74201  1.0000
  C   C1465     1.0  0.02702  0.77661  0.73734  1.0000
  C   C1466     1.0  0.46787  0.96899  0.97229  1.0000
  C   C1467     1.0  0.40604  0.66558  0.73636  1.0000
  H   H1167     1.0  0.28202  0.78912  0.73899  1.0000
  H   H1168     1.0  0.39083  0.99222  0.80809  1.0000
  H   H1169     1.0  0.35284  0.50851  0.73511  1.0000
  H   H1170     1.0  0.41310  0.51449  0.83365  1.0000
  C   C1468     1.0  0.24526  0.83485  0.74266  1.0000
  C   C1469     1.0  0.46637  0.99230  0.97146  1.0000
  H   H1171     1.0  0.27590  0.99529  0.94772  1.0000
  H   H1172     1.0  0.24417  0.89715  0.73577  1.0000
  H   H1173     1.0  0.99537  0.78208  0.81787  1.0000
  H   H1174     1.0  0.34739  0.73606  0.98334  1.0000
  C   C1470     1.0  0.21069  0.62270  0.98347  1.0000
  Fe  Fe97      1.0  0.89519  0.33953  0.19247  1.0000
  C   C1471     1.0  0.99235  0.40994  0.19211  1.0000
  S   S193      1.0  0.92784  0.35554  0.18077  1.0000
  Fe  Fe98      1.0  0.84386  0.33870  0.18761  1.0000
  S   S194      1.0  0.84092  0.31052  0.21214  1.0000
  S   S195      1.0  0.80903  0.35193  0.17823  1.0000
  H   H1175     1.0  0.70249  0.47096  0.05047  1.0000
  C   C1472     1.0  0.77987  0.44268  0.14211  1.0000
  Fe  Fe99      1.0  0.87218  0.29532  0.19726  1.0000
  S   S196      1.0  0.88163  0.25993  0.18797  1.0000
  S   S197      1.0  0.86538  0.35876  0.20652  1.0000
  S   S198      1.0  0.87385  0.32203  0.17135  1.0000
  C   C1473     1.0  0.51218  0.07672  0.00700  1.0000
  S   S199      1.0  0.87015  0.07489  0.18941  1.0000
  C   C1474     1.0  0.72241  0.44421  0.19143  1.0000
  Fe  Fe100     1.0  0.85013  0.13404  0.20662  1.0000
  S   S200      1.0  0.86814  0.12832  0.17605  1.0000
  C   C1475     1.0  0.76123  0.27898  0.22816  1.0000
  Fe  Fe101     1.0  0.84546  0.09907  0.17420  1.0000
  S   S201      1.0  0.82490  0.09234  0.14641  1.0000
  Fe  Fe102     1.0  0.89102  0.10466  0.19413  1.0000
  S   S202      1.0  0.92850  0.11142  0.19533  1.0000
  S   S203      1.0  0.82600  0.10692  0.20343  1.0000
  C   C1476     1.0  0.76538  0.10716  0.18575  1.0000
  Fe  Fe103     1.0  0.67966  0.42719  0.13231  1.0000
  S   S204      1.0  0.71113  0.44534  0.12395  1.0000
  S   S205      1.0  0.67140  0.42569  0.16676  1.0000
  Fe  Fe104     1.0  0.67371  0.41662  0.08739  1.0000
  S   S206      1.0  0.70559  0.43304  0.07671  1.0000
  S   S207      1.0  0.64841  0.40935  0.06393  1.0000
  Fe  Fe105     1.0  0.72032  0.41585  0.10507  1.0000
  S   S208      1.0  0.75573  0.39990  0.10393  1.0000
  Fe  Fe106     1.0  0.69315  0.46090  0.09671  1.0000
  H   H1176     1.0  0.77933  0.11435  0.19235  1.0000
  S   S209      1.0  0.68924  0.39706  0.11423  1.0000
  S   S210      1.0  0.66102  0.44503  0.10685  1.0000
  C   C1477     1.0  0.53597  0.10717  0.06521  1.0000
  S   S211      1.0  0.65625  0.01757  0.09802  1.0000
  Fe  Fe107     1.0  0.71429  0.02304  0.12238  1.0000
  S   S212      1.0  0.68823  0.05097  0.12139  1.0000
  S   S213      1.0  0.74452  0.02505  0.14258  1.0000
  Fe  Fe108     1.0  0.66342  0.02487  0.13059  1.0000
  S   S214      1.0  0.63620  0.02712  0.15630  1.0000
  Fe  Fe109     1.0  0.68334  0.04131  0.08886  1.0000
  S   S215      1.0  0.68000  0.06755  0.06254  1.0000
  H   H1177     1.0  0.65020  0.44374  0.00146  1.0000
  S   S216      1.0  0.71124  0.01506  0.08901  1.0000
  H   H1178     1.0  0.71815  0.35316  0.15634  1.0000
  C   C1478     1.0  0.73325  0.08395  0.18855  1.0000
  H   H1179     1.0  0.54271  0.09874  0.09686  1.0000
  C   C1479     1.0  0.95718  0.10577  0.18775  1.0000
  C   C1480     1.0  0.97371  0.11723  0.19694  1.0000
  H   H1180     1.0  0.98240  0.30961  0.22079  1.0000
  C   C1481     1.0  0.96391  0.09112  0.17233  1.0000
  H   H1181     1.0  0.96878  0.12854  0.20892  1.0000
  H   H1182     1.0  0.95155  0.08209  0.16514  1.0000
  C   C1482     1.0  0.80244  0.07365  0.14581  1.0000
  C   C1483     1.0  0.79625  0.05914  0.16267  1.0000
  C   C1484     1.0  0.77848  0.04460  0.16142  1.0000
  C   C1485     1.0  0.76634  0.04447  0.14345  1.0000
  C   C1486     1.0  0.77240  0.05912  0.12665  1.0000
  C   C1487     1.0  0.79038  0.07345  0.12781  1.0000
  H   H1183     1.0  0.80526  0.05900  0.17664  1.0000
  H   H1184     1.0  0.77406  0.03341  0.17455  1.0000
  H   H1185     1.0  0.76344  0.05920  0.11267  1.0000
  H   H1186     1.0  0.79492  0.08454  0.11465  1.0000
  C   C1488     1.0  0.86892  0.23470  0.19665  1.0000
  C   C1489     1.0  0.85213  0.23384  0.21250  1.0000
  C   C1490     1.0  0.71541  0.03521  0.99381  1.0000
  C   C1491     1.0  0.85040  0.19334  0.20996  1.0000
  C   C1492     1.0  0.86725  0.19423  0.19420  1.0000
  C   C1493     1.0  0.87642  0.21482  0.18760  1.0000
  H   H1187     1.0  0.50281  0.19032  0.01020  1.0000
  H   H1188     1.0  0.63291  0.01204  0.20860  1.0000
  H   H1189     1.0  0.87312  0.17907  0.18707  1.0000
  H   H1190     1.0  0.88941  0.21539  0.17538  1.0000
  C   C1494     1.0  0.95508  0.34559  0.18731  1.0000
  C   C1495     1.0  0.95838  0.32870  0.20276  1.0000
  C   C1496     1.0  0.76753  0.30749  0.20071  1.0000
  H   H1191     1.0  0.67749  0.31629  0.22340  1.0000
  C   C1497     1.0  0.97390  0.35575  0.17754  1.0000
  H   H1192     1.0  0.94417  0.32070  0.21045  1.0000
  C   C1498     1.0  0.79057  0.47831  0.15307  1.0000
  H   H1193     1.0  0.85758  0.49226  0.21785  1.0000
  C   C1499     1.0  0.79463  0.36482  0.15711  1.0000
  C   C1500     1.0  0.80498  0.36893  0.13746  1.0000
  C   C1501     1.0  0.79282  0.37957  0.12139  1.0000
  C   C1502     1.0  0.77024  0.38637  0.12472  1.0000
  C   C1503     1.0  0.75989  0.38225  0.14436  1.0000
  C   C1504     1.0  0.77195  0.37136  0.16035  1.0000
  H   H1194     1.0  0.82234  0.36392  0.13464  1.0000
  H   H1195     1.0  0.80103  0.38263  0.10627  1.0000
  H   H1196     1.0  0.74261  0.38752  0.14720  1.0000
  H   H1197     1.0  0.76372  0.36821  0.17543  1.0000
  H   H1198     1.0  0.59686  0.01147  0.06281  1.0000
  C   C1505     1.0  0.62352  0.09139  0.19121  1.0000
  C   C1506     1.0  0.63819  0.09129  0.17355  1.0000
  C   C1507     1.0  0.64218  0.07174  0.16267  1.0000
  C   C1508     1.0  0.63126  0.05222  0.16920  1.0000
  C   C1509     1.0  0.61602  0.05257  0.18643  1.0000
  C   C1510     1.0  0.61232  0.07199  0.19752  1.0000
  H   H1199     1.0  0.64677  0.10628  0.16845  1.0000
  H   H1200     1.0  0.65370  0.07181  0.14927  1.0000
  H   H1201     1.0  0.60709  0.03774  0.19132  1.0000
  C   C1511     1.0  0.73989  0.45875  0.18757  1.0000
  C   C1512     1.0  0.62059  0.37721  0.19618  1.0000
  C   C1513     1.0  0.62177  0.38170  0.17467  1.0000
  C   C1514     1.0  0.63769  0.39617  0.16535  1.0000
  C   C1515     1.0  0.65203  0.40662  0.17763  1.0000
  C   C1516     1.0  0.65081  0.40214  0.19912  1.0000
  C   C1517     1.0  0.63536  0.38718  0.20832  1.0000
  H   H1202     1.0  0.61043  0.37385  0.16522  1.0000
  H   H1203     1.0  0.63851  0.39962  0.14878  1.0000
  H   H1204     1.0  0.66171  0.41038  0.20870  1.0000
  H   H1205     1.0  0.60274  0.37650  0.07602  1.0000
  C   C1518     1.0  0.64209  0.35346  0.01905  1.0000
  C   C1519     1.0  0.62683  0.37171  0.01948  1.0000
  C   C1520     1.0  0.62919  0.38870  0.03321  1.0000
  C   C1521     1.0  0.64697  0.38784  0.04646  1.0000
  C   C1522     1.0  0.66276  0.37007  0.04545  1.0000
  C   C1523     1.0  0.66018  0.35285  0.03196  1.0000
  H   H1206     1.0  0.61292  0.37248  0.00957  1.0000
  H   H1207     1.0  0.61702  0.40249  0.03372  1.0000
  H   H1208     1.0  0.67674  0.36946  0.05521  1.0000
  H   H1209     1.0  0.67214  0.33885  0.03164  1.0000
  C   C1524     1.0  0.62213  0.06386  0.01983  1.0000
  C   C1525     1.0  0.63349  0.08365  0.02047  1.0000
  C   C1526     1.0  0.65119  0.08466  0.03368  1.0000
  C   C1527     1.0  0.65750  0.06597  0.04638  1.0000
  C   C1528     1.0  0.64610  0.04622  0.04566  1.0000
  C   C1529     1.0  0.62848  0.04521  0.03246  1.0000
  H   H1210     1.0  0.62851  0.09820  0.01095  1.0000
  H   H1211     1.0  0.65997  0.09999  0.03413  1.0000
  H   H1212     1.0  0.65107  0.03158  0.05501  1.0000
  H   H1213     1.0  0.50745  0.29736  0.99287  1.0000
  H   H1214     1.0  0.50899  0.08992  0.99536  1.0000
  H   H1215     1.0  0.77077  0.47427  0.12689  1.0000
  C   C1530     1.0  0.75323  0.03865  0.00436  1.0000
  H   H1216     1.0  0.94008  0.27799  0.20046  1.0000
  C   C1531     1.0  0.72245  0.03767  0.03009  1.0000
  H   H1217     1.0  0.56369  0.15676  0.02830  1.0000
  H   H1218     1.0  0.92951  0.28695  0.16473  1.0000
  C   C1532     1.0  0.67964  0.48869  0.00545  1.0000
  H   H1219     1.0  0.97658  0.25956  0.20740  1.0000
  C   C1533     1.0  0.71621  0.43685  0.21171  1.0000
  H   H1220     1.0  0.66853  0.17337  0.19352  1.0000
  H   H1221     1.0  0.66753  0.48377  0.99503  1.0000
  C   C1534     1.0  0.72118  0.33431  0.18549  1.0000
  H   H1222     1.0  0.72674  0.31907  0.17826  1.0000
  H   H1223     1.0  0.59406  0.48816  0.15236  1.0000
  H   H1224     1.0  0.52466  0.03037  0.04931  1.0000
  H   H1225     1.0  0.71910  0.07742  0.15978  1.0000
  H   H1226     1.0  0.72598  0.26180  0.21498  1.0000
  H   H1227     1.0  0.77600  0.11869  0.15483  1.0000
  H   H1228     1.0  0.98609  0.21857  0.15430  1.0000
  C   C1535     1.0  0.50109  0.27160  0.01685  1.0000
  H   H1229     1.0  0.99160  0.07746  0.15363  1.0000
  C   C1536     1.0  0.95655  0.13593  0.14068  1.0000
  C   C1537     1.0  0.93476  0.13140  0.13626  1.0000
  C   C1538     1.0  0.92971  0.12664  0.11616  1.0000
  C   C1539     1.0  0.94699  0.12593  0.10063  1.0000
  P   P50       1.0  0.90135  0.12087  0.11078  1.0000
  C   C1540     1.0  0.89405  0.09356  0.12185  1.0000
  C   C1541     1.0  0.88238  0.14227  0.12110  1.0000
  C   C1542     1.0  0.85971  0.13810  0.12529  1.0000
  C   C1543     1.0  0.84520  0.15439  0.13381  1.0000
  C   C1544     1.0  0.85314  0.17510  0.13804  1.0000
  C   C1545     1.0  0.87548  0.17974  0.13321  1.0000
  C   C1546     1.0  0.89001  0.16349  0.12457  1.0000
  C   C1547     1.0  0.87562  0.08300  0.11496  1.0000
  C   C1548     1.0  0.86956  0.06214  0.12370  1.0000
  C   C1549     1.0  0.88204  0.05143  0.13913  1.0000
  C   C1550     1.0  0.90068  0.06154  0.14576  1.0000
  C   C1551     1.0  0.90659  0.08256  0.13729  1.0000
  C   C1552     1.0  0.89865  0.12116  0.08319  1.0000
  C   C1553     1.0  0.90489  0.10204  0.07239  1.0000
  C   C1554     1.0  0.90286  0.10214  0.05102  1.0000
  C   C1555     1.0  0.89469  0.12134  0.04027  1.0000
  C   C1556     1.0  0.88861  0.14049  0.05088  1.0000
  C   C1557     1.0  0.89061  0.14046  0.07226  1.0000
  H   H1230     1.0  0.70247  0.19170  0.20314  1.0000
  H   H1231     1.0  0.97411  0.37170  0.21841  1.0000
  H   H1232     1.0  0.96027  0.13951  0.15628  1.0000
  H   H1233     1.0  0.92191  0.13098  0.14868  1.0000
  H   H1234     1.0  0.94375  0.12206  0.08504  1.0000
  H   H1235     1.0  0.85316  0.12216  0.12246  1.0000
  H   H1236     1.0  0.82792  0.15060  0.13767  1.0000
  H   H1237     1.0  0.84201  0.18749  0.14518  1.0000
  H   H1238     1.0  0.88149  0.19591  0.13639  1.0000
  H   H1239     1.0  0.90718  0.16745  0.12071  1.0000
  H   H1240     1.0  0.86551  0.09110  0.10321  1.0000
  H   H1241     1.0  0.85468  0.05464  0.11902  1.0000
  H   H1242     1.0  0.87697  0.03553  0.14625  1.0000
  H   H1243     1.0  0.91017  0.05340  0.15798  1.0000
  H   H1244     1.0  0.92077  0.09010  0.14310  1.0000
  H   H1245     1.0  0.91132  0.08704  0.08050  1.0000
  H   H1246     1.0  0.90758  0.08729  0.04280  1.0000
  H   H1247     1.0  0.88226  0.15537  0.04254  1.0000
  H   H1248     1.0  0.88581  0.15547  0.08017  1.0000
  C   C1558     1.0  0.76553  0.39061  0.21340  1.0000
  H   H1249     1.0  0.69178  0.04737  0.19267  1.0000
  H   H1250     1.0  0.86399  0.42502  0.20610  1.0000
  C   C1559     1.0  0.81170  0.39018  0.21675  1.0000
  C   C1560     1.0  0.80126  0.40736  0.20478  1.0000
  C   C1561     1.0  0.77796  0.40777  0.20366  1.0000
  P   P51       1.0  0.81767  0.42953  0.19256  1.0000
  C   C1562     1.0  0.71111  0.35476  0.21598  1.0000
  C   C1563     1.0  0.84318  0.41667  0.18155  1.0000
  C   C1564     1.0  0.86334  0.41728  0.19152  1.0000
  C   C1565     1.0  0.88294  0.40721  0.18299  1.0000
  C   C1566     1.0  0.88252  0.39599  0.16475  1.0000
  C   C1567     1.0  0.86250  0.39477  0.15505  1.0000
  C   C1568     1.0  0.84295  0.40503  0.16339  1.0000
  C   C1569     1.0  0.68181  0.29880  0.22140  1.0000
  C   C1570     1.0  0.74529  0.03886  0.02504  1.0000
  C   C1571     1.0  0.58072  0.09528  0.05595  1.0000
  H   H1251     1.0  0.58134  0.43369  0.99236  1.0000
  C   C1572     1.0  0.98671  0.08850  0.16585  1.0000
  C   C1573     1.0  0.80264  0.44399  0.17188  1.0000
  C   C1574     1.0  0.80198  0.46745  0.16923  1.0000
  C   C1575     1.0  0.78200  0.26875  0.22295  1.0000
  C   C1576     1.0  0.59424  0.04289  0.07745  1.0000
  H   H1252     1.0  0.77124  0.43308  0.13160  1.0000
  C   C1577     1.0  0.79129  0.43177  0.15820  1.0000
  H   H1253     1.0  0.74767  0.39081  0.21205  1.0000
  C   C1578     1.0  0.59709  0.01963  0.07726  1.0000
  S   S217      1.0  0.89469  0.31229  0.21751  1.0000
  H   H1254     1.0  0.81147  0.26976  0.20236  1.0000
  H   H1255     1.0  0.76933  0.42112  0.19514  1.0000
  H   H1256     1.0  0.65612  0.24987  0.21766  1.0000
  H   H1257     1.0  0.61055  0.44975  0.01202  1.0000
  H   H1258     1.0  0.89759  0.38771  0.15846  1.0000
  H   H1259     1.0  0.86203  0.38552  0.14124  1.0000
  H   H1260     1.0  0.82770  0.40335  0.15576  1.0000
  H   H1261     1.0  0.55818  0.09606  0.17985  1.0000
  H   H1262     1.0  0.71338  0.43897  0.17866  1.0000
  C   C1579     1.0  0.56072  0.07755  0.13104  1.0000
  H   H1263     1.0  0.59032  0.11715  0.16497  1.0000
  H   H1264     1.0  0.51320  0.17702  0.19503  1.0000
  H   H1265     1.0  0.81009  0.47756  0.17954  1.0000
  C   C1580     1.0  0.74985  0.09475  0.19809  1.0000
  C   C1581     1.0  0.98012  0.32249  0.20865  1.0000
  H   H1266     1.0  0.79106  0.41376  0.16002  1.0000
  C   C1582     1.0  0.52111  0.04324  0.03740  1.0000
  C   C1583     1.0  0.53871  0.05311  0.02570  1.0000
  C   C1584     1.0  0.53421  0.06980  0.01045  1.0000
  C   C1585     1.0  0.97235  0.26323  0.19156  1.0000
  H   H1267     1.0  0.70870  0.35562  0.23255  1.0000
  H   H1268     1.0  0.67835  0.08590  0.20047  1.0000
  H   H1269     1.0  0.55321  0.17118  0.20238  1.0000
  H   H1270     1.0  0.55588  0.04794  0.02840  1.0000
  C   C1586     1.0  0.81549  0.44589  0.23225  1.0000
  H   H1271     1.0  0.97551  0.41406  0.19790  1.0000
  C   C1587     1.0  0.56370  0.09447  0.16376  1.0000
  H   H1272     1.0  0.61984  0.02983  0.03196  1.0000
  C   C1588     1.0  0.62286  0.34596  0.07552  1.0000
  C   C1589     1.0  0.61402  0.36527  0.08446  1.0000
  C   C1590     1.0  0.62061  0.37069  0.10379  1.0000
  C   C1591     1.0  0.63578  0.35663  0.11437  1.0000
  C   C1592     1.0  0.64454  0.33700  0.10562  1.0000
  C   C1593     1.0  0.63840  0.33210  0.08585  1.0000
  P   P52       1.0  0.66455  0.31900  0.11903  1.0000
  C   C1594     1.0  0.65790  0.32029  0.14647  1.0000
  C   C1595     1.0  0.66245  0.29071  0.11125  1.0000
  C   C1596     1.0  0.64137  0.28206  0.10913  1.0000
  C   C1597     1.0  0.63957  0.26041  0.10264  1.0000
  C   C1598     1.0  0.65878  0.24723  0.09815  1.0000
  C   C1599     1.0  0.67981  0.25570  0.10017  1.0000
  C   C1600     1.0  0.68167  0.27734  0.10667  1.0000
  C   C1601     1.0  0.64362  0.30500  0.15705  1.0000
  C   C1602     1.0  0.63714  0.30743  0.17788  1.0000
  C   C1603     1.0  0.64500  0.32496  0.18830  1.0000
  C   C1604     1.0  0.65958  0.33990  0.17806  1.0000
  C   C1605     1.0  0.66586  0.33775  0.15719  1.0000
  C   C1606     1.0  0.69244  0.32857  0.11325  1.0000
  C   C1607     1.0  0.69706  0.34334  0.09613  1.0000
  C   C1608     1.0  0.71863  0.35098  0.09199  1.0000
  C   C1609     1.0  0.73574  0.34378  0.10477  1.0000
  C   C1610     1.0  0.73135  0.32888  0.12172  1.0000
  C   C1611     1.0  0.70975  0.32133  0.12601  1.0000
  H   H1273     1.0  0.61831  0.34219  0.06020  1.0000
  H   H1274     1.0  0.61430  0.38607  0.11038  1.0000
  H   H1275     1.0  0.64072  0.36135  0.12922  1.0000
  H   H1276     1.0  0.64572  0.31774  0.07821  1.0000
  H   H1277     1.0  0.62631  0.29214  0.11235  1.0000
  H   H1278     1.0  0.62327  0.25393  0.10090  1.0000
  H   H1279     1.0  0.65738  0.23053  0.09294  1.0000
  H   H1280     1.0  0.69470  0.24555  0.09648  1.0000
  H   H1281     1.0  0.69815  0.28357  0.10781  1.0000
  H   H1282     1.0  0.63695  0.29154  0.14929  1.0000
  H   H1283     1.0  0.62555  0.29609  0.18587  1.0000
  H   H1284     1.0  0.63929  0.32735  0.20420  1.0000
  H   H1285     1.0  0.66512  0.35381  0.18609  1.0000
  H   H1286     1.0  0.67618  0.35027  0.14924  1.0000
  H   H1287     1.0  0.68401  0.34928  0.08617  1.0000
  H   H1288     1.0  0.72205  0.36283  0.07905  1.0000
  H   H1289     1.0  0.75236  0.34998  0.10164  1.0000
  H   H1290     1.0  0.74468  0.32350  0.13166  1.0000
  H   H1291     1.0  0.70651  0.30994  0.13931  1.0000
  P   P53       1.0  0.59049  0.08372  0.09675  1.0000
  C   C1612     1.0  0.61647  0.09777  0.09247  1.0000
  C   C1613     1.0  0.57897  0.08945  0.12243  1.0000
  C   C1614     1.0  0.58942  0.10399  0.13478  1.0000
  C   C1615     1.0  0.58179  0.10643  0.15533  1.0000
  C   C1616     1.0  0.98737  0.25792  0.17498  1.0000
  C   C1617     1.0  0.63619  0.08804  0.10011  1.0000
  C   C1618     1.0  0.65601  0.09956  0.09760  1.0000
  C   C1619     1.0  0.65641  0.12055  0.08716  1.0000
  C   C1620     1.0  0.63680  0.13047  0.07976  1.0000
  C   C1621     1.0  0.61682  0.11929  0.08265  1.0000
  C   C1622     1.0  0.59514  0.05373  0.09601  1.0000
  C   C1623     1.0  0.59924  0.04085  0.11428  1.0000
  C   C1624     1.0  0.67335  0.00052  0.99630  1.0000
  H   H1292     1.0  0.60388  0.11301  0.12892  1.0000
  H   H1293     1.0  0.91901  0.15941  0.20209  1.0000
  H   H1294     1.0  0.63636  0.07160  0.10795  1.0000
  H   H1295     1.0  0.67134  0.09190  0.10304  1.0000
  H   H1296     1.0  0.67202  0.12894  0.08464  1.0000
  H   H1297     1.0  0.63712  0.14676  0.07167  1.0000
  H   H1298     1.0  0.60174  0.12750  0.07718  1.0000
  H   H1299     1.0  0.60079  0.04868  0.12875  1.0000
  H   H1300     1.0  0.89306  0.12138  0.02371  1.0000
  H   H1301     1.0  0.66855  0.06818  0.99418  1.0000
  C   C1625     1.0  0.70815  0.37305  0.18194  1.0000
  C   C1626     1.0  0.97369  0.13493  0.12525  1.0000
  C   C1627     1.0  0.70529  0.37356  0.20340  1.0000
  H   H1302     1.0  0.79897  0.30449  0.18315  1.0000
  C   C1628     1.0  0.96448  0.38132  0.22963  1.0000
  C   C1629     1.0  0.93776  0.18967  0.20012  1.0000
  C   C1630     1.0  0.94550  0.20731  0.18684  1.0000
  C   C1631     1.0  0.94057  0.20861  0.16601  1.0000
  C   C1632     1.0  0.92833  0.19204  0.15821  1.0000
  C   C1633     1.0  0.92066  0.17438  0.17134  1.0000
  C   C1634     1.0  0.92545  0.17309  0.19219  1.0000
  H   H1303     1.0  0.67472  0.46000  0.02665  1.0000
  C   C1635     1.0  0.52940  0.18914  0.98622  1.0000
  C   C1636     1.0  0.67120  0.17578  0.20962  1.0000
  C   C1637     1.0  0.56376  0.17007  0.99683  1.0000
  C   C1638     1.0  0.82452  0.44843  0.21184  1.0000
  H   H1304     1.0  0.95481  0.22038  0.19271  1.0000
  H   H1305     1.0  0.94572  0.22279  0.15605  1.0000
  H   H1306     1.0  0.92434  0.19324  0.14214  1.0000
  C   C1639     1.0  0.60165  0.01758  0.11409  1.0000
  C   C1640     1.0  0.98131  0.26334  0.15465  1.0000
  C   C1641     1.0  0.68514  0.41392  0.00917  1.0000
  H   H1307     1.0  0.66959  0.40564  0.01240  1.0000
  C   C1642     1.0  0.65544  0.16860  0.22495  1.0000
  H   H1308     1.0  0.84753  0.46708  0.19129  1.0000
  C   C1643     1.0  0.69179  0.25359  0.21578  1.0000
  C   C1644     1.0  0.69933  0.41598  0.02518  1.0000
  H   H1309     1.0  0.52464  0.16979  0.03676  1.0000
  C   C1645     1.0  0.67364  0.03198  0.21895  1.0000
  C   C1646     1.0  0.63778  0.43655  0.99273  1.0000
  C   C1647     1.0  0.70906  0.26835  0.21687  1.0000
  H   H1310     1.0  0.65490  0.48850  0.06561  1.0000
  H   H1311     1.0  0.76311  0.32307  0.19248  1.0000
  H   H1312     1.0  0.69832  0.38849  0.21023  1.0000
  C   C1648     1.0  0.53205  0.17305  0.02134  1.0000
  H   H1313     1.0  0.57375  0.10360  0.02421  1.0000
  S   S218      1.0  0.59913  0.06209  0.00439  1.0000
  C   C1649     1.0  0.72776  0.44369  0.22831  1.0000
  C   C1650     1.0  0.51959  0.18431  0.20827  1.0000
  C   C1651     1.0  0.69960  0.48109  0.03654  1.0000
  S   S219      1.0  0.63858  0.33062  0.00350  1.0000
  C   C1652     1.0  0.77960  0.46592  0.13946  1.0000
  H   H1314     1.0  0.70206  0.42631  0.21428  1.0000
  H   H1315     1.0  0.98192  0.17564  0.20148  1.0000
  H   H1316     1.0  0.68982  0.03581  0.01884  1.0000
  H   H1317     1.0  0.60074  0.07194  0.21089  1.0000
  C   C1653     1.0  0.92093  0.23179  0.22774  1.0000
  C   C1654     1.0  0.74531  0.45838  0.22429  1.0000
  C   C1655     1.0  0.84290  0.21322  0.21909  1.0000
  C   C1656     1.0  0.49898  0.04989  0.03372  1.0000
  C   C1657     1.0  0.71611  0.35344  0.17300  1.0000
  C   C1658     1.0  0.55406  0.16573  0.01664  1.0000
  H   H1318     1.0  0.70379  0.38773  0.17221  1.0000
  H   H1319     1.0  0.59162  0.05220  0.06300  1.0000
  C   C1659     1.0  0.55308  0.08013  0.15159  1.0000
  C   C1660     1.0  0.95158  0.27362  0.18775  1.0000
  C   C1661     1.0  0.78821  0.29712  0.19549  1.0000
  C   C1662     1.0  0.57224  0.09366  0.07661  1.0000
  P   P54       1.0  0.72606  0.31036  0.22333  1.0000
  C   C1663     1.0  0.75340  0.29796  0.21657  1.0000
  S   S220      1.0  0.68938  0.99701  0.13322  1.0000
  H   H1320     1.0  0.66019  0.10819  0.98543  1.0000
  C   C1664     1.0  0.54214  0.18111  0.21232  1.0000
  C   C1665     1.0  0.54972  0.09967  0.08113  1.0000
  H   H1321     1.0  0.51861  0.11171  0.06879  1.0000
  C   C1666     1.0  0.66464  0.28393  0.22057  1.0000
  C   C1667     1.0  0.75136  0.46583  0.20400  1.0000
  H   H1322     1.0  0.55282  0.06577  0.12205  1.0000
  H   H1323     1.0  0.64737  0.28982  0.22242  1.0000
  C   C1668     1.0  0.66959  0.26133  0.21789  1.0000
  S   S221      1.0  0.87320  0.11127  0.22492  1.0000
  C   C1669     1.0  0.54462  0.10872  0.04471  1.0000
  C   C1670     1.0  0.70422  0.29107  0.22017  1.0000
  H   H1324     1.0  0.59805  0.09072  0.05204  1.0000
  C   C1671     1.0  0.71144  0.43272  0.98521  1.0000
  H   H1325     1.0  0.73050  0.42818  0.03378  1.0000
  H   H1326     1.0  0.53924  0.07064  0.15828  1.0000
  H   H1327     1.0  0.74120  0.44324  0.99836  1.0000
  H   H1328     1.0  0.54787  0.07743  0.00131  1.0000
  H   H1329     1.0  0.74435  0.46462  0.17184  1.0000
  C   C1672     1.0  0.71942  0.33503  0.20713  1.0000
  S   S222      1.0  0.61976  0.11596  0.20507  1.0000
  C   C1673     1.0  0.65866  0.07528  0.22774  1.0000
  C   C1674     1.0  0.49651  0.29182  0.00586  1.0000
  C   C1675     1.0  0.61523  0.44022  0.99864  1.0000
  C   C1676     1.0  0.68085  0.05016  0.20625  1.0000
  C   C1677     1.0  0.79534  0.27764  0.20643  1.0000
  Fe  Fe110     1.0  0.85092  0.08366  0.21880  1.0000
  C   C1678     1.0  0.67333  0.07182  0.21063  1.0000
  H   H1330     1.0  0.84637  0.24899  0.21973  1.0000
  C   C1679     1.0  0.76356  0.10966  0.16434  1.0000
  S   S223      1.0  0.60064  0.35900  0.20749  1.0000
  C   C1680     1.0  0.51974  0.18474  0.00621  1.0000
  H   H1331     1.0  0.80282  0.02411  0.22004  1.0000
  H   H1332     1.0  0.56790  0.18829  0.23251  1.0000
  H   H1333     1.0  0.65234  0.09198  0.23087  1.0000
  H   H1334     1.0  0.97159  0.36877  0.16553  1.0000
  H   H1335     1.0  0.99279  0.25970  0.14166  1.0000
  H   H1336     1.0  0.74568  0.10067  0.13840  1.0000
  H   H1337     1.0  0.90396  0.26401  0.22787  1.0000
  H   H1338     1.0  0.89838  0.40740  0.19082  1.0000
  H   H1339     1.0  0.76660  0.35972  0.23191  1.0000
  H   H1340     1.0  0.58089  0.16456  0.99313  1.0000
  C   C1681     1.0  0.83988  0.46519  0.20680  1.0000
  C   C1682     1.0  0.74656  0.09939  0.15506  1.0000
  H   H1341     1.0  0.72199  0.07325  0.19769  1.0000
  H   H1342     1.0  0.53404  0.11438  0.03232  1.0000
  C   C1683     1.0  0.73153  0.08634  0.16714  1.0000
  H   H1343     1.0  0.69559  0.23608  0.21350  1.0000
  H   H1344     1.0  0.91032  0.16200  0.16571  1.0000
  H   H1345     1.0  0.63448  0.38358  0.22481  1.0000
  H   H1346     1.0  0.51552  0.26123  0.01213  1.0000
  C   C1684     1.0  0.94562  0.27879  0.16751  1.0000
  C   C1685     1.0  0.71952  0.42658  0.02131  1.0000
  C   C1686     1.0  0.56698  0.10274  0.04011  1.0000
  C   C1687     1.0  0.91818  0.25397  0.23313  1.0000
  C   C1688     1.0  0.96890  0.12998  0.10523  1.0000
  S   S224      1.0  0.83818  0.16784  0.21857  1.0000
  C   C1689     1.0  0.55043  0.19071  0.22927  1.0000
  H   H1347     1.0  0.67951  0.01531  0.21519  1.0000
  H   H1348     1.0  0.69456  0.40927  0.04059  1.0000
  C   C1690     1.0  0.98545  0.17283  0.21761  1.0000
  C   C1691     1.0  0.78620  0.03006  0.22504  1.0000
  C   C1692     1.0  0.62559  0.48970  0.13499  1.0000
  C   C1693     1.0  0.60067  0.00695  0.09558  1.0000
  H   H1349     1.0  0.76481  0.47723  0.20101  1.0000
  Fe  Fe111     1.0  0.86348  0.33011  0.23007  1.0000
  C   C1694     1.0  0.72551  0.43506  0.00134  1.0000
  P   P55       1.0  0.94203  0.18957  0.22740  1.0000
  C   C1695     1.0  0.96051  0.27370  0.15095  1.0000
  H   H1350     1.0  0.98225  0.12904  0.09331  1.0000
  H   H1351     1.0  0.71103  0.11529  0.21325  1.0000
  H   H1352     1.0  0.95597  0.27805  0.13526  1.0000
  C   C1696     1.0  0.68383  0.47507  0.02311  1.0000
  C   C1697     1.0  0.77619  0.37313  0.22463  1.0000
  H   H1353     1.0  0.79260  0.06410  0.21548  1.0000
  C   C1698     1.0  0.79925  0.37303  0.22652  1.0000
  H   H1354     1.0  0.82950  0.38992  0.21838  1.0000
  C   C1699     1.0  0.73832  0.03707  0.98876  1.0000
  H   H1355     1.0  0.90898  0.22526  0.21800  1.0000
  C   C1700     1.0  0.50523  0.19674  0.22141  1.0000
  H   H1356     1.0  0.68215  0.37517  0.99191  1.0000
  H   H1357     1.0  0.71620  0.03843  0.04605  1.0000
  H   H1358     1.0  0.93416  0.36457  0.22541  1.0000
  C   C1701     1.0  0.69109  0.42212  0.98904  1.0000
  C   C1702     1.0  0.84571  0.47939  0.22182  1.0000
  H   H1359     1.0  0.98726  0.17907  0.14593  1.0000
  C   C1703     1.0  0.75922  0.06094  0.22956  1.0000
  H   H1360     1.0  0.64055  0.16065  0.22075  1.0000
  H   H1361     1.0  0.67638  0.12603  0.23290  1.0000
  C   C1704     1.0  0.69029  0.18608  0.21507  1.0000
  C   C1705     1.0  0.78040  0.05281  0.22259  1.0000
  C   C1706     1.0  0.63325  0.99730  0.99797  1.0000
  P   P56       1.0  0.75209  0.09030  0.22567  1.0000
  H   H1362     1.0  0.76128  0.13776  0.22011  1.0000
  H   H1363     1.0  0.78992  0.16061  0.23363  1.0000
  H   H1364     1.0  0.60497  0.00792  0.12827  1.0000
  C   C1707     1.0  0.70752  0.03603  0.01456  1.0000
  H   H1365     1.0  0.98388  0.41443  0.16026  1.0000
  H   H1366     1.0  0.49797  0.29645  0.22193  1.0000
  C   C1708     1.0  0.77314  0.12998  0.23051  1.0000
  H   H1367     1.0  0.82990  0.21265  0.23133  1.0000
  H   H1368     1.0  0.75674  0.04029  0.03717  1.0000
  H   H1369     1.0  0.99073  0.13755  0.12894  1.0000
  C   C1709     1.0  0.70937  0.11067  0.22961  1.0000
  H   H1370     1.0  0.78785  0.25395  0.23174  1.0000
  H   H1371     1.0  0.63241  0.47432  0.14222  1.0000
  H   H1372     1.0  0.77090  0.04002  0.00043  1.0000
  C   C1710     1.0  0.59880  0.43120  0.98759  1.0000
  C   C1711     1.0  0.94185  0.37723  0.23360  1.0000
  C   C1712     1.0  0.96931  0.17792  0.23335  1.0000
  C   C1713     1.0  0.63126  0.01628  0.98456  1.0000
  Fe  Fe112     1.0  0.79802  0.03449  0.35274  1.0000
  C   C1714     1.0  0.65890  0.17141  0.24576  1.0000
  S   S225      1.0  0.82923  0.04832  0.33659  1.0000
  Fe  Fe113     1.0  0.76781  0.04125  0.39079  1.0000
  H   H1373     1.0  0.70991  0.01250  0.42381  1.0000
  S   S226      1.0  0.76248  0.05883  0.42072  1.0000
  H   H1374     1.0  0.99378  0.36889  0.47476  1.0000
  Fe  Fe114     1.0  0.74789  0.02914  0.35037  1.0000
  S   S227      1.0  0.72294  0.03432  0.32441  1.0000
  S   S228      1.0  0.79924  0.02053  0.38564  1.0000
  S   S229      1.0  0.76833  0.05762  0.35873  1.0000
  Fe  Fe115     1.0  0.62223  0.34534  0.28375  1.0000
  S   S230      1.0  0.63348  0.32961  0.25390  1.0000
  S   S231      1.0  0.65146  0.35484  0.30329  1.0000
  Fe  Fe116     1.0  0.57263  0.33326  0.27819  1.0000
  S   S232      1.0  0.58174  0.31672  0.24862  1.0000
  S   S233      1.0  0.53636  0.32917  0.29109  1.0000
  Fe  Fe117     1.0  0.61132  0.30129  0.26421  1.0000
  S   S234      1.0  0.62508  0.26617  0.25787  1.0000
  H   H1375     1.0  0.94939  0.41394  0.46115  1.0000
  H   H1376     1.0  0.75040  0.13504  0.27019  1.0000
  S   S235      1.0  0.60142  0.31574  0.29471  1.0000
  S   S236      1.0  0.59246  0.36417  0.26973  1.0000
  Fe  Fe118     1.0  0.60702  0.09959  0.28218  1.0000
  S   S237      1.0  0.61688  0.13020  0.26274  1.0000
  S   S238      1.0  0.62840  0.08548  0.30879  1.0000
  Fe  Fe119     1.0  0.56014  0.10052  0.26319  1.0000
  H   H1377     1.0  0.86643  0.17450  0.25844  1.0000
  S   S239      1.0  0.52715  0.08245  0.26360  1.0000
  C   C1715     1.0  0.88841  0.14403  0.42467  1.0000
  P   P57       1.0  0.68865  0.43291  0.40361  1.0000
  Fe  Fe120     1.0  0.58224  0.14420  0.27005  1.0000
  S   S240      1.0  0.57137  0.17833  0.28139  1.0000
  S   S241      1.0  0.59341  0.08264  0.25561  1.0000
  S   S242      1.0  0.57298  0.11475  0.29134  1.0000
  Fe  Fe121     1.0  0.80019  0.42776  0.33024  1.0000
  S   S243      1.0  0.77413  0.45563  0.33432  1.0000
  S   S244      1.0  0.82145  0.42683  0.30007  1.0000
  Fe  Fe122     1.0  0.78884  0.40681  0.37281  1.0000
  S   S245      1.0  0.76183  0.43273  0.37949  1.0000
  S   S246      1.0  0.79534  0.37784  0.39584  1.0000
  Fe  Fe123     1.0  0.75161  0.42810  0.34704  1.0000
  S   S247      1.0  0.71541  0.42726  0.33665  1.0000
  Fe  Fe124     1.0  0.78685  0.45773  0.36637  1.0000
  C   C1716     1.0  0.79643  0.41804  0.45358  1.0000
  S   S248      1.0  0.77719  0.40052  0.34129  1.0000
  S   S249      1.0  0.81419  0.43152  0.36130  1.0000
  H   H1378     1.0  0.88302  0.00407  0.32504  1.0000
  C   C1717     1.0  0.84575  0.35996  0.27383  1.0000
  C   C1718     1.0  0.83515  0.36046  0.29368  1.0000
  C   C1719     1.0  0.82772  0.38086  0.30187  1.0000
  C   C1720     1.0  0.83095  0.40096  0.29035  1.0000
  C   C1721     1.0  0.84174  0.40053  0.27057  1.0000
  C   C1722     1.0  0.84899  0.38010  0.26228  1.0000
  H   H1379     1.0  0.83263  0.34499  0.30276  1.0000
  H   H1380     1.0  0.81939  0.38106  0.31706  1.0000
  H   H1381     1.0  0.84444  0.41602  0.26160  1.0000
  H   H1382     1.0  0.83286  0.04022  0.41864  1.0000
  H   H1383     1.0  0.63679  0.43640  0.26081  1.0000
  C   C1723     1.0  0.60910  0.24223  0.26352  1.0000
  C   C1724     1.0  0.58976  0.24290  0.27657  1.0000
  C   C1725     1.0  0.57824  0.22322  0.28175  1.0000
  C   C1726     1.0  0.58584  0.20278  0.27381  1.0000
  C   C1727     1.0  0.60480  0.20223  0.26030  1.0000
  C   C1728     1.0  0.61645  0.22185  0.25527  1.0000
  H   H1384     1.0  0.58393  0.25849  0.28299  1.0000
  H   H1385     1.0  0.56352  0.22377  0.29216  1.0000
  H   H1386     1.0  0.96478  0.25753  0.25987  1.0000
  H   H1387     1.0  0.93348  0.04584  0.47809  1.0000
  C   C1729     1.0  0.69786  0.40672  0.32774  1.0000
  C   C1730     1.0  0.67888  0.41390  0.31699  1.0000
  C   C1731     1.0  0.66455  0.39843  0.30948  1.0000
  C   C1732     1.0  0.66889  0.37538  0.31257  1.0000
  C   C1733     1.0  0.68774  0.36821  0.32357  1.0000
  C   C1734     1.0  0.70215  0.38367  0.33101  1.0000
  H   H1388     1.0  0.67519  0.43161  0.31443  1.0000
  H   H1389     1.0  0.64995  0.40438  0.30156  1.0000
  H   H1390     1.0  0.69112  0.35051  0.32651  1.0000
  H   H1391     1.0  0.71643  0.37776  0.33947  1.0000
  C   C1735     1.0  0.69708  0.04965  0.32051  1.0000
  C   C1736     1.0  0.68989  0.05334  0.30024  1.0000
  C   C1737     1.0  0.66917  0.06439  0.29630  1.0000
  C   C1738     1.0  0.65515  0.07195  0.31263  1.0000
  C   C1739     1.0  0.66240  0.06846  0.33289  1.0000
  C   C1740     1.0  0.68322  0.05752  0.33682  1.0000
  H   H1392     1.0  0.70061  0.04791  0.28740  1.0000
  H   H1393     1.0  0.66412  0.06709  0.28063  1.0000
  H   H1394     1.0  0.65178  0.07417  0.34572  1.0000
  H   H1395     1.0  0.68833  0.05484  0.35251  1.0000
  C   C1741     1.0  0.83005  0.05149  0.30939  1.0000
  C   C1742     1.0  0.84608  0.06497  0.29889  1.0000
  C   C1743     1.0  0.84767  0.06694  0.27714  1.0000
  C   C1744     1.0  0.83347  0.05508  0.26585  1.0000
  C   C1745     1.0  0.81737  0.04174  0.27635  1.0000
  C   C1746     1.0  0.81549  0.04013  0.29805  1.0000
  H   H1396     1.0  0.85741  0.07374  0.30762  1.0000
  H   H1397     1.0  0.86025  0.07709  0.26912  1.0000
  H   H1398     1.0  0.80639  0.03248  0.26768  1.0000
  H   H1399     1.0  0.80313  0.02969  0.30598  1.0000
  C   C1747     1.0  0.85110  0.38066  0.44084  1.0000
  C   C1748     1.0  0.84698  0.39871  0.42664  1.0000
  C   C1749     1.0  0.82985  0.39812  0.41285  1.0000
  C   C1750     1.0  0.81661  0.37948  0.41325  1.0000
  C   C1751     1.0  0.82038  0.36164  0.42774  1.0000
  C   C1752     1.0  0.83751  0.36226  0.44157  1.0000
  H   H1400     1.0  0.85684  0.41335  0.42641  1.0000
  H   H1401     1.0  0.82680  0.41215  0.40206  1.0000
  H   H1402     1.0  0.81013  0.34721  0.42819  1.0000
  C   C1753     1.0  0.82034  0.09682  0.44315  1.0000
  C   C1754     1.0  0.82086  0.09020  0.42271  1.0000
  C   C1755     1.0  0.80340  0.07817  0.41582  1.0000
  C   C1756     1.0  0.78502  0.07314  0.42920  1.0000
  C   C1757     1.0  0.78428  0.08013  0.44953  1.0000
  C   C1758     1.0  0.80196  0.09183  0.45654  1.0000
  H   H1403     1.0  0.83490  0.09429  0.41218  1.0000
  H   H1404     1.0  0.80399  0.07313  0.40004  1.0000
  H   H1405     1.0  0.77639  0.41809  0.42708  1.0000
  C   C1759     1.0  0.83623  0.31477  0.34591  1.0000
  C   C1760     1.0  0.81549  0.32584  0.34903  1.0000
  C   C1761     1.0  0.81437  0.34839  0.35340  1.0000
  C   C1762     1.0  0.83391  0.36005  0.35442  1.0000
  C   C1763     1.0  0.85479  0.34917  0.35081  1.0000
  C   C1764     1.0  0.85581  0.32631  0.34708  1.0000
  P   P58       1.0  0.88030  0.36351  0.35275  1.0000
  C   C1765     1.0  0.89863  0.36074  0.32979  1.0000
  C   C1766     1.0  0.87482  0.39326  0.35428  1.0000
  C   C1767     1.0  0.87704  0.40404  0.37270  1.0000
  C   C1768     1.0  0.87376  0.42724  0.37311  1.0000
  C   C1769     1.0  0.86850  0.43988  0.35515  1.0000
  C   C1770     1.0  0.86611  0.42927  0.33683  1.0000
  C   C1771     1.0  0.86913  0.40606  0.33641  1.0000
  C   C1772     1.0  0.91958  0.37043  0.32866  1.0000
  C   C1773     1.0  0.93385  0.36875  0.31095  1.0000
  H   H1406     1.0  0.74422  0.48912  0.41359  1.0000
  C   C1774     1.0  0.90593  0.34901  0.29466  1.0000
  C   C1775     1.0  0.89168  0.35057  0.31238  1.0000
  C   C1776     1.0  0.89225  0.35157  0.37607  1.0000
  C   C1777     1.0  0.87909  0.35066  0.39470  1.0000
  C   C1778     1.0  0.88805  0.34172  0.41295  1.0000
  C   C1779     1.0  0.91008  0.33335  0.41275  1.0000
  C   C1780     1.0  0.92312  0.33358  0.39420  1.0000
  C   C1781     1.0  0.91422  0.34251  0.37588  1.0000
  H   H1407     1.0  0.83714  0.29726  0.34259  1.0000
  H   H1408     1.0  0.80028  0.31695  0.34828  1.0000
  H   H1409     1.0  0.79830  0.35682  0.35632  1.0000
  H   H1410     1.0  0.83257  0.37744  0.35818  1.0000
  H   H1411     1.0  0.87179  0.31746  0.34487  1.0000
  H   H1412     1.0  0.88118  0.39475  0.38681  1.0000
  H   H1413     1.0  0.87498  0.43544  0.38743  1.0000
  H   H1414     1.0  0.86554  0.45781  0.35556  1.0000
  H   H1415     1.0  0.86129  0.43895  0.32305  1.0000
  H   H1416     1.0  0.86693  0.39813  0.32211  1.0000
  H   H1417     1.0  0.92482  0.37932  0.34151  1.0000
  H   H1418     1.0  0.95008  0.37605  0.31025  1.0000
  C   C1782     1.0  0.72397  0.47821  0.30097  1.0000
  H   H1419     1.0  0.72112  0.16108  0.25714  1.0000
  H   H1420     1.0  0.87519  0.34413  0.31209  1.0000
  H   H1421     1.0  0.86193  0.35714  0.39522  1.0000
  H   H1422     1.0  0.87793  0.34137  0.42734  1.0000
  H   H1423     1.0  0.91692  0.32662  0.42701  1.0000
  H   H1424     1.0  0.94011  0.32679  0.39402  1.0000
  H   H1425     1.0  0.92451  0.34209  0.36170  1.0000
  C   C1783     1.0  0.82295  0.18901  0.45886  1.0000
  C   C1784     1.0  0.74200  0.37804  0.41935  1.0000
  C   C1785     1.0  0.73646  0.38261  0.39887  1.0000
  C   C1786     1.0  0.51982  0.29275  0.24710  1.0000
  H   H1426     1.0  0.74556  0.37401  0.38657  1.0000
  H   H1427     1.0  0.84739  0.02825  0.37554  1.0000
  H   H1428     1.0  0.52506  0.16996  0.31235  1.0000
  C   C1787     1.0  0.70631  0.31906  0.26258  1.0000
  C   C1788     1.0  0.57914  0.03408  0.28120  1.0000
  H   H1429     1.0  0.87921  0.02662  0.29247  1.0000
  H   H1430     1.0  0.50971  0.12901  0.25980  1.0000
  H   H1431     1.0  0.56323  0.04011  0.28796  1.0000
  C   C1789     1.0  0.77774  0.40078  0.26837  1.0000
  C   C1790     1.0  0.77120  0.38691  0.28545  1.0000
  C   C1791     1.0  0.74893  0.38725  0.29283  1.0000
  C   C1792     1.0  0.73320  0.40133  0.28303  1.0000
  C   C1793     1.0  0.73956  0.41525  0.26575  1.0000
  C   C1794     1.0  0.68977  0.11714  0.24077  1.0000
  C   C1795     1.0  0.98152  0.29627  0.47512  1.0000
  C   C1796     1.0  0.65997  0.42171  0.43739  1.0000
  C   C1797     1.0  0.71785  0.45985  0.26947  1.0000
  C   C1798     1.0  0.70944  0.48025  0.26072  1.0000
  H   H1432     1.0  0.79688  0.40000  0.45606  1.0000
  H   H1433     1.0  0.70592  0.38888  0.25251  1.0000
  H   H1434     1.0  0.65188  0.38060  0.36100  1.0000
  C   C1799     1.0  0.72521  0.45905  0.28964  1.0000
  C   C1800     1.0  0.66731  0.46111  0.43218  1.0000
  C   C1801     1.0  0.80827  0.45435  0.46269  1.0000
  C   C1802     1.0  0.66783  0.40317  0.37969  1.0000
  C   C1803     1.0  0.67024  0.38968  0.25586  1.0000
  C   C1804     1.0  0.69100  0.39948  0.25428  1.0000
  H   H1435     1.0  0.67503  0.47493  0.42344  1.0000
  C   C1805     1.0  0.65278  0.39774  0.36528  1.0000
  H   H1436     1.0  0.74393  0.37704  0.30647  1.0000
  H   H1437     1.0  0.71612  0.40173  0.28921  1.0000
  C   C1806     1.0  0.85859  0.01362  0.37491  1.0000
  H   H1438     1.0  0.69108  0.32737  0.29219  1.0000
  C   C1807     1.0  0.73105  0.01149  0.44960  1.0000
  C   C1808     1.0  0.96857  0.47581  0.45754  1.0000
  C   C1809     1.0  0.50437  0.36826  0.32186  1.0000
  H   H1439     1.0  0.99181  0.43765  0.47175  1.0000
  C   C1810     1.0  0.78482  0.42822  0.43729  1.0000
  C   C1811     1.0  0.71450  0.40615  0.43051  1.0000
  H   H1440     1.0  0.83910  0.99933  0.41642  1.0000
  P   P59       1.0  0.49512  0.22093  0.25688  1.0000
  C   C1812     1.0  0.74637  0.33054  0.27832  1.0000
  H   H1441     1.0  0.66222  0.40467  0.43269  1.0000
  C   C1813     1.0  0.95488  0.22781  0.24620  1.0000
  C   C1814     1.0  0.58009  0.02421  0.26216  1.0000
  H   H1442     1.0  0.96869  0.42328  0.26231  1.0000
  C   C1815     1.0  0.88329  0.16780  0.25558  1.0000
  H   H1443     1.0  0.73194  0.44370  0.29681  1.0000
  H   H1444     1.0  0.73747  0.01147  0.24750  1.0000
  P   P60       1.0  0.71942  0.43512  0.25471  1.0000
  C   C1816     1.0  0.84685  0.48541  0.44064  1.0000
  H   H1445     1.0  0.52186  0.36883  0.31675  1.0000
  H   H1446     1.0  0.50687  0.33360  0.33213  1.0000
  C   C1817     1.0  0.67092  0.43909  0.42612  1.0000
  C   C1818     1.0  0.85500  0.99709  0.36126  1.0000
  Fe  Fe125     1.0  0.60289  0.34628  0.24083  1.0000
  C   C1819     1.0  0.84453  0.00749  0.42963  1.0000
  H   H1447     1.0  0.72954  0.47723  0.31660  1.0000
  C   C1820     1.0  0.91287  0.45658  0.44708  1.0000
  H   H1448     1.0  0.87575  0.13475  0.26800  1.0000
  H   H1449     1.0  0.71973  0.48987  0.35277  1.0000
  C   C1821     1.0  0.78436  0.45145  0.43403  1.0000
  H   H1450     1.0  0.86071  0.01162  0.26341  1.0000
  C   C1822     1.0  0.90008  0.44498  0.43423  1.0000
  C   C1823     1.0  0.90520  0.42246  0.43107  1.0000
  C   C1824     1.0  0.92291  0.41142  0.44091  1.0000
  H   H1451     1.0  0.52570  0.30962  0.24488  1.0000
  S   S250      1.0  0.85542  0.33398  0.26439  1.0000
  C   C1825     1.0  0.78804  0.09742  0.24975  1.0000
  H   H1452     1.0  0.90034  0.34114  0.28132  1.0000
  H   H1453     1.0  0.81637  0.22454  0.45231  1.0000
  C   C1826     1.0  0.49972  0.12402  0.30914  1.0000
  H   H1454     1.0  0.67786  0.38984  0.38685  1.0000
  P   P61       1.0  0.82445  0.47129  0.47803  1.0000
  C   C1827     1.0  0.49857  0.21102  0.28336  1.0000
  H   H1455     1.0  0.77545  0.45932  0.42133  1.0000
  C   C1828     1.0  0.70847  0.41047  0.41001  1.0000
  H   H1456     1.0  0.87968  0.02462  0.39771  1.0000
  H   H1457     1.0  0.93189  0.28060  0.24858  1.0000
  C   C1829     1.0  0.63916  0.41443  0.35603  1.0000
  C   C1830     1.0  0.95349  0.16158  0.47270  1.0000
  H   H1458     1.0  0.92623  0.39374  0.43898  1.0000
  S   S251      1.0  0.79103  0.48775  0.38666  1.0000
  H   H1459     1.0  0.81460  0.45770  0.26307  1.0000
  C   C1831     1.0  0.86198  0.00532  0.46265  1.0000
  C   C1832     1.0  0.59879  0.03704  0.29106  1.0000
  P   P62       1.0  0.64728  0.01160  0.25089  1.0000
  C   C1833     1.0  0.50553  0.19758  0.32473  1.0000
  C   C1834     1.0  0.50426  0.24927  0.25340  1.0000
  C   C1835     1.0  0.71995  0.39893  0.39417  1.0000
  H   H1460     1.0  0.67325  0.45386  0.25861  1.0000
  C   C1836     1.0  0.86263  0.00137  0.27759  1.0000
  S   S252      1.0  0.77819  0.00656  0.34272  1.0000
  C   C1837     1.0  0.84102  0.03053  0.43085  1.0000
  H   H1461     1.0  0.73584  0.38670  0.45094  1.0000
  C   C1838     1.0  0.72653  0.33189  0.29059  1.0000
  C   C1839     1.0  0.86661  0.15273  0.42278  1.0000
  C   C1840     1.0  0.85940  0.17219  0.43261  1.0000
  C   C1841     1.0  0.64041  0.43657  0.36134  1.0000
  H   H1462     1.0  0.60098  0.00995  0.23810  1.0000
  C   C1842     1.0  0.51460  0.18470  0.30882  1.0000
  H   H1463     1.0  0.54028  0.28425  0.27276  1.0000
  H   H1464     1.0  0.63441  0.03320  0.28958  1.0000
  C   C1843     1.0  0.67815  0.18144  0.25143  1.0000
  H   H1465     1.0  0.66588  0.22790  0.26027  1.0000
  C   C1844     1.0  0.70530  0.45650  0.39534  1.0000
  H   H1466     1.0  0.62980  0.44948  0.35420  1.0000
  C   C1845     1.0  0.80697  0.21582  0.41055  1.0000
  C   C1846     1.0  0.87503  0.99700  0.31253  1.0000
  H   H1467     1.0  0.72154  0.13894  0.33196  1.0000
  C   C1847     1.0  0.73309  0.48273  0.40296  1.0000
  C   C1848     1.0  0.71933  0.48320  0.36863  1.0000
  C   C1849     1.0  0.64296  0.44810  0.46106  1.0000
  C   C1850     1.0  0.95989  0.30060  0.46871  1.0000
  H   H1468     1.0  0.83006  0.15528  0.47115  1.0000
  H   H1469     1.0  0.72658  0.33750  0.30617  1.0000
  C   C1851     1.0  0.95237  0.25022  0.25114  1.0000
  C   C1852     1.0  0.87691  0.01169  0.38725  1.0000
  H   H1470     1.0  0.75522  0.36577  0.42285  1.0000
  H   H1471     1.0  0.63936  0.06028  0.25310  1.0000
  C   C1853     1.0  0.82823  0.20754  0.41580  1.0000
  H   H1472     1.0  0.69525  0.01727  0.25544  1.0000
  C   C1854     1.0  0.68861  0.00770  0.26885  1.0000
  C   C1855     1.0  0.95498  0.17801  0.45659  1.0000
  C   C1856     1.0  0.70551  0.46561  0.37491  1.0000
  C   C1857     1.0  0.95685  0.20035  0.46100  1.0000
  C   C1858     1.0  0.67951  0.23110  0.26976  1.0000
  H   H1473     1.0  0.81721  0.14333  0.25744  1.0000
  C   C1859     1.0  0.70708  0.04321  0.43950  1.0000
  P   P63       1.0  0.75900  0.01019  0.48271  1.0000
  H   H1474     1.0  0.52210  0.36659  0.26283  1.0000
  C   C1860     1.0  0.49971  0.09493  0.26150  1.0000
  C   C1861     1.0  0.76202  0.41497  0.25860  1.0000
  H   H1475     1.0  0.79367  0.15589  0.45209  1.0000
  C   C1862     1.0  0.69366  0.18912  0.23588  1.0000
  C   C1863     1.0  0.84708  0.21929  0.40850  1.0000
  C   C1864     1.0  0.84463  0.23913  0.39626  1.0000
  H   H1476     1.0  0.69554  0.45885  0.36361  1.0000
  C   C1865     1.0  0.79582  0.15248  0.43593  1.0000
  C   C1866     1.0  0.78178  0.13736  0.42812  1.0000
  C   C1867     1.0  0.78427  0.13216  0.40739  1.0000
  C   C1868     1.0  0.80062  0.14232  0.39433  1.0000
  H   H1477     1.0  0.86367  0.21334  0.41227  1.0000
  H   H1478     1.0  0.85922  0.24824  0.39083  1.0000
  C   C1869     1.0  0.65836  0.03531  0.23585  1.0000
  H   H1479     1.0  0.76940  0.12908  0.43831  1.0000
  H   H1480     1.0  0.77386  0.11983  0.40162  1.0000
  H   H1481     1.0  0.80272  0.13801  0.37833  1.0000
  H   H1482     1.0  0.70645  0.27502  0.28612  1.0000
  C   C1870     1.0  0.80448  0.13331  0.25185  1.0000
  H   H1483     1.0  0.86916  0.19788  0.45193  1.0000
  C   C1871     1.0  0.93898  0.21830  0.23465  1.0000
  H   H1484     1.0  0.80118  0.09738  0.47213  1.0000
  C   C1872     1.0  0.89954  0.18140  0.24585  1.0000
  C   C1873     1.0  0.67273  0.43596  0.25772  1.0000
  H   H1485     1.0  0.95180  0.47536  0.42883  1.0000
  H   H1486     1.0  0.78795  0.07983  0.25454  1.0000
  H   H1487     1.0  0.82152  0.26282  0.38190  1.0000
  H   H1488     1.0  0.94208  0.14217  0.24136  1.0000
  C   C1874     1.0  0.82340  0.24734  0.39121  1.0000
  H   H1489     1.0  0.94943  0.31358  0.47575  1.0000
  C   C1875     1.0  0.73785  0.13540  0.30185  1.0000
  C   C1876     1.0  0.72400  0.09350  0.26101  1.0000
  C   C1877     1.0  0.70453  0.10032  0.27215  1.0000
  C   C1878     1.0  0.68724  0.11174  0.26198  1.0000
  H   H1490     1.0  0.72690  0.05161  0.24323  1.0000
  C   C1879     1.0  0.72103  0.15680  0.27352  1.0000
  H   H1491     1.0  0.70837  0.07198  0.45767  1.0000
  H   H1492     1.0  0.84103  0.99942  0.35144  1.0000
  C   C1880     1.0  0.52798  0.27845  0.26291  1.0000
  C   C1881     1.0  0.98700  0.26691  0.45101  1.0000
  C   C1882     1.0  0.80382  0.11057  0.25769  1.0000
  H   H1493     1.0  0.92896  0.41564  0.26934  1.0000
  C   C1883     1.0  0.87449  0.18305  0.44397  1.0000
  C   C1884     1.0  0.79588  0.46451  0.44675  1.0000
  H   H1494     1.0  0.62778  0.41016  0.34463  1.0000
  H   H1495     1.0  0.93473  0.29113  0.44894  1.0000
  H   H1496     1.0  0.95909  0.26184  0.43255  1.0000
  H   H1497     1.0  0.54283  0.21034  0.25553  1.0000
  H   H1498     1.0  0.90861  0.47405  0.44936  1.0000
  H   H1499     1.0  0.83832  0.47281  0.43321  1.0000
  H   H1500     1.0  0.76178  0.32285  0.24888  1.0000
  C   C1885     1.0  0.90982  0.13635  0.25587  1.0000
  H   H1501     1.0  0.73720  0.08451  0.26914  1.0000
  H   H1502     1.0  0.70282  0.09667  0.28872  1.0000
  H   H1503     1.0  0.67184  0.11627  0.27053  1.0000
  H   H1504     1.0  0.70843  0.19729  0.23989  1.0000
  C   C1886     1.0  0.92712  0.35781  0.29404  1.0000
  H   H1505     1.0  0.70369  0.48130  0.24516  1.0000
  H   H1506     1.0  0.85522  0.14342  0.41463  1.0000
  H   H1507     1.0  0.85740  0.37998  0.24711  1.0000
  H   H1508     1.0  0.81581  0.10298  0.26809  1.0000
  C   C1887     1.0  0.50424  0.10112  0.31249  1.0000
  C   C1888     1.0  0.62049  0.01994  0.26287  1.0000
  H   H1509     1.0  0.79510  0.40074  0.26289  1.0000
  H   H1510     1.0  0.64643  0.16588  0.25732  1.0000
  C   C1889     1.0  0.74943  0.02307  0.24064  1.0000
  C   C1890     1.0  0.97435  0.17339  0.25410  1.0000
  H   H1511     1.0  0.89522  0.41328  0.42136  1.0000
  H   H1512     1.0  0.63228  0.45157  0.47463  1.0000
  C   C1891     1.0  0.77290  0.10694  0.23569  1.0000
  C   C1892     1.0  0.66598  0.00258  0.27083  1.0000
  C   C1893     1.0  0.64613  0.42620  0.45487  1.0000
  C   C1894     1.0  0.71937  0.46507  0.40928  1.0000
  H   H1513     1.0  0.70678  0.41559  0.44292  1.0000
  H   H1514     1.0  0.84113  0.48763  0.25378  1.0000
  C   C1895     1.0  0.93582  0.42295  0.45367  1.0000
  Fe  Fe126     1.0  0.60145  0.11411  0.23671  1.0000
  C   C1896     1.0  0.69245  0.42267  0.25561  1.0000
  H   H1515     1.0  0.77001  0.07646  0.45991  1.0000
  H   H1516     1.0  0.88604  0.45338  0.42689  1.0000
  H   H1517     1.0  0.79221  0.20707  0.41617  1.0000
  H   H1518     1.0  0.52043  0.09391  0.30763  1.0000
  C   C1897     1.0  0.60066  0.01717  0.25299  1.0000
  H   H1519     1.0  0.71654  0.40294  0.37812  1.0000
  H   H1520     1.0  0.91974  0.14739  0.43843  1.0000
  C   C1898     1.0  0.92903  0.38966  0.24782  1.0000
  C   C1899     1.0  0.71383  0.24040  0.29487  1.0000
  C   C1900     1.0  0.68512  0.25321  0.27184  1.0000
  Fe  Fe127     1.0  0.85582  0.11160  0.48304  1.0000
  C   C1901     1.0  0.52033  0.25677  0.26603  1.0000
  C   C1902     1.0  0.69090  0.21344  0.28038  1.0000
  C   C1903     1.0  0.70808  0.21826  0.29302  1.0000
  P   P64       1.0  0.68268  0.18503  0.27834  1.0000
  C   C1904     1.0  0.65723  0.17980  0.29386  1.0000
  H   H1521     1.0  0.76189  0.33508  0.28440  1.0000
  C   C1905     1.0  0.99490  0.27877  0.46696  1.0000
  H   H1522     1.0  0.71699  0.20505  0.30158  1.0000
  H   H1523     1.0  0.51243  0.13435  0.30153  1.0000
  C   C1906     1.0  0.84818  0.04106  0.44777  1.0000
  H   H1524     1.0  0.91354  0.11869  0.25906  1.0000
  C   C1907     1.0  0.65160  0.15769  0.29958  1.0000
  C   C1908     1.0  0.63136  0.15328  0.31046  1.0000
  C   C1909     1.0  0.61658  0.17089  0.31574  1.0000
  C   C1910     1.0  0.62218  0.19293  0.31043  1.0000
  C   C1911     1.0  0.64236  0.19741  0.29946  1.0000
  C   C1912     1.0  0.70446  0.16561  0.28730  1.0000
  C   C1913     1.0  0.70500  0.15928  0.30848  1.0000
  C   C1914     1.0  0.72149  0.14409  0.31566  1.0000
  C   C1915     1.0  0.51052  0.33698  0.27961  1.0000
  C   C1916     1.0  0.83646  0.47681  0.24204  1.0000
  H   H1525     1.0  0.72700  0.24405  0.30475  1.0000
  C   C1917     1.0  0.65347  0.46555  0.44967  1.0000
  H   H1526     1.0  0.66916  0.37170  0.25568  1.0000
  C   C1918     1.0  0.74621  0.32354  0.25814  1.0000
  H   H1527     1.0  0.65612  0.45926  0.37983  1.0000
  H   H1528     1.0  0.81669  0.42262  0.47889  1.0000
  C   C1919     1.0  0.71444  0.05496  0.45563  1.0000
  H   H1529     1.0  0.95797  0.21310  0.44852  1.0000
  C   C1920     1.0  0.85837  0.02855  0.46369  1.0000
  C   C1921     1.0  0.93391  0.26325  0.24477  1.0000
  H   H1530     1.0  0.66260  0.14376  0.29533  1.0000
  H   H1531     1.0  0.62692  0.13615  0.31442  1.0000
  H   H1532     1.0  0.60055  0.16745  0.32354  1.0000
  H   H1533     1.0  0.61047  0.20654  0.31416  1.0000
  H   H1534     1.0  0.64585  0.21461  0.29503  1.0000
  H   H1535     1.0  0.69256  0.16594  0.31949  1.0000
  C   C1922     1.0  0.61938  0.03012  0.28192  1.0000
  S   S253      1.0  0.83626  0.05513  0.23870  1.0000
  H   H1536     1.0  0.78346  0.37622  0.29319  1.0000
  C   C1923     1.0  0.73773  0.14191  0.28084  1.0000
  C   C1924     1.0  0.65074  0.40300  0.25832  1.0000
  S   S254      1.0  0.74508  0.01422  0.38326  1.0000
  C   C1925     1.0  0.81455  0.15762  0.40202  1.0000
  C   C1926     1.0  0.90936  0.01995  0.48086  1.0000
  C   C1927     1.0  0.90322  0.15477  0.43624  1.0000
  H   H1537     1.0  0.51802  0.18076  0.27624  1.0000
  C   C1928     1.0  0.88850  0.14537  0.26083  1.0000
  H   H1538     1.0  0.59818  0.04537  0.30551  1.0000
  C   C1929     1.0  0.92603  0.14981  0.24591  1.0000
  H   H1539     1.0  0.96195  0.17675  0.26645  1.0000
  S   S255      1.0  0.84264  0.11199  0.45092  1.0000
  C   C1930     1.0  0.81251  0.16257  0.42297  1.0000
  C   C1931     1.0  0.71531  0.02144  0.43655  1.0000
  C   C1932     1.0  0.89629  0.17439  0.44577  1.0000
  C   C1933     1.0  0.66971  0.42550  0.38465  1.0000
  H   H1540     1.0  0.82720  0.16531  0.39172  1.0000
  C   C1934     1.0  0.73110  0.38987  0.43515  1.0000
  C   C1935     1.0  0.92123  0.17265  0.24130  1.0000
  C   C1936     1.0  0.70654  0.32615  0.28271  1.0000
  S   S256      1.0  0.87420  0.38097  0.45646  1.0000
  H   H1541     1.0  0.77538  0.99758  0.23609  1.0000
  C   C1937     1.0  0.93093  0.44565  0.45684  1.0000
  C   C1938     1.0  0.51085  0.19114  0.28822  1.0000
  C   C1939     1.0  0.80458  0.23565  0.39831  1.0000
  P   P65       1.0  0.83070  0.18250  0.43248  1.0000
  H   H1542     1.0  0.69537  0.05115  0.42903  1.0000
  C   C1940     1.0  0.65547  0.44206  0.37574  1.0000
  H   H1543     1.0  0.84048  0.34826  0.45246  1.0000
  C   C1941     1.0  0.73025  0.04506  0.46867  1.0000
  H   H1544     1.0  0.67572  0.26673  0.26407  1.0000
  H   H1545     1.0  0.90744  0.18237  0.45533  1.0000
  H   H1546     1.0  0.71993  0.00622  0.28379  1.0000
  C   C1942     1.0  0.81704  0.21101  0.46403  1.0000
  H   H1547     1.0  0.61056  0.18663  0.25393  1.0000
  H   H1548     1.0  0.80762  0.35950  0.23523  1.0000
  H   H1549     1.0  0.95468  0.17336  0.44072  1.0000
  H   H1550     1.0  0.71998  0.45791  0.42495  1.0000
  C   C1943     1.0  0.80797  0.43101  0.46635  1.0000
  H   H1551     1.0  0.75415  0.46428  0.23689  1.0000
  C   C1944     1.0  0.87307  0.00984  0.29399  1.0000
  C   C1945     1.0  0.65197  0.42614  0.25898  1.0000
  H   H1552     1.0  0.93818  0.35641  0.28034  1.0000
  C   C1946     1.0  0.70232  0.25787  0.28433  1.0000
  C   C1947     1.0  0.73898  0.02334  0.46556  1.0000
  H   H1553     1.0  0.98472  0.10336  0.47505  1.0000
  H   H1554     1.0  0.89346  0.12837  0.41792  1.0000
  H   H1555     1.0  0.95213  0.14423  0.46929  1.0000
  C   C1948     1.0  0.51327  0.20558  0.23902  1.0000
  C   C1949     1.0  0.72643  0.09836  0.23960  1.0000
  H   H1556     1.0  0.84585  0.05896  0.44865  1.0000
  P   P66       1.0  0.94760  0.46074  0.47323  1.0000
  H   H1557     1.0  0.78810  0.24204  0.39448  1.0000
  H   H1558     1.0  0.75056  0.12351  0.30740  1.0000
  C   C1950     1.0  0.72617  0.31773  0.25004  1.0000
  H   H1559     1.0  0.63467  0.39533  0.25999  1.0000
  H   H1560     1.0  0.77590  0.00910  0.43907  1.0000
  H   H1561     1.0  0.50870  0.19262  0.34065  1.0000
  C   C1951     1.0  0.49664  0.26352  0.23714  1.0000
  C   C1952     1.0  0.82140  0.46003  0.24725  1.0000
  H   H1562     1.0  0.63786  0.41270  0.46362  1.0000
  C   C1953     1.0  0.82472  0.17220  0.47472  1.0000
  C   C1954     1.0  0.74358  0.04588  0.23831  1.0000
  C   C1955     1.0  0.96611  0.48074  0.43635  1.0000
  H   H1563     1.0  0.63119  0.22120  0.24493  1.0000
  C   C1956     1.0  0.78906  0.14304  0.23837  1.0000
  H   H1564     1.0  0.73589  0.05465  0.48080  1.0000
  H   H1565     1.0  0.65088  0.48255  0.45440  1.0000
  H   H1566     1.0  0.56486  0.02254  0.25431  1.0000
  C   C1957     1.0  0.84330  0.48841  0.46192  1.0000
  S   S257      1.0  0.56754  0.13081  0.24238  1.0000
  C   C1958     1.0  0.50788  0.35644  0.26686  1.0000
  H   H1567     1.0  0.69049  0.31497  0.25701  1.0000
  C   C1959     1.0  0.98705  0.48377  0.46678  1.0000
  H   H1568     1.0  0.75117  0.27199  0.24114  1.0000
  H   H1569     1.0  0.91086  0.01696  0.46453  1.0000
  H   H1570     1.0  0.76750  0.42569  0.24560  1.0000
  H   H1571     1.0  0.52725  0.24587  0.27813  1.0000
  C   C1960     1.0  0.95168  0.28798  0.45358  1.0000
  H   H1572     1.0  0.89475  0.19848  0.24154  1.0000
  C   C1961     1.0  0.49586  0.34833  0.33053  1.0000
  H   H1573     1.0  0.79562  0.48248  0.44377  1.0000
  C   C1962     1.0  0.96156  0.41027  0.25425  1.0000
  C   C1963     1.0  0.73310  0.49176  0.38264  1.0000
  H   H1574     1.0  0.96935  0.21821  0.25123  1.0000
  C   C1964     1.0  0.95756  0.20618  0.48150  1.0000
  H   H1575     1.0  0.85858  0.43698  0.46831  1.0000
  H   H1576     1.0  0.87378  0.22952  0.47364  1.0000
  H   H1577     1.0  0.49693  0.40261  0.31249  1.0000
  H   H1578     1.0  0.98900  0.48064  0.48314  1.0000
  C   C1965     1.0  0.53612  0.20309  0.24242  1.0000
  H   H1579     1.0  0.86336  0.03713  0.47683  1.0000
  H   H1580     1.0  0.80429  0.43271  0.23684  1.0000
  C   C1966     1.0  0.70273  0.00129  0.28475  1.0000
  C   C1967     1.0  0.98217  0.49292  0.42456  1.0000
  H   H1581     1.0  0.80298  0.02851  0.47085  1.0000
  C   C1968     1.0  0.65114  0.05714  0.24027  1.0000
  C   C1969     1.0  0.93893  0.40605  0.25827  1.0000
  H   H1582     1.0  0.91144  0.38652  0.25075  1.0000
  C   C1970     1.0  0.96536  0.27137  0.44451  1.0000
  S   S258      1.0  0.89932  0.32450  0.48308  1.0000
  C   C1971     1.0  0.97450  0.39808  0.23968  1.0000
  C   C1972     1.0  0.49580  0.11812  0.26003  1.0000
  Fe  Fe128     1.0  0.87694  0.35549  0.48349  1.0000
  C   C1973     1.0  0.50417  0.28530  0.23421  1.0000
  C   C1974     1.0  0.77077  0.01519  0.23413  1.0000
  S   S259      1.0  0.78705  0.45554  0.56812  1.0000
  C   C1975     1.0  0.85748  0.43830  0.48494  1.0000
  S   S260      1.0  0.83840  0.11683  0.51422  1.0000
  C   C1976     1.0  0.80800  0.05326  0.49240  1.0000
  Fe  Fe129     1.0  0.90242  0.10832  0.50037  1.0000
  S   S261      1.0  0.88856  0.11317  0.53268  1.0000
  H   H1583     1.0  0.77304  0.46793  0.72956  1.0000
  Fe  Fe130     1.0  0.86209  0.08922  0.52598  1.0000
  S   S262      1.0  0.85792  0.05768  0.54743  1.0000
  Fe  Fe131     1.0  0.86621  0.14044  0.51831  1.0000
  S   S263      1.0  0.86137  0.17458  0.53277  1.0000
  H   H1584     1.0  0.98801  0.32535  0.54185  1.0000
  H   H1585     1.0  0.90363  0.21749  0.55680  1.0000
  Fe  Fe132     1.0  0.86298  0.34895  0.52887  1.0000
  S   S264      1.0  0.89106  0.36718  0.51224  1.0000
  S   S265      1.0  0.84710  0.36521  0.55766  1.0000
  Fe  Fe133     1.0  0.87124  0.30774  0.50169  1.0000
  H   H1586     1.0  0.82395  0.28825  0.67422  1.0000
  H   H1587     1.0  0.70312  0.47193  0.65458  1.0000
  Fe  Fe134     1.0  0.91056  0.33453  0.51343  1.0000
  S   S266      1.0  0.94483  0.32758  0.52596  1.0000
  S   S267      1.0  0.86623  0.27313  0.48955  1.0000
  H   H1588     1.0  0.80203  0.27512  0.64634  1.0000
  S   S268      1.0  0.88357  0.31649  0.53213  1.0000
  S   S269      1.0  0.84783  0.33853  0.49995  1.0000
  C   C1977     1.0  0.90151  0.20994  0.58969  1.0000
  C   C1978     1.0  0.91983  0.04106  0.50928  1.0000
  C   C1979     1.0  0.86440  0.20177  0.52055  1.0000
  C   C1980     1.0  0.86078  0.22059  0.53249  1.0000
  C   C1981     1.0  0.86205  0.24248  0.52336  1.0000
  C   C1982     1.0  0.86650  0.24587  0.50207  1.0000
  C   C1983     1.0  0.81396  0.19902  0.50033  1.0000
  C   C1984     1.0  0.86962  0.20516  0.49933  1.0000
  H   H1589     1.0  0.85660  0.21819  0.54888  1.0000
  H   H1590     1.0  0.76815  0.99842  0.52638  1.0000
  C   C1985     1.0  0.90886  0.47298  0.49649  1.0000
  C   C1986     1.0  0.90479  0.02937  0.52262  1.0000
  C   C1987     1.0  0.98054  0.11129  0.53392  1.0000
  C   C1988     1.0  0.96095  0.10942  0.52330  1.0000
  C   C1989     1.0  0.96237  0.10633  0.50205  1.0000
  C   C1990     1.0  0.82391  0.00475  0.57357  1.0000
  C   C1991     1.0  0.89411  0.21750  0.60899  1.0000
  H   H1591     1.0  0.97934  0.11329  0.55041  1.0000
  H   H1592     1.0  0.94481  0.11005  0.53159  1.0000
  C   C1992     1.0  0.92914  0.26655  0.53709  1.0000
  H   H1593     1.0  0.91251  0.28042  0.57925  1.0000
  C   C1993     1.0  0.92218  0.03629  0.48844  1.0000
  C   C1994     1.0  0.95410  0.16737  0.49322  1.0000
  C   C1995     1.0  0.97006  0.33905  0.51597  1.0000
  C   C1996     1.0  0.81997  0.17717  0.49533  1.0000
  C   C1997     1.0  0.81715  0.26065  0.55603  1.0000
  H   H1594     1.0  0.98660  0.27740  0.54722  1.0000
  Fe  Fe135     1.0  0.78277  0.48513  0.58951  1.0000
  C   C1998     1.0  0.97170  0.35154  0.49710  1.0000
  H   H1595     1.0  0.83728  0.24467  0.57923  1.0000
  C   C1999     1.0  0.80529  0.43141  0.56511  1.0000
  C   C2000     1.0  0.81900  0.42277  0.58064  1.0000
  C   C2001     1.0  0.83196  0.40277  0.57795  1.0000
  C   C2002     1.0  0.83194  0.39143  0.55951  1.0000
  C   C2003     1.0  0.81876  0.40044  0.54374  1.0000
  C   C2004     1.0  0.80532  0.42006  0.54667  1.0000
  H   H1596     1.0  0.81907  0.43110  0.59498  1.0000
  H   H1597     1.0  0.84187  0.39591  0.59037  1.0000
  H   H1598     1.0  0.81832  0.39191  0.52954  1.0000
  H   H1599     1.0  0.79469  0.42637  0.53460  1.0000
  C   C2005     1.0  0.79622  0.03319  0.56400  1.0000
  C   C2006     1.0  0.81323  0.04763  0.55654  1.0000
  C   C2007     1.0  0.83566  0.04047  0.55696  1.0000
  C   C2008     1.0  0.84086  0.01902  0.56574  1.0000
  C   C2009     1.0  0.98348  0.10569  0.49149  1.0000
  H   H1600     1.0  0.80903  0.06446  0.55089  1.0000
  H   H1601     1.0  0.85814  0.01335  0.56647  1.0000
  H   H1602     1.0  0.80933  0.24535  0.55287  1.0000
  C   C2010     1.0  0.89399  0.00828  0.49412  1.0000
  H   H1603     1.0  0.98843  0.39290  0.52553  1.0000
  H   H1604     1.0  0.86055  0.48709  0.71181  1.0000
  H   H1605     1.0  0.95343  0.15427  0.50543  1.0000
  H   H1606     1.0  0.95880  0.14139  0.58360  1.0000
  H   H1607     1.0  0.95700  0.35502  0.48841  1.0000
  H   H1608     1.0  0.77894  0.03886  0.56341  1.0000
  H   H1609     1.0  0.79956  0.28075  0.53312  1.0000
  H   H1610     1.0  0.92925  0.05425  0.51497  1.0000
  C   C2011     1.0  0.85407  0.29159  0.65477  1.0000
  C   C2012     1.0  0.94731  0.22370  0.52958  1.0000
  P   P67       1.0  0.96042  0.19685  0.52390  1.0000
  H   H1611     1.0  0.81115  0.20290  0.51641  1.0000
  C   C2013     1.0  0.89424  0.48801  0.50665  1.0000
  H   H1612     1.0  0.96583  0.22736  0.55675  1.0000
  H   H1613     1.0  0.91493  0.18121  0.52924  1.0000
  C   C2014     1.0  0.92152  0.25480  0.52112  1.0000
  H   H1614     1.0  0.88452  0.35839  0.58817  1.0000
  H   H1615     1.0  0.86365  0.29731  0.66696  1.0000
  H   H1616     1.0  0.79101  0.46019  0.51116  1.0000
  C   C2015     1.0  0.76583  0.04322  0.51001  1.0000
  H   H1617     1.0  0.93244  0.43696  0.51258  1.0000
  C   C2016     1.0  0.82195  0.30020  0.54881  1.0000
  H   H1618     1.0  0.98716  0.26900  0.51051  1.0000
  S   S270      1.0  0.87763  0.08281  0.49434  1.0000
  C   C2017     1.0  0.84387  0.27995  0.57471  1.0000
  H   H1619     1.0  0.95002  0.40729  0.53449  1.0000
  C   C2018     1.0  0.87984  0.25219  0.59246  1.0000
  C   C2019     1.0  0.92671  0.14609  0.57050  1.0000
  C   C2020     1.0  0.77477  0.03147  0.49313  1.0000
  H   H1620     1.0  0.80871  0.23304  0.48869  1.0000
  C   C2021     1.0  0.86923  0.42484  0.51866  1.0000
  C   C2022     1.0  0.76444  0.48006  0.67881  1.0000
  C   C2023     1.0  0.99255  0.35930  0.48938  1.0000
  C   C2024     1.0  0.83314  0.26033  0.57090  1.0000
  C   C2025     1.0  0.91256  0.33693  0.57888  1.0000
  H   H1621     1.0  0.81770  0.31572  0.54024  1.0000
  C   C2026     1.0  0.89074  0.34129  0.58661  1.0000
  H   H1622     1.0  0.88144  0.29335  0.63204  1.0000
  C   C2027     1.0  0.87077  0.42385  0.49715  1.0000
  H   H1623     1.0  0.89692  0.15434  0.55442  1.0000
  C   C2028     1.0  0.85169  0.28224  0.61901  1.0000
  C   C2029     1.0  0.83788  0.29995  0.56369  1.0000
  C   C2030     1.0  0.87653  0.32368  0.59156  1.0000
  H   H1624     1.0  0.93726  0.31164  0.57041  1.0000
  C   C2031     1.0  0.85472  0.44060  0.52792  1.0000
  H   H1625     1.0  0.66488  0.45930  0.66393  1.0000
  H   H1626     1.0  0.85891  0.25680  0.53258  1.0000
  H   H1627     1.0  0.92338  0.35061  0.57446  1.0000
  C   C2032     1.0  0.94923  0.15032  0.57186  1.0000
  C   C2033     1.0  0.88756  0.24454  0.57318  1.0000
  H   H1628     1.0  0.91874  0.13389  0.58114  1.0000
  C   C2034     1.0  0.99265  0.41508  0.49841  1.0000
  C   C2035     1.0  0.70453  0.49099  0.68155  1.0000
  C   C2036     1.0  0.90612  0.29726  0.58131  1.0000
  H   H1629     1.0  0.89654  0.20691  0.62284  1.0000
  H   H1630     1.0  0.88514  0.25484  0.55917  1.0000
  H   H1631     1.0  0.85954  0.32749  0.59723  1.0000
  C   C2037     1.0  0.92034  0.31491  0.57651  1.0000
  H   H1632     1.0  0.81942  0.27113  0.61140  1.0000
  C   C2038     1.0  0.95929  0.41451  0.52107  1.0000
  C   C2039     1.0  0.95370  0.23499  0.54652  1.0000
  H   H1633     1.0  0.84549  0.31546  0.56623  1.0000
  H   H1634     1.0  0.90958  0.19351  0.58854  1.0000
  C   C2040     1.0  0.89824  0.22348  0.57180  1.0000
  C   C2041     1.0  0.97775  0.47843  0.52654  1.0000
  C   C2042     1.0  0.80143  0.01160  0.57249  1.0000
  C   C2043     1.0  0.67128  0.49167  0.70464  1.0000
  H   H1635     1.0  0.87741  0.24391  0.62548  1.0000
  H   H1636     1.0  0.95007  0.26528  0.56297  1.0000
  C   C2044     1.0  0.92473  0.17277  0.54109  1.0000
  H   H1637     1.0  0.85325  0.44115  0.54463  1.0000
  H   H1638     1.0  0.87234  0.19087  0.48996  1.0000
  C   C2045     1.0  0.92900  0.48020  0.48680  1.0000
  C   C2046     1.0  0.77714  0.49127  0.52182  1.0000
  H   H1639     1.0  0.92343  0.22424  0.50557  1.0000
  C   C2047     1.0  0.84224  0.45364  0.49418  1.0000
  C   C2048     1.0  0.86407  0.28940  0.63495  1.0000
  C   C2049     1.0  0.69441  0.47689  0.66882  1.0000
  C   C2050     1.0  0.94476  0.25642  0.55015  1.0000
  C   C2051     1.0  0.81937  0.27909  0.64316  1.0000
  C   C2052     1.0  0.83172  0.28648  0.65887  1.0000
  H   H1640     1.0  0.83017  0.46694  0.52347  1.0000
  C   C2053     1.0  0.81168  0.28055  0.54488  1.0000
  C   C2054     1.0  0.89189  0.01305  0.51513  1.0000
  H   H1641     1.0  0.87893  0.41315  0.52824  1.0000
  C   C2055     1.0  0.77783  0.05999  0.51783  1.0000
  H   H1642     1.0  0.82426  0.05744  0.48556  1.0000
  C   C2056     1.0  0.93018  0.23326  0.51762  1.0000
  C   C2057     1.0  0.95953  0.16585  0.55793  1.0000
  H   H1643     1.0  0.88188  0.41155  0.48987  1.0000
  C   C2058     1.0  0.77164  0.47789  0.71519  1.0000
  C   C2059     1.0  0.80482  0.48837  0.49314  1.0000
  C   C2060     1.0  0.84130  0.45502  0.51577  1.0000
  H   H1644     1.0  0.77093  0.06896  0.53090  1.0000
  C   C2061     1.0  0.88326  0.23854  0.61041  1.0000
  C   C2062     1.0  0.66128  0.47728  0.69187  1.0000
  H   H1645     1.0  0.90247  0.03355  0.53867  1.0000
  H   H1646     1.0  0.76706  0.48333  0.53434  1.0000
  C   C2063     1.0  0.82931  0.27689  0.62331  1.0000
  C   C2064     1.0  0.88390  0.30154  0.58837  1.0000
  H   H1647     1.0  0.92268  0.28341  0.53947  1.0000
  C   C2065     1.0  0.91444  0.15752  0.55530  1.0000
  C   C2066     1.0  0.94744  0.17690  0.54219  1.0000
  H   H1648     1.0  0.90884  0.26244  0.51144  1.0000
  C   C2067     1.0  0.76561  0.46766  0.69763  1.0000
  H   H1649     1.0  0.74952  0.03954  0.51706  1.0000
  C   C2068     1.0  0.79892  0.06495  0.50905  1.0000
  P   P68       1.0  0.86497  0.27898  0.59364  1.0000
  H   H1650     1.0  0.80834  0.07782  0.51518  1.0000
  H   H1651     1.0  0.97693  0.16897  0.55954  1.0000
  H   H1652     1.0  0.87877  0.48236  0.51417  1.0000
  H   H1653     1.0  0.76215  0.45005  0.69849  1.0000
  C   C2069     1.0  0.94934  0.43141  0.50850  1.0000
  H   H1654     1.0  0.87985  0.00487  0.52574  1.0000
  C   C2070     1.0  0.99045  0.19562  0.52558  1.0000
  C   C2071     1.0  0.79079  0.47821  0.50866  1.0000
  C   C2072     1.0  0.98093  0.40638  0.51605  1.0000
  C   C2073     1.0  0.98923  0.33475  0.52714  1.0000
  H   H1655     1.0  0.96342  0.46847  0.53094  1.0000
  H   H1656     1.0  0.80685  0.00299  0.52733  1.0000
  H   H1657     1.0  0.98758  0.30633  0.48679  1.0000
  C   C2074     1.0  0.95604  0.18976  0.49780  1.0000
  H   H1658     1.0  0.75993  0.47208  0.66518  1.0000
  H   H1659     1.0  0.83422  0.01223  0.49892  1.0000
  C   C2075     1.0  0.67282  0.46996  0.67401  1.0000
  H   H1660     1.0  0.82168  0.16426  0.50756  1.0000
  C   C2076     1.0  0.87040  0.22708  0.49014  1.0000
  H   H1661     1.0  0.81975  0.49023  0.71069  1.0000
  H   H1662     1.0  0.64443  0.47200  0.69556  1.0000
  H   H1663     1.0  0.66325  0.45254  0.72817  1.0000
  S   S271      1.0  0.93840  0.10310  0.48800  1.0000
  H   H1664     1.0  0.90418  0.45583  0.49587  1.0000
  C   C2077     1.0  0.98271  0.43184  0.48572  1.0000
  S   S272      1.0  0.77225  0.48842  0.62325  1.0000
  S   S273      1.0  0.88182  0.13685  0.48651  1.0000
  C   C2078     1.0  0.96101  0.44037  0.49074  1.0000
  H   H1665     1.0  0.95945  0.22349  0.48462  1.0000
  H   H1666     1.0  0.99364  0.15983  0.52222  1.0000
  H   H1667     1.0  0.99394  0.23116  0.52763  1.0000
  C   C2079     1.0  0.83596  0.99633  0.50744  1.0000
  C   C2080     1.0  0.81260  0.21596  0.48470  1.0000
  C   C2081     1.0  0.79588  0.03680  0.48422  1.0000
  Fe  Fe136     1.0  0.59860  0.08608  0.92889  1.0000
  S   S274      1.0  0.57366  0.07170  0.95266  1.0000
  S   S275      1.0  0.60903  0.06516  0.90093  1.0000
  Fe  Fe137     1.0  0.59990  0.13053  0.95121  1.0000
  C   C2082     1.0  0.60199  0.48011  0.94746  1.0000
  S   S276      1.0  0.61311  0.16496  0.95747  1.0000
  H   H1668     1.0  0.59649  0.48361  0.85928  1.0000
  C   C2083     1.0  0.65025  0.02751  0.97711  1.0000
  Fe  Fe138     1.0  0.55643  0.10556  0.95129  1.0000
  S   S277      1.0  0.51976  0.11335  0.95878  1.0000
  S   S278      1.0  0.62108  0.09807  0.95233  1.0000
  S   S279      1.0  0.57943  0.11974  0.92570  1.0000
  Fe  Fe139     1.0  0.59732  0.30219  0.94461  1.0000
  H   H1669     1.0  0.58905  0.41403  0.87880  1.0000
  S   S280      1.0  0.59275  0.26843  0.93013  1.0000
  Fe  Fe140     1.0  0.60459  0.35342  0.93560  1.0000
  S   S281      1.0  0.59266  0.36084  0.96813  1.0000
  S   S282      1.0  0.60972  0.38648  0.91645  1.0000
  S   S283      1.0  0.52963  0.34365  0.97653  1.0000
  C   C2084     1.0  0.59677  0.42708  0.86903  1.0000
  Fe  Fe141     1.0  0.56560  0.33676  0.96467  1.0000
  C   C2085     1.0  0.69965  0.07379  0.94873  1.0000
  S   S284      1.0  0.62719  0.32411  0.94536  1.0000
  S   S285      1.0  0.57583  0.33113  0.93167  1.0000
  S   S286      1.0  0.68432  0.44354  0.86546  1.0000
  C   C2086     1.0  0.58089  0.00730  0.95469  1.0000
  C   C2087     1.0  0.50651  0.34388  0.96072  1.0000
  H   H1670     1.0  0.63966  0.43295  0.83276  1.0000
  H   H1671     1.0  0.52490  0.33309  0.93338  1.0000
  C   C2088     1.0  0.63235  0.40147  0.90426  1.0000
  C   C2089     1.0  0.64920  0.39123  0.89186  1.0000
  C   C2090     1.0  0.66523  0.40428  0.88050  1.0000
  C   C2091     1.0  0.66435  0.42776  0.88095  1.0000
  C   C2092     1.0  0.64771  0.43794  0.89361  1.0000
  C   C2093     1.0  0.63195  0.42486  0.90525  1.0000
  H   H1672     1.0  0.64948  0.37334  0.89052  1.0000
  H   H1673     1.0  0.67802  0.39617  0.87082  1.0000
  H   H1674     1.0  0.64692  0.45590  0.89430  1.0000
  H   H1675     1.0  0.61901  0.43291  0.91476  1.0000
  C   C2094     1.0  0.67140  0.01993  0.98325  1.0000
  H   H1676     1.0  0.51702  0.15949  0.95280  1.0000
  H   H1677     1.0  0.64827  0.04220  0.96677  1.0000
  H   H1678     1.0  0.51630  0.09329  0.91886  1.0000
  C   C2095     1.0  0.71456  0.49378  0.95932  1.0000
  C   C2096     1.0  0.60569  0.19358  0.95046  1.0000
  C   C2097     1.0  0.59224  0.19990  0.93400  1.0000
  C   C2098     1.0  0.58826  0.22280  0.92823  1.0000
  C   C2099     1.0  0.59726  0.23979  0.93900  1.0000
  C   C2100     1.0  0.60997  0.23346  0.95594  1.0000
  C   C2101     1.0  0.61429  0.21058  0.96147  1.0000
  H   H1679     1.0  0.58550  0.18715  0.92529  1.0000
  H   H1680     1.0  0.57848  0.22740  0.91506  1.0000
  H   H1681     1.0  0.61710  0.24619  0.96439  1.0000
  C   C2102     1.0  0.55216  0.48077  0.87881  1.0000
  H   H1682     1.0  0.62735  0.47280  0.83494  1.0000
  C   C2103     1.0  0.62651  0.02970  0.87882  1.0000
  C   C2104     1.0  0.62519  0.03959  0.89808  1.0000
  C   C2105     1.0  0.63669  0.02891  0.91428  1.0000
  C   C2106     1.0  0.58329  0.01217  0.93339  1.0000
  C   C2107     1.0  0.64942  0.00888  0.91111  1.0000
  H   H1683     1.0  0.61775  0.03775  0.86613  1.0000
  H   H1684     1.0  0.63582  0.03611  0.92922  1.0000
  C   C2108     1.0  0.55147  0.18152  0.98164  1.0000
  C   C2109     1.0  0.59282  0.99613  0.92048  1.0000
  H   H1685     1.0  0.50174  0.28613  0.95134  1.0000
  C   C2110     1.0  0.53488  0.27809  0.96086  1.0000
  C   C2111     1.0  0.52979  0.16133  0.92120  1.0000
  C   C2112     1.0  0.49980  0.09844  0.92483  1.0000
  C   C2113     1.0  0.52165  0.23367  0.96587  1.0000
  H   H1686     1.0  0.50220  0.41167  0.88881  1.0000
  C   C2114     1.0  0.67007  0.45850  0.94486  1.0000
  C   C2115     1.0  0.69752  0.43112  0.93202  1.0000
  H   H1687     1.0  0.65398  0.43430  0.79281  1.0000
  H   H1688     1.0  0.53195  0.22519  0.92662  1.0000
  C   C2116     1.0  0.62544  0.43755  0.84288  1.0000
  C   C2117     1.0  0.60111  0.46605  0.85816  1.0000
  C   C2118     1.0  0.53752  0.17521  0.90454  1.0000
  H   H1689     1.0  0.54362  0.16803  0.89023  1.0000
  C   C2119     1.0  0.54343  0.23906  0.96987  1.0000
  C   C2120     1.0  0.67643  0.38937  0.96101  1.0000
  H   H1690     1.0  0.71516  0.44056  0.90317  1.0000
  H   H1691     1.0  0.71255  0.48335  0.97338  1.0000
  C   C2121     1.0  0.69473  0.09642  0.94379  1.0000
  C   C2122     1.0  0.55922  0.41805  0.91243  1.0000
  C   C2123     1.0  0.54710  0.48091  0.85793  1.0000
  H   H1692     1.0  0.74263  0.49306  0.91218  1.0000
  C   C2124     1.0  0.51404  0.25784  0.89197  1.0000
  Fe  Fe142     1.0  0.61405  0.33108  0.97782  1.0000
  C   C2125     1.0  0.54644  0.39960  0.91842  1.0000
  C   C2126     1.0  0.64406  0.42341  0.97596  1.0000
  C   C2127     1.0  0.74716  0.48206  0.79441  1.0000
  P   P69       1.0  0.51405  0.20479  0.96660  1.0000
  S   S287      1.0  0.68382  0.49278  0.82324  1.0000
  H   H1693     1.0  0.54450  0.20896  0.89380  1.0000
  C   C2128     1.0  0.58083  0.47122  0.94955  1.0000
  C   C2129     1.0  0.53065  0.20743  0.92523  1.0000
  H   H1694     1.0  0.61111  0.47943  0.89544  1.0000
  H   H1695     1.0  0.52949  0.27037  0.86308  1.0000
  C   C2130     1.0  0.68970  0.06322  0.96662  1.0000
  C   C2131     1.0  0.67579  0.07588  0.97999  1.0000
  C   C2132     1.0  0.70584  0.00923  0.91638  1.0000
  H   H1696     1.0  0.61496  0.02270  0.98025  1.0000
  C   C2133     1.0  0.63916  0.00959  0.87570  1.0000
  C   C2134     1.0  0.72323  0.00112  0.95526  1.0000
  C   C2135     1.0  0.70742  0.01876  0.95217  1.0000
  C   C2136     1.0  0.69837  0.02233  0.93272  1.0000
  C   C2137     1.0  0.67317  0.38400  0.94065  1.0000
  C   C2138     1.0  0.65422  0.44702  0.78026  1.0000
  H   H1697     1.0  0.66897  0.39693  0.92908  1.0000
  C   C2139     1.0  0.54986  0.26118  0.96760  1.0000
  C   C2140     1.0  0.55155  0.43449  0.89796  1.0000
  P   P70       1.0  0.67309  0.41808  0.96829  1.0000
  C   C2141     1.0  0.58150  0.46723  0.91241  1.0000
  C   C2142     1.0  0.50866  0.33780  0.94018  1.0000
  H   H1698     1.0  0.61990  0.40372  0.85437  1.0000
  C   C2143     1.0  0.53793  0.19826  0.90655  1.0000
  C   C2144     1.0  0.68063  0.43718  0.94675  1.0000
  H   H1699     1.0  0.54018  0.29518  0.95862  1.0000
  C   C2145     1.0  0.68039  0.10876  0.95695  1.0000
  C   C2146     1.0  0.68233  0.34977  0.97030  1.0000
  H   H1700     1.0  0.67226  0.35779  0.91939  1.0000
  H   H1701     1.0  0.67638  0.12625  0.95305  1.0000
  Fe  Fe143     1.0  0.59513  0.08519  0.97585  1.0000
  H   H1702     1.0  0.73810  0.47529  0.80813  1.0000
  H   H1703     1.0  0.51599  0.38300  0.91464  1.0000
  H   H1704     1.0  0.69860  0.01191  0.90144  1.0000
  H   H1705     1.0  0.72466  0.00097  0.80063  1.0000
  H   H1706     1.0  0.71568  0.00323  0.76368  1.0000
  H   H1707     1.0  0.72954  0.99718  0.97040  1.0000
  H   H1708     1.0  0.68516  0.03492  0.93023  1.0000
  C   C2147     1.0  0.51809  0.41358  0.89545  1.0000
  C   C2148     1.0  0.60238  0.47701  0.91038  1.0000
  C   C2149     1.0  0.67498  0.36180  0.93509  1.0000
  H   H1709     1.0  0.71126  0.06473  0.93861  1.0000
  C   C2150     1.0  0.72882  0.48608  0.94320  1.0000
  C   C2151     1.0  0.51418  0.26481  0.87105  1.0000
  C   C2152     1.0  0.65516  0.48017  0.74782  1.0000
  S   S288      1.0  0.58587  0.30738  0.97766  1.0000
  C   C2153     1.0  0.70290  0.44567  0.91507  1.0000
  H   H1710     1.0  0.68052  0.32743  0.94571  1.0000
  C   C2154     1.0  0.69194  0.46658  0.91303  1.0000
  H   H1711     1.0  0.55584  0.22626  0.97408  1.0000
  C   C2155     1.0  0.59022  0.44966  0.87090  1.0000
  C   C2156     1.0  0.51319  0.27292  0.95675  1.0000
  H   H1712     1.0  0.57526  0.41937  0.91897  1.0000
  H   H1713     1.0  0.69591  0.47765  0.89972  1.0000
  H   H1714     1.0  0.71880  0.48291  0.77569  1.0000
  C   C2157     1.0  0.60490  0.41881  0.97043  1.0000
  P   P71       1.0  0.56875  0.45785  0.89000  1.0000
  H   H1715     1.0  0.55271  0.38684  0.92941  1.0000
  H   H1716     1.0  0.55940  0.18457  0.96636  1.0000
  H   H1717     1.0  0.73738  0.46988  0.94487  1.0000
  C   C2158     1.0  0.61432  0.42109  0.85507  1.0000
  C   C2159     1.0  0.52252  0.17046  0.93986  1.0000
  H   H1718     1.0  0.68498  0.33641  0.98198  1.0000
  H   H1719     1.0  0.57830  0.02856  0.92685  1.0000
  C   C2160     1.0  0.67965  0.34469  0.94989  1.0000
  H   H1720     1.0  0.55269  0.46713  0.84857  1.0000
  H   H1721     1.0  0.52982  0.14338  0.91984  1.0000
  C   C2161     1.0  0.53093  0.43203  0.88935  1.0000
  C   C2162     1.0  0.52272  0.19357  0.94201  1.0000
  S   S289      1.0  0.57591  0.11779  0.97654  1.0000
  C   C2163     1.0  0.61866  0.45999  0.84427  1.0000
  H   H1722     1.0  0.64594  0.47407  0.80014  1.0000
  H   H1723     1.0  0.52925  0.25810  0.90019  1.0000
  C   C2164     1.0  0.52583  0.39738  0.90999  1.0000
  H   H1724     1.0  0.64015  0.00248  0.86072  1.0000
  H   H1725     1.0  0.52474  0.44422  0.87793  1.0000
  H   H1726     1.0  0.65736  0.46378  0.95625  1.0000
  H   H1727     1.0  0.70629  0.41501  0.93337  1.0000
  C   C2165     1.0  0.64975  0.46939  0.78442  1.0000
  H   H1728     1.0  0.59519  0.00013  0.90401  1.0000
  Fe  Fe144     1.0  0.68220  0.48117  0.85702  1.0000
  C   C2166     1.0  0.61261  0.48326  0.92785  1.0000
  H   H1729     1.0  0.65829  0.00097  0.92371  1.0000
  H   H1730     1.0  0.66798  0.48969  0.92652  1.0000
  H   H1731     1.0  0.55419  0.45792  0.93406  1.0000
  H   H1732     1.0  0.62884  0.49045  0.92610  1.0000
  H   H1733     1.0  0.77796  0.48379  0.80947  1.0000
  P   P72       1.0  0.69605  0.03421  0.97368  1.0000
  C   C2167     1.0  0.65023  0.48589  0.76832  1.0000
  H   H1734     1.0  0.61013  0.48465  0.96101  1.0000
  H   H1735     1.0  0.63175  0.40494  0.95151  1.0000
  C   C2168     1.0  0.67116  0.09855  0.97517  1.0000
  H   H1736     1.0  0.59226  0.41189  0.96167  1.0000
  H   H1737     1.0  0.62474  0.20602  0.97419  1.0000
  C   C2169     1.0  0.68062  0.37196  0.97589  1.0000
  C   C2170     1.0  0.76961  0.48686  0.79517  1.0000
  C   C2171     1.0  0.67588  0.47319  0.92807  1.0000
  H   H1738     1.0  0.74464  0.03756  0.97277  1.0000
  H   H1739     1.0  0.71665  0.43897  0.96981  1.0000
  H   H1740     1.0  0.57387  0.01994  0.96472  1.0000
  H   H1741     1.0  0.70202  0.10442  0.92975  1.0000
  C   C2172     1.0  0.65094  0.99910  0.89181  1.0000
  H   H1742     1.0  0.57246  0.46906  0.96472  1.0000
  H   H1743     1.0  0.66245  0.42375  0.75669  1.0000
  C   C2173     1.0  0.57056  0.46487  0.93211  1.0000
  C   C2174     1.0  0.65902  0.44112  0.75992  1.0000
  C   C2175     1.0  0.49719  0.10885  0.94360  1.0000
  C   C2176     1.0  0.50651  0.25082  0.95937  1.0000
  C   C2177     1.0  0.65943  0.45758  0.74373  1.0000
  C   C2178     1.0  0.62743  0.41485  0.96468  1.0000
  H   H1744     1.0  0.56687  0.26504  0.97029  1.0000
  C   C2179     1.0  0.73626  0.48651  0.77612  1.0000
  S   S290      1.0  0.68313  0.95816  0.08358  1.0000
  Fe  Fe145     1.0  0.56567  0.61689  0.01602  1.0000
  S   S291      1.0  0.59442  0.62257  0.03576  1.0000
  S   S292      1.0  0.53095  0.61634  0.03206  1.0000
  H   H1745     1.0  0.60130  0.91818  0.13487  1.0000
  S   S293      1.0  0.62728  0.61633  0.99423  1.0000
  C   C2180     1.0  0.58140  0.58474  0.13368  1.0000
  Fe  Fe146     1.0  0.61234  0.59365  0.01998  1.0000
  S   S294      1.0  0.62644  0.55999  0.03388  1.0000
  Fe  Fe147     1.0  0.60691  0.64496  0.00860  1.0000
  S   S295      1.0  0.62277  0.67935  0.00912  1.0000
  S   S296      1.0  0.58248  0.58687  0.00213  1.0000
  H   H1746     1.0  0.71793  0.88750  0.21472  1.0000
  Fe  Fe148     1.0  0.62570  0.84990  0.99946  1.0000
  S   S297      1.0  0.62991  0.83476  0.03170  1.0000
  H   H1747     1.0  0.54968  0.54748  0.11201  1.0000
  Fe  Fe149     1.0  0.57490  0.85573  0.00639  1.0000
  S   S298      1.0  0.57623  0.84202  0.03913  1.0000
  C   C2181     1.0  0.52445  0.67492  0.04774  1.0000
  Fe  Fe150     1.0  0.60638  0.86327  0.04120  1.0000
  S   S299      1.0  0.60936  0.88742  0.06738  1.0000
  Fe  Fe151     1.0  0.59963  0.81495  0.02610  1.0000
  S   S300      1.0  0.58928  0.77844  0.03350  1.0000
  S   S301      1.0  0.60322  0.87868  0.00910  1.0000
  S   S302      1.0  0.59738  0.82854  0.99325  1.0000
  H   H1748     1.0  0.65529  0.80469  0.99647  1.0000
  H   H1749     1.0  0.52878  0.83551  0.02430  1.0000
  C   C2182     1.0  0.61251  0.70705  0.01470  1.0000
  C   C2183     1.0  0.59094  0.71149  0.02321  1.0000
  C   C2184     1.0  0.58406  0.73343  0.02847  1.0000
  C   C2185     1.0  0.59851  0.75138  0.02516  1.0000
  C   C2186     1.0  0.61987  0.74706  0.01609  1.0000
  C   C2187     1.0  0.62679  0.72509  0.01101  1.0000
  H   H1750     1.0  0.57980  0.69786  0.02621  1.0000
  H   H1751     1.0  0.56753  0.73649  0.03547  1.0000
  H   H1752     1.0  0.63135  0.76047  0.01366  1.0000
  H   H1753     1.0  0.56909  0.60748  0.15661  1.0000
  C   C2188     1.0  0.66154  0.94014  0.07786  1.0000
  C   C2189     1.0  0.66643  0.92339  0.06372  1.0000
  C   C2190     1.0  0.65054  0.90760  0.05986  1.0000
  C   C2191     1.0  0.62959  0.90793  0.07050  1.0000
  C   C2192     1.0  0.62457  0.92488  0.08444  1.0000
  C   C2193     1.0  0.64029  0.94100  0.08793  1.0000
  H   H1754     1.0  0.68278  0.92244  0.05584  1.0000
  H   H1755     1.0  0.65472  0.89481  0.04902  1.0000
  H   H1756     1.0  0.60842  0.92546  0.09267  1.0000
  H   H1757     1.0  0.63625  0.95369  0.09885  1.0000
  C   C2194     1.0  0.66428  0.55221  0.05709  1.0000
  C   C2195     1.0  0.64603  0.54325  0.04846  1.0000
  C   C2196     1.0  0.64305  0.52010  0.05148  1.0000
  C   C2197     1.0  0.67879  0.56870  0.99286  1.0000
  H   H1758     1.0  0.66708  0.56987  0.05472  1.0000
  H   H1759     1.0  0.62928  0.51282  0.04464  1.0000
  C   C2198     1.0  0.67901  0.53828  0.06881  1.0000
  H   H1760     1.0  0.72270  0.50560  0.04347  1.0000
  C   C2199     1.0  0.57974  0.52463  0.05249  1.0000
  C   C2200     1.0  0.56513  0.54051  0.04336  1.0000
  C   C2201     1.0  0.56001  0.56062  0.05272  1.0000
  C   C2202     1.0  0.56962  0.56497  0.07112  1.0000
  C   C2203     1.0  0.58438  0.54912  0.08038  1.0000
  C   C2204     1.0  0.58936  0.52890  0.07093  1.0000
  P   P73       1.0  0.59724  0.55520  0.10383  1.0000
  C   C2205     1.0  0.57612  0.56779  0.12094  1.0000
  C   C2206     1.0  0.60813  0.52954  0.11619  1.0000
  C   C2207     1.0  0.62968  0.52136  0.11039  1.0000
  C   C2208     1.0  0.65431  0.98935  0.00375  1.0000
  H   H1761     1.0  0.61847  0.98891  0.00402  1.0000
  C   C2209     1.0  0.59526  0.51738  0.13134  1.0000
  C   C2210     1.0  0.61979  0.57406  0.09820  1.0000
  C   C2211     1.0  0.63840  0.50163  0.11985  1.0000
  C   C2212     1.0  0.51262  0.71260  0.05583  1.0000
  C   C2213     1.0  0.63807  0.60249  0.07584  1.0000
  C   C2214     1.0  0.62059  0.58796  0.08005  1.0000
  H   H1762     1.0  0.58404  0.50922  0.04505  1.0000
  H   H1763     1.0  0.55802  0.53745  0.02887  1.0000
  H   H1764     1.0  0.54890  0.57304  0.04549  1.0000
  H   H1765     1.0  0.56580  0.58087  0.07789  1.0000
  H   H1766     1.0  0.65256  0.93328  0.22989  1.0000
  H   H1767     1.0  0.54102  0.81059  0.98623  1.0000
  H   H1768     1.0  0.57851  0.52307  0.13597  1.0000
  C   C2215     1.0  0.59976  0.94030  0.98821  1.0000
  H   H1769     1.0  0.63871  0.61287  0.06160  1.0000
  H   H1770     1.0  0.60804  0.58737  0.06885  1.0000
  C   C2216     1.0  0.69735  0.85161  0.12824  1.0000
  C   C2217     1.0  0.68887  0.85354  0.10858  1.0000
  C   C2218     1.0  0.67836  0.87356  0.10166  1.0000
  C   C2219     1.0  0.67621  0.89162  0.11440  1.0000
  C   C2220     1.0  0.68421  0.88970  0.13437  1.0000
  C   C2221     1.0  0.69512  0.86963  0.14109  1.0000
  P   P74       1.0  0.68105  0.91310  0.15083  1.0000
  C   C2222     1.0  0.65455  0.92767  0.14679  1.0000
  C   C2223     1.0  0.68140  0.90268  0.17753  1.0000
  C   C2224     1.0  0.70178  0.89869  0.18695  1.0000
  C   C2225     1.0  0.70214  0.89047  0.20754  1.0000
  C   C2226     1.0  0.68218  0.88591  0.21883  1.0000
  C   C2227     1.0  0.66185  0.88949  0.20950  1.0000
  C   C2228     1.0  0.66143  0.89779  0.18892  1.0000
  C   C2229     1.0  0.63588  0.91591  0.14215  1.0000
  C   C2230     1.0  0.61548  0.92731  0.13887  1.0000
  C   C2231     1.0  0.61356  0.95049  0.14015  1.0000
  C   C2232     1.0  0.63200  0.96226  0.14487  1.0000
  C   C2233     1.0  0.65233  0.95088  0.14840  1.0000
  C   C2234     1.0  0.70341  0.93210  0.14474  1.0000
  C   C2235     1.0  0.71315  0.93427  0.12456  1.0000
  C   C2236     1.0  0.72984  0.94957  0.11966  1.0000
  C   C2237     1.0  0.69101  0.50859  0.00140  1.0000
  C   C2238     1.0  0.52962  0.69693  0.05074  1.0000
  C   C2239     1.0  0.71049  0.94570  0.15986  1.0000
  H   H1771     1.0  0.70564  0.83611  0.13353  1.0000
  H   H1772     1.0  0.69047  0.83957  0.09865  1.0000
  H   H1773     1.0  0.67180  0.87510  0.08640  1.0000
  H   H1774     1.0  0.66822  0.90707  0.10869  1.0000
  H   H1775     1.0  0.70184  0.86775  0.15621  1.0000
  H   H1776     1.0  0.71744  0.90178  0.17832  1.0000
  H   H1777     1.0  0.74957  0.97503  0.13093  1.0000
  C   C2240     1.0  0.61823  0.53063  0.98706  1.0000
  H   H1778     1.0  0.64552  0.90021  0.18196  1.0000
  H   H1779     1.0  0.63709  0.89798  0.14084  1.0000
  C   C2241     1.0  0.57690  0.93989  0.99414  1.0000
  S   S303      1.0  0.57714  0.64071  0.98990  1.0000
  H   H1780     1.0  0.66627  0.96028  0.15227  1.0000
  H   H1781     1.0  0.70748  0.92473  0.11235  1.0000
  C   C2242     1.0  0.51424  0.84141  0.01620  1.0000
  S   S304      1.0  0.69481  0.49839  0.08725  1.0000
  H   H1782     1.0  0.53033  0.59458  0.15771  1.0000
  H   H1783     1.0  0.70263  0.94511  0.17530  1.0000
  H   H1784     1.0  0.64639  0.88568  0.21818  1.0000
  H   H1785     1.0  0.51670  0.72974  0.05777  1.0000
  C   C2243     1.0  0.64090  0.52705  0.99041  1.0000
  H   H1786     1.0  0.55231  0.93532  0.01940  1.0000
  H   H1787     1.0  0.53377  0.66860  0.99704  1.0000
  C   C2244     1.0  0.56492  0.59436  0.14687  1.0000
  H   H1788     1.0  0.63003  0.98272  0.18426  1.0000
  H   H1789     1.0  0.63071  0.98028  0.14563  1.0000
  H   H1790     1.0  0.60636  0.53258  0.00014  1.0000
  C   C2245     1.0  0.64102  0.95600  0.20550  1.0000
  H   H1791     1.0  0.60330  0.98898  0.09535  1.0000
  C   C2246     1.0  0.55412  0.56059  0.12165  1.0000
  H   H1792     1.0  0.73254  0.97164  0.16646  1.0000
  H   H1793     1.0  0.63979  0.94314  0.19462  1.0000
  C   C2247     1.0  0.50201  0.72657  0.99694  1.0000
  H   H1794     1.0  0.58031  0.93158  0.04629  1.0000
  H   H1795     1.0  0.71091  0.61407  0.99283  1.0000
  C   C2248     1.0  0.67577  0.51519  0.07213  1.0000
  H   H1796     1.0  0.52076  0.56460  0.13533  1.0000
  H   H1797     1.0  0.53141  0.79090  0.04611  1.0000
  H   H1798     1.0  0.49859  0.65150  0.04707  1.0000
  H   H1799     1.0  0.64616  0.52617  0.00613  1.0000
  C   C2249     1.0  0.51650  0.85705  0.99947  1.0000
  H   H1800     1.0  0.53758  0.66283  0.04337  1.0000
  C   C2250     1.0  0.53769  0.57023  0.13487  1.0000
  C   C2251     1.0  0.65764  0.50620  0.06334  1.0000
  C   C2252     1.0  0.73705  0.96273  0.13486  1.0000
  H   H1801     1.0  0.63307  0.93941  0.99977  1.0000
  H   H1802     1.0  0.62038  0.93473  0.03616  1.0000
  H   H1803     1.0  0.69299  0.54548  0.07542  1.0000
  H   H1804     1.0  0.52306  0.77921  0.01178  1.0000
  C   C2253     1.0  0.50169  0.68598  0.99852  1.0000
  C   C2254     1.0  0.50658  0.61191  0.99756  1.0000
  H   H1805     1.0  0.60098  0.51656  0.07747  1.0000
  C   C2255     1.0  0.54308  0.58711  0.14747  1.0000
  C   C2256     1.0  0.60824  0.93615  0.02444  1.0000
  C   C2257     1.0  0.52498  0.68478  0.99691  1.0000
  C   C2258     1.0  0.58558  0.93465  0.03015  1.0000
  C   C2259     1.0  0.56988  0.93667  0.01500  1.0000
  C   C2260     1.0  0.50657  0.61146  0.01913  1.0000
  C   C2261     1.0  0.65428  0.58949  0.10784  1.0000
  C   C2262     1.0  0.70678  0.51452  0.01504  1.0000
  C   C2263     1.0  0.50118  0.77814  0.06111  1.0000
  H   H1806     1.0  0.66863  0.61426  0.08623  1.0000
  C   C2264     1.0  0.61536  0.93877  0.00361  1.0000
  H   H1807     1.0  0.55910  0.77505  0.99985  1.0000
  H   H1808     1.0  0.50466  0.78376  0.07613  1.0000
  C   C2265     1.0  0.51622  0.78220  0.04422  1.0000
  H   H1809     1.0  0.55498  0.70339  0.99476  1.0000
  H   H1810     1.0  0.63979  0.53024  0.09853  1.0000
  H   H1811     1.0  0.59817  0.59065  0.13345  1.0000
  H   H1812     1.0  0.63648  0.56454  0.12630  1.0000
  C   C2266     1.0  0.64431  0.98956  0.23350  1.0000
  H   H1813     1.0  0.66747  0.58990  0.11849  1.0000
  H   H1814     1.0  0.54677  0.70188  0.04895  1.0000
  C   C2267     1.0  0.63673  0.57505  0.11216  1.0000
  H   H1815     1.0  0.52190  0.61476  0.98837  1.0000
  C   C2268     1.0  0.72741  0.96077  0.15496  1.0000
  H   H1816     1.0  0.59787  0.95937  0.13725  1.0000
  H   H1817     1.0  0.73668  0.95167  0.10388  1.0000
  C   C2269     1.0  0.65495  0.60321  0.08969  1.0000
  H   H1818     1.0  0.71569  0.52980  0.01236  1.0000
  C   C2270     1.0  0.71104  0.50075  0.03256  1.0000
  H   H1819     1.0  0.64354  0.72197  0.00452  1.0000
  C   C2271     1.0  0.52546  0.72519  0.99585  1.0000
  C   C2272     1.0  0.53688  0.70438  0.99568  1.0000
  H   H1820     1.0  0.66237  0.56362  0.99842  1.0000
  H   H1821     1.0  0.67346  0.60128  0.00493  1.0000
  C   C2273     1.0  0.63706  0.99489  0.21356  1.0000
  C   C2274     1.0  0.51153  0.77545  0.02473  1.0000
  C   C2275     1.0  0.63545  0.97821  0.19964  1.0000
  S   S305      1.0  0.54292  0.86729  0.99079  1.0000
  C   C2276     1.0  0.64818  0.95049  0.22535  1.0000
  Fe  Fe152     1.0  0.68395  0.99141  0.09978  1.0000
  H   H1822     1.0  0.65588  0.97466  0.01419  1.0000
  C   C2277     1.0  0.49734  0.86460  0.98921  1.0000
  C   C2278     1.0  0.68504  0.59020  0.99665  1.0000
  C   C2279     1.0  0.70619  0.59735  0.98993  1.0000
  H   H1823     1.0  0.53495  0.74020  0.99512  1.0000
  C   C2280     1.0  0.50231  0.66850  0.05001  1.0000
  H   H1824     1.0  0.79025  0.49638  0.15103  1.0000
  C   C2281     1.0  0.60400  0.49753  0.14069  1.0000
  H   H1825     1.0  0.65513  0.49556  0.11533  1.0000
  C   C2282     1.0  0.56443  0.78238  0.98486  1.0000
  H   H1826     1.0  0.68956  0.99415  0.00093  1.0000
  S   S306      1.0  0.78003  0.95781  0.39005  1.0000
  Fe  Fe153     1.0  0.91540  0.60556  0.43687  1.0000
  S   S307      1.0  0.88860  0.62031  0.41677  1.0000
  S   S308      1.0  0.95121  0.60731  0.42349  1.0000
  Fe  Fe154     1.0  0.88086  0.58978  0.47064  1.0000
  S   S309      1.0  0.85191  0.60391  0.45299  1.0000
  C   C2283     1.0  0.93537  0.73588  0.43298  1.0000
  Fe  Fe155     1.0  0.87003  0.58844  0.42531  1.0000
  S   S310      1.0  0.85920  0.56531  0.40047  1.0000
  Fe  Fe156     1.0  0.87320  0.63439  0.44608  1.0000
  S   S311      1.0  0.86195  0.67049  0.45397  1.0000
  S   S312      1.0  0.89816  0.57328  0.44356  1.0000
  S   S313      1.0  0.90094  0.62059  0.46573  1.0000
  H   H1827     1.0  0.88416  0.92597  0.37023  1.0000
  S   S314      1.0  0.84338  0.83214  0.44166  1.0000
  S   S315      1.0  0.93816  0.83338  0.47352  1.0000
  Fe  Fe157     1.0  0.90393  0.83464  0.45986  1.0000
  S   S316      1.0  0.89613  0.83321  0.42657  1.0000
  S   S317      1.0  0.88109  0.80715  0.47115  1.0000
  Fe  Fe158     1.0  0.86810  0.85898  0.43324  1.0000
  S   S318      1.0  0.86370  0.89288  0.41447  1.0000
  Fe  Fe159     1.0  0.87209  0.80645  0.43814  1.0000
  S   S319      1.0  0.87383  0.77328  0.42145  1.0000
  S   S320      1.0  0.87797  0.86200  0.46595  1.0000
  C   C2284     1.0  0.94238  0.77546  0.43013  1.0000
  C   C2285     1.0  0.86691  0.69885  0.44490  1.0000
  C   C2286     1.0  0.87672  0.70454  0.42527  1.0000
  C   C2287     1.0  0.87889  0.72728  0.41848  1.0000
  C   C2288     1.0  0.87174  0.74476  0.43127  1.0000
  C   C2289     1.0  0.86264  0.73903  0.45114  1.0000
  C   C2290     1.0  0.86009  0.71633  0.45777  1.0000
  H   H1828     1.0  0.88200  0.69145  0.41507  1.0000
  H   H1829     1.0  0.88594  0.73135  0.40309  1.0000
  H   H1830     1.0  0.85699  0.75212  0.46121  1.0000
  H   H1831     1.0  0.65550  0.96261  0.25459  1.0000
  C   C2291     1.0  0.88902  0.92815  0.45980  1.0000
  P   P75       1.0  0.86718  0.95935  0.33928  1.0000
  C   C2292     1.0  0.96408  0.83644  0.45935  1.0000
  H   H1832     1.0  0.73155  0.88257  0.45770  1.0000
  C   C2293     1.0  0.79818  0.98035  0.43752  1.0000
  C   C2294     1.0  0.81869  0.91334  0.35269  1.0000
  C   C2295     1.0  0.98647  0.84359  0.42738  1.0000
  C   C2296     1.0  0.82082  0.95820  0.33878  1.0000
  C   C2297     1.0  0.97501  0.61083  0.43755  1.0000
  C   C2298     1.0  0.97363  0.61276  0.45896  1.0000
  C   C2299     1.0  0.98095  0.55282  0.44989  1.0000
  H   H1833     1.0  0.81340  0.52024  0.47763  1.0000
  H   H1834     1.0  0.95747  0.61310  0.46722  1.0000
  C   C2300     1.0  0.81097  0.50839  0.39070  1.0000
  H   H1835     1.0  0.64058  0.98586  0.29032  1.0000
  C   C2301     1.0  0.84350  0.53029  0.38002  1.0000
  C   C2302     1.0  0.84053  0.54316  0.39760  1.0000
  C   C2303     1.0  0.82280  0.53821  0.41189  1.0000
  C   C2304     1.0  0.80807  0.52114  0.40835  1.0000
  H   H1836     1.0  0.85704  0.53392  0.36878  1.0000
  H   H1837     1.0  0.82015  0.54784  0.42547  1.0000
  H   H1838     1.0  0.79417  0.51799  0.41931  1.0000
  C   C2305     1.0  0.80354  0.94055  0.39780  1.0000
  C   C2306     1.0  0.82545  0.94780  0.39565  1.0000
  C   C2307     1.0  0.84351  0.93321  0.40128  1.0000
  C   C2308     1.0  0.84003  0.91113  0.40916  1.0000
  C   C2309     1.0  0.81808  0.90411  0.41182  1.0000
  C   C2310     1.0  0.80002  0.91871  0.40621  1.0000
  H   H1839     1.0  0.82853  0.96452  0.38930  1.0000
  H   H1840     1.0  0.86031  0.93903  0.39931  1.0000
  H   H1841     1.0  0.81503  0.88721  0.41771  1.0000
  H   H1842     1.0  0.78321  0.91285  0.40802  1.0000
  C   C2311     1.0  0.85439  0.97988  0.27960  1.0000
  H   H1843     1.0  0.82117  0.97555  0.33325  1.0000
  H   H1844     1.0  0.68250  0.87941  0.23476  1.0000
  C   C2312     1.0  0.96105  0.68772  0.46547  1.0000
  H   H1845     1.0  0.70174  0.51511  0.26529  1.0000
  Fe  Fe160     1.0  0.85454  0.83438  0.47408  1.0000
  C   C2313     1.0  0.67207  0.98398  0.30446  1.0000
  C   C2314     1.0  0.78992  0.97437  0.48024  1.0000
  C   C2315     1.0  0.93979  0.68926  0.47561  1.0000
  C   C2316     1.0  0.94171  0.75325  0.37800  1.0000
  H   H1846     1.0  0.96703  0.55343  0.43990  1.0000
  H   H1847     1.0  0.81438  0.94725  0.47857  1.0000
  C   C2317     1.0  0.85625  0.96698  0.29814  1.0000
  H   H1848     1.0  0.85393  0.91315  0.35354  1.0000
  C   C2318     1.0  0.72403  0.95063  0.44823  1.0000
  C   C2319     1.0  0.86948  0.51840  0.45878  1.0000
  C   C2320     1.0  0.75833  0.83183  0.45378  1.0000
  C   C2321     1.0  0.74258  0.84933  0.45046  1.0000
  C   C2322     1.0  0.74376  0.86917  0.46064  1.0000
  H   H1849     1.0  0.78502  0.95758  0.33806  1.0000
  C   C2323     1.0  0.91069  0.75578  0.34710  1.0000
  H   H1850     1.0  0.98741  0.84706  0.41082  1.0000
  H   H1851     1.0  0.75468  0.95460  0.42966  1.0000
  H   H1852     1.0  0.90599  0.99175  0.39547  1.0000
  H   H1853     1.0  0.91534  0.76985  0.39647  1.0000
  H   H1854     1.0  0.93961  0.89464  0.33713  1.0000
  C   C2324     1.0  0.94749  0.74487  0.35855  1.0000
  H   H1855     1.0  0.78312  0.91812  0.35093  1.0000
  H   H1856     1.0  0.82069  0.95155  0.44051  1.0000
  H   H1857     1.0  0.95047  0.84180  0.42943  1.0000
  C   C2325     1.0  0.92444  0.94328  0.46632  1.0000
  C   C2326     1.0  0.72591  0.92415  0.47776  1.0000
  C   C2327     1.0  0.77518  0.83410  0.46739  1.0000
  H   H1858     1.0  0.77621  0.92722  0.45074  1.0000
  C   C2328     1.0  0.76074  0.87157  0.47426  1.0000
  C   C2329     1.0  0.94592  0.75405  0.42256  1.0000
  H   H1859     1.0  0.75759  0.81653  0.44578  1.0000
  H   H1860     1.0  0.72957  0.84757  0.43986  1.0000
  H   H1861     1.0  0.84956  0.95044  0.29953  1.0000
  C   C2330     1.0  0.93201  0.74615  0.34316  1.0000
  C   C2331     1.0  0.92139  0.68070  0.46690  1.0000
  C   C2332     1.0  0.82977  0.89975  0.46907  1.0000
  H   H1862     1.0  0.91518  0.89796  0.36910  1.0000
  C   C2333     1.0  0.97511  0.72325  0.39780  1.0000
  P   P76       1.0  0.98462  0.69817  0.47754  1.0000
  C   C2334     1.0  0.92409  0.67055  0.44805  1.0000
  H   H1863     1.0  0.92082  0.91136  0.45336  1.0000
  C   C2335     1.0  0.78341  0.99509  0.44784  1.0000
  C   C2336     1.0  0.88853  0.97692  0.37193  1.0000
  H   H1864     1.0  0.71461  0.51325  0.30106  1.0000
  C   C2337     1.0  0.99324  0.61400  0.46966  1.0000
  C   C2338     1.0  0.85527  0.50455  0.47098  1.0000
  H   H1865     1.0  0.80124  0.98262  0.42094  1.0000
  H   H1866     1.0  0.90141  0.94755  0.30681  1.0000
  H   H1867     1.0  0.97613  0.77945  0.45979  1.0000
  H   H1868     1.0  0.84026  0.89570  0.45555  1.0000
  C   C2339     1.0  0.80914  0.96290  0.44854  1.0000
  C   C2340     1.0  0.71369  0.93968  0.46557  1.0000
  H   H1869     1.0  0.85244  0.71229  0.47295  1.0000
  C   C2341     1.0  0.90413  0.93687  0.32052  1.0000
  C   C2342     1.0  0.96326  0.70476  0.39281  1.0000
  C   C2343     1.0  0.96551  0.84059  0.43789  1.0000
  C   C2344     1.0  0.88999  0.96462  0.47431  1.0000
  H   H1870     1.0  0.94723  0.65997  0.42380  1.0000
  H   H1871     1.0  0.78758  0.82068  0.46998  1.0000
  C   C2345     1.0  0.92179  0.73911  0.45088  1.0000
  C   C2346     1.0  0.91874  0.76034  0.45854  1.0000
  C   C2347     1.0  0.97940  0.74390  0.46745  1.0000
  C   C2348     1.0  0.89021  0.93883  0.33853  1.0000
  C   C2349     1.0  0.75892  0.93076  0.45537  1.0000
  H   H1872     1.0  0.85775  0.97725  0.44370  1.0000
  C   C2350     1.0  0.82903  0.51294  0.37669  1.0000
  H   H1873     1.0  0.71450  0.96233  0.43851  1.0000
  C   C2351     1.0  0.92190  0.92099  0.32005  1.0000
  H   H1874     1.0  0.90490  0.68206  0.47459  1.0000
  C   C2352     1.0  0.80538  0.96027  0.46995  1.0000
  C   C2353     1.0  0.92590  0.90697  0.33751  1.0000
  H   H1875     1.0  0.93257  0.91956  0.30611  1.0000
  C   C2354     1.0  0.97393  0.68362  0.39190  1.0000
  C   C2355     1.0  0.90491  0.76430  0.36635  1.0000
  H   H1876     1.0  0.90980  0.66408  0.44123  1.0000
  C   C2356     1.0  0.97734  0.54859  0.47121  1.0000
  H   H1877     1.0  0.87966  0.91492  0.45410  1.0000
  H   H1878     1.0  0.93647  0.73951  0.32823  1.0000
  C   C2357     1.0  0.77629  0.85384  0.47761  1.0000
  H   H1879     1.0  0.94861  0.50918  0.47868  1.0000
  H   H1880     1.0  0.97958  0.67597  0.43822  1.0000
  C   C2358     1.0  0.87788  0.94703  0.46774  1.0000
  C   C2359     1.0  0.92902  0.77849  0.44814  1.0000
  C   C2360     1.0  0.96358  0.67740  0.44653  1.0000
  C   C2361     1.0  0.71552  0.49842  0.29222  1.0000
  H   H1881     1.0  0.86300  0.49763  0.41193  1.0000
  H   H1882     1.0  0.96389  0.73724  0.35534  1.0000
  C   C2362     1.0  0.94519  0.66859  0.43805  1.0000
  H   H1883     1.0  0.91264  0.72544  0.45826  1.0000
  C   C2363     1.0  0.83932  0.92335  0.35004  1.0000
  H   H1884     1.0  0.81782  0.89613  0.35864  1.0000
  H   H1885     1.0  0.66561  0.97518  0.31843  1.0000
  C   C2364     1.0  0.91220  0.90885  0.35551  1.0000
  C   C2365     1.0  0.79917  0.92567  0.34828  1.0000
  H   H1886     1.0  0.96474  0.66946  0.38785  1.0000
  C   C2366     1.0  0.91227  0.92621  0.45921  1.0000
  H   H1887     1.0  0.93679  0.71942  0.42697  1.0000
  H   H1888     1.0  0.94940  0.79001  0.42196  1.0000
  H   H1889     1.0  0.89860  0.75656  0.33529  1.0000
  H   H1890     1.0  0.94577  0.70667  0.38953  1.0000
  C   C2367     1.0  0.80667  0.89814  0.46882  1.0000
  C   C2368     1.0  0.87226  0.51590  0.43750  1.0000
  C   C2369     1.0  0.92036  0.76317  0.38169  1.0000
  C   C2370     1.0  0.99458  0.77730  0.41046  1.0000
  C   C2371     1.0  0.89452  0.92475  0.35606  1.0000
  H   H1891     1.0  0.99276  0.76834  0.42533  1.0000
  H   H1892     1.0  0.90780  0.76287  0.47213  1.0000
  H   H1893     1.0  0.88249  0.52728  0.42786  1.0000
  C   C2372     1.0  0.74666  0.94627  0.44322  1.0000
  C   C2373     1.0  0.74868  0.91966  0.47282  1.0000
  P   P77       1.0  0.96132  0.75067  0.39818  1.0000
  H   H1894     1.0  0.92631  0.79504  0.45380  1.0000
  H   H1895     1.0  0.79965  0.89271  0.45504  1.0000
  C   C2374     1.0  0.65793  0.99021  0.28855  1.0000
  H   H1896     1.0  0.87780  0.53152  0.46578  1.0000
  H   H1897     1.0  0.83152  0.50352  0.36297  1.0000
  H   H1898     1.0  0.88833  0.77160  0.36964  1.0000
  C   C2375     1.0  0.98158  0.77222  0.39416  1.0000
  C   C2376     1.0  0.86614  0.97564  0.31493  1.0000
  C   C2377     1.0  0.80026  0.94800  0.34114  1.0000
  C   C2378     1.0  0.98380  0.83483  0.47009  1.0000
  C   C2379     1.0  0.84061  0.94603  0.34334  1.0000
  H   H1899     1.0  0.74423  0.50504  0.37766  1.0000
  C   C2380     1.0  0.69441  0.98971  0.30263  1.0000
  H   H1900     1.0  0.85982  0.94795  0.46858  1.0000
  H   H1901     1.0  0.69609  0.94291  0.46933  1.0000
  H   H1902     1.0  0.70521  0.98571  0.31528  1.0000
  H   H1903     1.0  0.94248  0.94158  0.46606  1.0000
  C   C2381     1.0  0.77854  0.99170  0.46920  1.0000
  C   C2382     1.0  0.87005  0.97863  0.35945  1.0000
  H   H1904     1.0  0.90095  0.96350  0.37062  1.0000
  C   C2383     1.0  0.86118  0.49922  0.42850  1.0000
  C   C2384     1.0  0.98415  0.78449  0.37511  1.0000
  H   H1905     1.0  0.97423  0.78122  0.36232  1.0000
  H   H1906     1.0  0.92320  0.97538  0.47925  1.0000
  H   H1907     1.0  0.98470  0.73988  0.45183  1.0000
  H   H1908     1.0  0.96057  0.54562  0.47736  1.0000
  C   C2385     1.0  0.91339  0.96246  0.47378  1.0000
  C   C2386     1.0  0.97429  0.76619  0.47178  1.0000
  H   H1909     1.0  0.84625  0.97339  0.26687  1.0000
  C   C2387     1.0  0.64981  0.96719  0.23935  1.0000
  C   C2388     1.0  0.89171  0.99321  0.38595  1.0000
  P   P78       1.0  0.87539  0.98951  0.48346  1.0000
  C   C2389     1.0  0.70828  0.49944  0.27208  1.0000
  H   H1910     1.0  0.98009  0.49681  0.40824  1.0000
  C   C2390     1.0  0.85512  0.99494  0.44533  1.0000
  Fe  Fe161     1.0  0.77715  0.99412  0.37636  1.0000
  H   H1911     1.0  0.73740  0.99475  0.44696  1.0000
  C   C2391     1.0  0.97769  0.72691  0.48320  1.0000
  Fe  Fe162     1.0  0.80000  0.93197  0.63531  1.0000
  S   S321      1.0  0.76636  0.94658  0.62693  1.0000
  S   S322      1.0  0.80934  0.93303  0.66855  1.0000
  Fe  Fe163     1.0  0.81063  0.91528  0.59204  1.0000
  S   S323      1.0  0.77757  0.92784  0.58081  1.0000
  S   S324      1.0  0.83938  0.90116  0.57203  1.0000
  Fe  Fe164     1.0  0.78448  0.95897  0.59704  1.0000
  H   H1912     1.0  0.63638  0.51755  0.68806  1.0000
  Fe  Fe165     1.0  0.76259  0.91427  0.61174  1.0000
  S   S325      1.0  0.73535  0.88840  0.61750  1.0000
  S   S326      1.0  0.81816  0.94685  0.60695  1.0000
  S   S327      1.0  0.79564  0.89935  0.62142  1.0000
  H   H1913     1.0  0.98921  0.94993  0.57767  1.0000
  S   S328      1.0  0.59790  0.58117  0.69917  1.0000
  H   H1914     1.0  0.51795  0.67018  0.64592  1.0000
  Fe  Fe166     1.0  0.58741  0.64571  0.69286  1.0000
  S   S329      1.0  0.57875  0.62250  0.66861  1.0000
  S   S330      1.0  0.57575  0.68217  0.69460  1.0000
  Fe  Fe167     1.0  0.56481  0.60076  0.69548  1.0000
  S   S331      1.0  0.53087  0.58365  0.69889  1.0000
  Fe  Fe168     1.0  0.61240  0.60475  0.67415  1.0000
  S   S332      1.0  0.63995  0.59725  0.64888  1.0000
  S   S333      1.0  0.57206  0.62477  0.71935  1.0000
  S   S334      1.0  0.62160  0.63009  0.69622  1.0000
  C   C2392     1.0  0.82763  0.49808  0.72284  1.0000
  S   S335      1.0  0.59563  0.86247  0.70701  1.0000
  C   C2393     1.0  0.55143  0.69478  0.61969  1.0000
  Fe  Fe169     1.0  0.61461  0.80480  0.68707  1.0000
  S   S336      1.0  0.59632  0.83113  0.66750  1.0000
  S   S337      1.0  0.62747  0.77166  0.67454  1.0000
  Fe  Fe170     1.0  0.61991  0.85504  0.68000  1.0000
  S   S338      1.0  0.63833  0.88479  0.66416  1.0000
  Fe  Fe171     1.0  0.57371  0.83616  0.69622  1.0000
  S   S339      1.0  0.53544  0.83359  0.70278  1.0000
  S   S340      1.0  0.63941  0.82834  0.69756  1.0000
  H   H1915     1.0  0.81343  0.65237  0.53879  1.0000
  Fe  Fe172     1.0  0.79760  0.51506  0.62320  1.0000
  H   H1916     1.0  0.97842  0.63024  0.52425  1.0000
  S   S341      1.0  0.81981  0.51584  0.65047  1.0000
  Fe  Fe173     1.0  0.78374  0.53570  0.58202  1.0000
  S   S342      1.0  0.75655  0.51144  0.58009  1.0000
  S   S343      1.0  0.78823  0.56203  0.55578  1.0000
  Fe  Fe174     1.0  0.74844  0.51704  0.61390  1.0000
  S   S344      1.0  0.71471  0.51902  0.63284  1.0000
  C   C2394     1.0  0.75280  0.89473  0.51347  1.0000
  S   S345      1.0  0.77368  0.54342  0.61500  1.0000
  C   C2395     1.0  0.75849  0.94154  0.70815  1.0000
  C   C2396     1.0  0.81374  0.56385  0.54087  1.0000
  C   C2397     1.0  0.83325  0.55254  0.54716  1.0000
  C   C2398     1.0  0.85330  0.55455  0.53498  1.0000
  C   C2399     1.0  0.85395  0.56765  0.51632  1.0000
  C   C2400     1.0  0.83447  0.57904  0.51009  1.0000
  C   C2401     1.0  0.81451  0.57726  0.52241  1.0000
  H   H1917     1.0  0.83295  0.54242  0.56148  1.0000
  H   H1918     1.0  0.70236  0.88818  0.68203  1.0000
  H   H1919     1.0  0.79953  0.58623  0.51753  1.0000
  C   C2402     1.0  0.50738  0.83900  0.69512  1.0000
  H   H1920     1.0  0.69216  0.55306  0.68777  1.0000
  C   C2403     1.0  0.61405  0.74641  0.68135  1.0000
  C   C2404     1.0  0.62207  0.72655  0.67248  1.0000
  C   C2405     1.0  0.61112  0.70637  0.67702  1.0000
  C   C2406     1.0  0.59212  0.70598  0.69050  1.0000
  C   C2407     1.0  0.58449  0.72571  0.69966  1.0000
  C   C2408     1.0  0.59532  0.74584  0.69511  1.0000
  H   H1921     1.0  0.97850  0.65398  0.73225  1.0000
  H   H1922     1.0  0.61687  0.69135  0.66958  1.0000
  C   C2409     1.0  0.68981  0.86703  0.70764  1.0000
  H   H1923     1.0  0.58899  0.76095  0.70207  1.0000
  C   C2410     1.0  0.66119  0.57563  0.64561  1.0000
  C   C2411     1.0  0.67962  0.57954  0.63159  1.0000
  C   C2412     1.0  0.69630  0.56267  0.62777  1.0000
  C   C2413     1.0  0.69455  0.54134  0.63754  1.0000
  C   C2414     1.0  0.67605  0.53741  0.65149  1.0000
  C   C2415     1.0  0.65968  0.55446  0.65571  1.0000
  H   H1924     1.0  0.68088  0.59567  0.62338  1.0000
  H   H1925     1.0  0.71022  0.56598  0.61687  1.0000
  H   H1926     1.0  0.67423  0.52101  0.65900  1.0000
  H   H1927     1.0  0.64552  0.55108  0.66628  1.0000
  C   C2416     1.0  0.85420  0.98163  0.50312  1.0000
  H   H1928     1.0  0.50732  0.80340  0.65764  1.0000
  C   C2417     1.0  0.59118  0.92802  0.73239  1.0000
  C   C2418     1.0  0.74085  0.97928  0.53890  1.0000
  H   H1929     1.0  0.86833  0.54595  0.54012  1.0000
  C   C2419     1.0  0.50270  0.59378  0.69509  1.0000
  C   C2420     1.0  0.70913  0.88791  0.63198  1.0000
  C   C2421     1.0  0.69922  0.86721  0.63655  1.0000
  C   C2422     1.0  0.67795  0.86587  0.64695  1.0000
  C   C2423     1.0  0.66600  0.88534  0.65254  1.0000
  C   C2424     1.0  0.67600  0.90606  0.64816  1.0000
  C   C2425     1.0  0.69751  0.90735  0.63817  1.0000
  H   H1930     1.0  0.70792  0.85210  0.63176  1.0000
  H   H1931     1.0  0.67055  0.84983  0.65013  1.0000
  H   H1932     1.0  0.66692  0.92126  0.65229  1.0000
  H   H1933     1.0  0.70475  0.92341  0.63464  1.0000
  C   C2426     1.0  0.83143  0.85355  0.52038  1.0000
  C   C2427     1.0  0.81293  0.85924  0.53358  1.0000
  C   C2428     1.0  0.81498  0.87403  0.54939  1.0000
  C   C2429     1.0  0.83569  0.88283  0.55231  1.0000
  C   C2430     1.0  0.85423  0.87680  0.53936  1.0000
  C   C2431     1.0  0.85208  0.86238  0.52333  1.0000
  H   H1934     1.0  0.79697  0.85229  0.53146  1.0000
  H   H1935     1.0  0.80063  0.87847  0.55939  1.0000
  H   H1936     1.0  0.87032  0.88343  0.54163  1.0000
  H   H1937     1.0  0.86647  0.85788  0.51342  1.0000
  C   C2432     1.0  0.85971  0.87977  0.69272  1.0000
  C   C2433     1.0  0.85875  0.88475  0.67139  1.0000
  C   C2434     1.0  0.84318  0.90089  0.66379  1.0000
  C   C2435     1.0  0.82884  0.91248  0.67754  1.0000
  C   C2436     1.0  0.83011  0.90779  0.69889  1.0000
  C   C2437     1.0  0.84522  0.89117  0.70647  1.0000
  H   H1938     1.0  0.86996  0.87598  0.66070  1.0000
  H   H1939     1.0  0.84242  0.90457  0.64732  1.0000
  H   H1940     1.0  0.81909  0.91679  0.70954  1.0000
  C   C2438     1.0  0.82855  0.57868  0.68645  1.0000
  C   C2439     1.0  0.81345  0.57926  0.67065  1.0000
  C   C2440     1.0  0.81047  0.56017  0.65958  1.0000
  C   C2441     1.0  0.82241  0.54018  0.66437  1.0000
  C   C2442     1.0  0.83707  0.53946  0.68052  1.0000
  C   C2443     1.0  0.84013  0.55857  0.69153  1.0000
  H   H1941     1.0  0.80412  0.59457  0.66683  1.0000
  H   H1942     1.0  0.79919  0.56106  0.64717  1.0000
  H   H1943     1.0  0.84641  0.52412  0.68430  1.0000
  H   H1944     1.0  0.85176  0.55781  0.70369  1.0000
  C   C2444     1.0  0.74567  0.64340  0.68257  1.0000
  C   C2445     1.0  0.75143  0.87363  0.52394  1.0000
  C   C2446     1.0  0.93237  0.90391  0.69024  1.0000
  C   C2447     1.0  0.73996  0.81039  0.64378  1.0000
  C   C2448     1.0  0.73334  0.79321  0.65795  1.0000
  H   H1945     1.0  0.72900  0.81651  0.63182  1.0000
  H   H1946     1.0  0.71730  0.78589  0.65684  1.0000
  H   H1947     1.0  0.84706  0.87304  0.61402  1.0000
  H   H1948     1.0  0.84226  0.85057  0.58391  1.0000
  C   C2449     1.0  0.69310  0.49836  0.69942  1.0000
  C   C2450     1.0  0.77704  0.51456  0.51933  1.0000
  C   C2451     1.0  0.66684  0.66824  0.67549  1.0000
  C   C2452     1.0  0.77539  0.51296  0.69504  1.0000
  S   S346      1.0  0.81000  0.50958  0.59023  1.0000
  C   C2453     1.0  0.73059  0.94099  0.68265  1.0000
  H   H1949     1.0  0.96134  0.78878  0.49454  1.0000
  C   C2454     1.0  0.71243  0.97224  0.51543  1.0000
  H   H1950     1.0  0.63648  0.72690  0.66170  1.0000
  C   C2455     1.0  0.50136  0.77091  0.64640  1.0000
  H   H1951     1.0  0.73387  0.88960  0.57192  1.0000
  P   P79       1.0  0.99016  0.54447  0.51205  1.0000
  C   C2456     1.0  0.62324  0.51736  0.70018  1.0000
  C   C2457     1.0  0.96597  0.77152  0.49149  1.0000
  C   C2458     1.0  0.54584  0.95820  0.72857  1.0000
  H   H1952     1.0  0.65700  0.68213  0.68169  1.0000
  H   H1953     1.0  0.64329  0.94732  0.72093  1.0000
  C   C2459     1.0  0.91883  0.51805  0.49652  1.0000
  P   P80       1.0  0.65580  0.50178  0.72718  1.0000
  C   C2460     1.0  0.79948  0.84743  0.69907  1.0000
  C   C2461     1.0  0.82032  0.99109  0.52356  1.0000
  C   C2462     1.0  0.81058  0.82098  0.62012  1.0000
  H   H1954     1.0  0.79792  0.59476  0.72919  1.0000
  S   S347      1.0  0.77936  0.99360  0.58080  1.0000
  C   C2463     1.0  0.85556  0.61418  0.54814  1.0000
  H   H1955     1.0  0.67458  0.77848  0.67515  1.0000
  C   C2464     1.0  0.82427  0.64088  0.54746  1.0000
  C   C2465     1.0  0.82038  0.63720  0.56883  1.0000
  C   C2466     1.0  0.83399  0.62182  0.58002  1.0000
  C   C2467     1.0  0.85179  0.61048  0.56952  1.0000
  P   P81       1.0  0.82762  0.61586  0.60736  1.0000
  C   C2468     1.0  0.79794  0.61149  0.61069  1.0000
  C   C2469     1.0  0.84240  0.59010  0.61514  1.0000
  C   C2470     1.0  0.83542  0.56961  0.60889  1.0000
  C   C2471     1.0  0.84692  0.54972  0.61471  1.0000
  C   C2472     1.0  0.86518  0.54999  0.62702  1.0000
  C   C2473     1.0  0.87261  0.57031  0.63286  1.0000
  C   C2474     1.0  0.86157  0.59032  0.62659  1.0000
  C   C2475     1.0  0.78704  0.60172  0.59511  1.0000
  C   C2476     1.0  0.76417  0.59822  0.59732  1.0000
  C   C2477     1.0  0.75188  0.60451  0.61510  1.0000
  C   C2478     1.0  0.76247  0.61452  0.63059  1.0000
  C   C2479     1.0  0.78542  0.61793  0.62848  1.0000
  C   C2480     1.0  0.83518  0.63833  0.62279  1.0000
  C   C2481     1.0  0.84031  0.65936  0.61353  1.0000
  C   C2482     1.0  0.84671  0.67636  0.62560  1.0000
  C   C2483     1.0  0.84819  0.67246  0.64695  1.0000
  C   C2484     1.0  0.84309  0.65160  0.65628  1.0000
  C   C2485     1.0  0.83642  0.63471  0.64431  1.0000
  H   H1956     1.0  0.74732  0.97744  0.55421  1.0000
  H   H1957     1.0  0.80930  0.77601  0.66423  1.0000
  C   C2486     1.0  0.53042  0.73021  0.61921  1.0000
  H   H1958     1.0  0.80640  0.64591  0.57654  1.0000
  H   H1959     1.0  0.86243  0.59834  0.57761  1.0000
  H   H1960     1.0  0.82112  0.56885  0.59958  1.0000
  H   H1961     1.0  0.84123  0.53390  0.61035  1.0000
  H   H1962     1.0  0.87328  0.53438  0.63230  1.0000
  H   H1963     1.0  0.88673  0.57051  0.64248  1.0000
  H   H1964     1.0  0.86807  0.60581  0.63089  1.0000
  H   H1965     1.0  0.79623  0.59664  0.58121  1.0000
  H   H1966     1.0  0.75611  0.59026  0.58527  1.0000
  H   H1967     1.0  0.73418  0.60152  0.61688  1.0000
  H   H1968     1.0  0.75284  0.61955  0.64423  1.0000
  H   H1969     1.0  0.79319  0.62553  0.64076  1.0000
  H   H1970     1.0  0.83961  0.66267  0.59702  1.0000
  H   H1971     1.0  0.85074  0.69252  0.61833  1.0000
  H   H1972     1.0  0.85338  0.68554  0.65626  1.0000
  H   H1973     1.0  0.84438  0.64835  0.67282  1.0000
  H   H1974     1.0  0.83271  0.61862  0.65185  1.0000
  C   C2487     1.0  0.93198  0.58262  0.51668  1.0000
  C   C2488     1.0  0.92160  0.57398  0.53506  1.0000
  C   C2489     1.0  0.93239  0.55709  0.54691  1.0000
  C   C2490     1.0  0.95332  0.54838  0.54008  1.0000
  C   C2491     1.0  0.96323  0.55597  0.52095  1.0000
  C   C2492     1.0  0.95288  0.57395  0.50981  1.0000
  H   H1975     1.0  0.67832  0.73584  0.73035  1.0000
  H   H1976     1.0  0.83991  0.75177  0.67790  1.0000
  C   C2493     1.0  0.58897  0.51916  0.73112  1.0000
  H   H1977     1.0  0.90510  0.58035  0.54001  1.0000
  H   H1978     1.0  0.92442  0.55071  0.56134  1.0000
  H   H1979     1.0  0.96162  0.53559  0.54966  1.0000
  H   H1980     1.0  0.87318  0.80955  0.69453  1.0000
  C   C2494     1.0  0.62770  0.93956  0.71876  1.0000
  H   H1981     1.0  0.96957  0.65384  0.49331  1.0000
  H   H1982     1.0  0.99350  0.98472  0.59573  1.0000
  C   C2495     1.0  0.85682  0.96180  0.51554  1.0000
  C   C2496     1.0  0.84117  0.95669  0.53177  1.0000
  C   C2497     1.0  0.82277  0.97117  0.53559  1.0000
  H   H1983     1.0  0.99197  0.61563  0.48615  1.0000
  C   C2498     1.0  0.53203  0.75369  0.72190  1.0000
  H   H1984     1.0  0.90538  0.70260  0.68689  1.0000
  H   H1985     1.0  0.71139  0.96102  0.54764  1.0000
  C   C2499     1.0  0.68087  0.77499  0.69039  1.0000
  C   C2500     1.0  0.49771  0.61399  0.68411  1.0000
  H   H1986     1.0  0.69684  0.96489  0.51253  1.0000
  H   H1987     1.0  0.78986  0.54287  0.50133  1.0000
  H   H1988     1.0  0.87122  0.95059  0.51316  1.0000
  H   H1989     1.0  0.84355  0.94175  0.54178  1.0000
  H   H1990     1.0  0.81090  0.96739  0.54844  1.0000
  C   C2501     1.0  0.98032  0.66015  0.50430  1.0000
  C   C2502     1.0  0.78554  0.58209  0.73075  1.0000
  S   S348      1.0  0.59140  0.80861  0.71496  1.0000
  H   H1991     1.0  0.57002  0.72541  0.71027  1.0000
  C   C2503     1.0  0.96310  0.75458  0.50700  1.0000
  C   C2504     1.0  0.49548  0.79308  0.65102  1.0000
  C   C2505     1.0  0.78570  0.64832  0.68272  1.0000
  C   C2506     1.0  0.62773  0.51037  0.72064  1.0000
  C   C2507     1.0  0.97649  0.80289  0.69525  1.0000
  H   H1992     1.0  0.78943  0.85539  0.48808  1.0000
  S   S349      1.0  0.87949  0.56981  0.50150  1.0000
  P   P82       1.0  0.52924  0.75990  0.65095  1.0000
  C   C2508     1.0  0.53094  0.75722  0.67864  1.0000
  C   C2509     1.0  0.53682  0.73384  0.63918  1.0000
  H   H1993     1.0  0.57259  0.91047  0.71115  1.0000
  C   C2510     1.0  0.84177  0.62928  0.53710  1.0000
  H   H1994     1.0  0.85298  0.50700  0.48739  1.0000
  C   C2511     1.0  0.55853  0.69866  0.63924  1.0000
  C   C2512     1.0  0.55146  0.71818  0.64885  1.0000
  C   C2513     1.0  0.52460  0.73751  0.68976  1.0000
  C   C2514     1.0  0.98546  0.64659  0.52179  1.0000
  H   H1995     1.0  0.53240  0.70782  0.59425  1.0000
  C   C2515     1.0  0.53800  0.77347  0.71095  1.0000
  C   C2516     1.0  0.53745  0.77527  0.68941  1.0000
  C   C2517     1.0  0.54959  0.77875  0.63936  1.0000
  C   C2518     1.0  0.57189  0.77602  0.64465  1.0000
  C   C2519     1.0  0.58812  0.78961  0.63489  1.0000
  C   C2520     1.0  0.58220  0.80620  0.61999  1.0000
  C   C2521     1.0  0.56008  0.80889  0.61448  1.0000
  C   C2522     1.0  0.54386  0.79504  0.62391  1.0000
  H   H1996     1.0  0.51574  0.85879  0.66729  1.0000
  C   C2523     1.0  0.72416  0.98425  0.49950  1.0000
  H   H1997     1.0  0.69806  0.93082  0.69413  1.0000
  H   H1998     1.0  0.96623  0.71948  0.51507  1.0000
  C   C2524     1.0  0.50235  0.85179  0.67713  1.0000
  C   C2525     1.0  0.62435  0.93005  0.70008  1.0000
  H   H1999     1.0  0.68875  0.59293  0.69414  1.0000
  C   C2526     1.0  0.70105  0.78661  0.71906  1.0000
  H   H2000     1.0  0.56971  0.68665  0.64700  1.0000
  H   H2001     1.0  0.55786  0.72112  0.66365  1.0000
  C   C2527     1.0  0.74434  0.66058  0.66693  1.0000
  C   C2528     1.0  0.72799  0.83983  0.69992  1.0000
  H   H2002     1.0  0.79793  0.86492  0.72724  1.0000
  P   P83       1.0  0.72096  0.62861  0.69183  1.0000
  H   H2003     1.0  0.54207  0.79080  0.68123  1.0000
  H   H2004     1.0  0.57681  0.76328  0.65621  1.0000
  H   H2005     1.0  0.60531  0.78744  0.63903  1.0000
  H   H2006     1.0  0.59479  0.81696  0.61278  1.0000
  H   H2007     1.0  0.55552  0.82169  0.60285  1.0000
  H   H2008     1.0  0.52699  0.79705  0.61895  1.0000
  C   C2529     1.0  0.67362  0.64137  0.64922  1.0000
  H   H2009     1.0  0.72863  0.66557  0.66036  1.0000
  C   C2530     1.0  0.89921  0.51053  0.50664  1.0000
  C   C2531     1.0  0.91566  0.91395  0.67829  1.0000
  C   C2532     1.0  0.74021  0.91205  0.54528  1.0000
  C   C2533     1.0  0.92534  0.69778  0.71343  1.0000
  C   C2534     1.0  0.77611  0.50073  0.71409  1.0000
  H   H2010     1.0  0.51923  0.72346  0.68180  1.0000
  C   C2535     1.0  0.85911  0.80224  0.68806  1.0000
  H   H2011     1.0  0.92083  0.88077  0.63741  1.0000
  C   C2536     1.0  0.95868  0.87813  0.72601  1.0000
  C   C2537     1.0  0.92429  0.88737  0.65205  1.0000
  C   C2538     1.0  0.72098  0.93054  0.71856  1.0000
  C   C2539     1.0  0.71406  0.63155  0.71916  1.0000
  H   H2012     1.0  0.99074  0.79123  0.69450  1.0000
  C   C2540     1.0  0.53745  0.71059  0.60963  1.0000
  C   C2541     1.0  0.60172  0.52476  0.69523  1.0000
  C   C2542     1.0  0.94500  0.88528  0.68329  1.0000
  C   C2543     1.0  0.85089  0.49629  0.72336  1.0000
  H   H2013     1.0  0.82830  0.98829  0.58012  1.0000
  C   C2544     1.0  0.68502  0.65895  0.68596  1.0000
  H   H2014     1.0  0.88756  0.52228  0.51404  1.0000
  C   C2545     1.0  0.81306  0.83377  0.63725  1.0000
  H   H2015     1.0  0.55731  0.95415  0.71575  1.0000
  Fe  Fe175     1.0  0.60565  0.60727  0.72086  1.0000
  P   P84       1.0  0.76348  0.89734  0.48684  1.0000
  H   H2016     1.0  0.64976  0.55022  0.71801  1.0000
  C   C2546     1.0  0.67546  0.75522  0.70163  1.0000
  C   C2547     1.0  0.74296  0.93397  0.72375  1.0000
  C   C2548     1.0  0.72066  0.96997  0.53518  1.0000
  C   C2549     1.0  0.60436  0.91982  0.69740  1.0000
  H   H2017     1.0  0.70093  0.61772  0.65339  1.0000
  C   C2550     1.0  0.72713  0.55350  0.67867  1.0000
  H   H2018     1.0  0.93736  0.69713  0.49022  1.0000
  C   C2551     1.0  0.91355  0.69050  0.69725  1.0000
  C   C2552     1.0  0.91197  0.66765  0.69469  1.0000
  C   C2553     1.0  0.92212  0.65207  0.70835  1.0000
  H   H2019     1.0  0.52076  0.66941  0.71179  1.0000
  H   H2020     1.0  0.72822  0.53618  0.67474  1.0000
  C   C2554     1.0  0.70680  0.56307  0.68588  1.0000
  C   C2555     1.0  0.69349  0.79070  0.69906  1.0000
  C   C2556     1.0  0.75226  0.94504  0.68774  1.0000
  H   H2021     1.0  0.90262  0.66196  0.68235  1.0000
  H   H2022     1.0  0.92068  0.63430  0.70668  1.0000
  C   C2557     1.0  0.94096  0.87721  0.66399  1.0000
  H   H2023     1.0  0.95803  0.50875  0.52274  1.0000
  C   C2558     1.0  0.97972  0.82575  0.69641  1.0000
  C   C2559     1.0  0.76066  0.81985  0.64505  1.0000
  C   C2560     1.0  0.83701  0.85838  0.61582  1.0000
  H   H2024     1.0  0.76522  0.83357  0.63420  1.0000
  C   C2561     1.0  0.98941  0.68134  0.50094  1.0000
  H   H2025     1.0  0.91978  0.80416  0.69624  1.0000
  C   C2562     1.0  0.83418  0.84580  0.59877  1.0000
  H   H2026     1.0  0.83478  0.58938  0.49589  1.0000
  H   H2027     1.0  0.74260  0.82934  0.69630  1.0000
  H   H2028     1.0  0.74383  0.85555  0.55302  1.0000
  H   H2029     1.0  0.68113  0.61823  0.71827  1.0000
  C   C2563     1.0  0.74430  0.58910  0.68005  1.0000
  C   C2564     1.0  0.69333  0.62457  0.72782  1.0000
  S   S350      1.0  0.87967  0.85974  0.70171  1.0000
  H   H2030     1.0  0.92526  0.84429  0.69810  1.0000
  C   C2565     1.0  0.74723  0.78580  0.67372  1.0000
  H   H2031     1.0  0.98802  0.89764  0.72849  1.0000
  S   S351      1.0  0.83312  0.60362  0.69881  1.0000
  C   C2566     1.0  0.82093  0.82715  0.60089  1.0000
  H   H2032     1.0  0.81879  0.81750  0.58757  1.0000
  H   H2033     1.0  0.90546  0.92785  0.68401  1.0000
  H   H2034     1.0  0.98286  0.83163  0.48668  1.0000
  H   H2035     1.0  0.77556  0.94436  0.71138  1.0000
  H   H2036     1.0  0.84444  0.63171  0.52045  1.0000
  H   H2037     1.0  0.63728  0.93029  0.68770  1.0000
  H   H2038     1.0  0.74181  0.77283  0.68496  1.0000
  H   H2039     1.0  0.82896  0.86217  0.64810  1.0000
  H   H2040     1.0  0.56808  0.53220  0.70693  1.0000
  C   C2567     1.0  0.77515  0.81180  0.66026  1.0000
  C   C2568     1.0  0.82655  0.85234  0.63502  1.0000
  C   C2569     1.0  0.76794  0.79529  0.67507  1.0000
  H   H2041     1.0  0.74432  0.64775  0.72568  1.0000
  H   H2042     1.0  0.80080  0.80618  0.62159  1.0000
  C   C2570     1.0  0.79007  0.52479  0.50326  1.0000
  C   C2571     1.0  0.71268  0.83369  0.71626  1.0000
  H   H2043     1.0  0.76831  0.62415  0.70217  1.0000
  C   C2572     1.0  0.58460  0.52574  0.71070  1.0000
  C   C2573     1.0  0.70531  0.87313  0.69169  1.0000
  H   H2044     1.0  0.76234  0.68454  0.64714  1.0000
  H   H2045     1.0  0.92215  0.53572  0.49609  1.0000
  H   H2046     1.0  0.92352  0.59576  0.50754  1.0000
  H   H2047     1.0  0.76898  0.51220  0.66282  1.0000
  H   H2048     1.0  0.67472  0.87730  0.71025  1.0000
  C   C2574     1.0  0.95492  0.79509  0.69517  1.0000
  C   C2575     1.0  0.76658  0.63747  0.69039  1.0000
  H   H2049     1.0  0.85732  0.90550  0.48772  1.0000
  H   H2050     1.0  0.66886  0.63432  0.63517  1.0000
  S   S352      1.0  0.82835  0.83508  0.50061  1.0000
  H   H2051     1.0  0.73638  0.92685  0.55380  1.0000
  C   C2576     1.0  0.74450  0.87183  0.54490  1.0000
  H   H2052     1.0  0.71744  0.91523  0.49071  1.0000
  C   C2577     1.0  0.69334  0.84731  0.71978  1.0000
  H   H2053     1.0  0.95031  0.86274  0.65840  1.0000
  C   C2578     1.0  0.85841  0.77909  0.68709  1.0000
  H   H2054     1.0  0.52728  0.98254  0.71000  1.0000
  P   P85       1.0  0.80129  0.82495  0.66241  1.0000
  H   H2055     1.0  0.83327  0.91433  0.51851  1.0000
  C   C2579     1.0  0.72425  0.85945  0.68769  1.0000
  C   C2580     1.0  0.78417  0.66533  0.66719  1.0000
  H   H2056     1.0  0.77857  0.89864  0.71182  1.0000
  P   P86       1.0  0.96501  0.87070  0.69956  1.0000
  H   H2057     1.0  0.89824  0.91316  0.65027  1.0000
  C   C2581     1.0  0.91157  0.90565  0.65925  1.0000
  H   H2058     1.0  0.77822  0.78991  0.68774  1.0000
  H   H2059     1.0  0.77878  0.86814  0.65372  1.0000
  H   H2060     1.0  0.76441  0.95068  0.67575  1.0000
  C   C2582     1.0  0.73889  0.89101  0.55557  1.0000
  H   H2061     1.0  0.74880  0.93044  0.51676  1.0000
  C   C2583     1.0  0.82305  0.80676  0.67284  1.0000
  C   C2584     1.0  0.79463  0.84838  0.67812  1.0000
  C   C2585     1.0  0.82580  0.91038  0.50449  1.0000
  H   H2062     1.0  0.66499  0.74349  0.69504  1.0000
  C   C2586     1.0  0.79292  0.90246  0.48652  1.0000
  H   H2063     1.0  0.79899  0.67371  0.66121  1.0000
  C   C2587     1.0  0.97478  0.50142  0.52209  1.0000
  C   C2588     1.0  0.74719  0.91397  0.52433  1.0000
  C   C2589     1.0  0.52534  0.73570  0.71130  1.0000
  C   C2590     1.0  0.51160  0.67334  0.69803  1.0000
  H   H2064     1.0  0.84593  0.88742  0.72291  1.0000
  H   H2065     1.0  0.55705  0.67966  0.61224  1.0000
  H   H2066     1.0  0.73571  0.86388  0.67474  1.0000
  C   C2591     1.0  0.52878  0.97438  0.72523  1.0000
  C   C2592     1.0  0.96133  0.84103  0.69766  1.0000
  H   H2067     1.0  0.96073  0.58125  0.49573  1.0000
  H   H2068     1.0  0.51119  0.62406  0.67775  1.0000
  C   C2593     1.0  0.52181  0.66924  0.67868  1.0000
  H   H2069     1.0  0.84278  0.83401  0.68123  1.0000
  H   H2070     1.0  0.76153  0.55915  0.66978  1.0000
  C   C2594     1.0  0.51013  0.67388  0.66085  1.0000
  C   C2595     1.0  0.78244  0.88437  0.70264  1.0000
  H   H2071     1.0  0.68926  0.66612  0.70009  1.0000
  H   H2072     1.0  0.96290  0.73499  0.72890  1.0000
  C   C2596     1.0  0.69169  0.63188  0.65972  1.0000
  C   C2597     1.0  0.96891  0.73235  0.50291  1.0000
  C   C2598     1.0  0.68289  0.75101  0.72154  1.0000
  H   H2073     1.0  0.86880  0.60490  0.53993  1.0000
  C   C2599     1.0  0.69738  0.64047  0.67831  1.0000
  C   C2600     1.0  0.76351  0.67143  0.65929  1.0000
  C   C2601     1.0  0.70502  0.58576  0.68975  1.0000
  C   C2602     1.0  0.66107  0.65937  0.65718  1.0000
  H   H2074     1.0  0.64668  0.66620  0.64927  1.0000
  C   C2603     1.0  0.78316  0.86728  0.66971  1.0000
  C   C2604     1.0  0.93657  0.81013  0.69624  1.0000
  C   C2605     1.0  0.79347  0.86542  0.71127  1.0000
  H   H2075     1.0  0.92673  0.86235  0.72882  1.0000
  H   H2076     1.0  0.75611  0.85852  0.51618  1.0000
  H   H2077     1.0  0.80807  0.83296  0.70600  1.0000
  C   C2606     1.0  0.71491  0.93385  0.69808  1.0000
  C   C2607     1.0  0.77725  0.88529  0.68189  1.0000
  H   H2078     1.0  0.70122  0.50958  0.70879  1.0000
  C   C2608     1.0  0.75263  0.99127  0.52302  1.0000
  H   H2079     1.0  0.75915  0.59851  0.67737  1.0000
  C   C2609     1.0  0.82278  0.78351  0.67135  1.0000
  H   H2080     1.0  0.79283  0.91181  0.51844  1.0000
  C   C2610     1.0  0.80269  0.90884  0.50433  1.0000
  C   C2611     1.0  0.84028  0.76972  0.67873  1.0000
  H   H2081     1.0  0.76698  0.52470  0.52992  1.0000
  C   C2612     1.0  0.58786  0.91875  0.71347  1.0000
  C   C2613     1.0  0.93975  0.83295  0.69746  1.0000
  H   H2082     1.0  0.87197  0.76842  0.69279  1.0000
  H   H2083     1.0  0.52119  0.72017  0.71970  1.0000
  H   H2084     1.0  0.60188  0.91226  0.68296  1.0000
  C   C2614     1.0  0.84165  0.81605  0.68075  1.0000
  C   C2615     1.0  0.93364  0.65927  0.72468  1.0000
  H   H2085     1.0  0.76912  0.90020  0.67508  1.0000
  H   H2086     1.0  0.69683  0.80615  0.69019  1.0000
  H   H2087     1.0  0.59844  0.53045  0.67949  1.0000
  H   H2088     1.0  0.72096  0.49683  0.67703  1.0000
  C   C2616     1.0  0.72381  0.59905  0.68707  1.0000
  C   C2617     1.0  0.74585  0.56651  0.67575  1.0000
  H   H2089     1.0  0.80176  0.64334  0.68876  1.0000
  H   H2090     1.0  0.54321  0.78747  0.71911  1.0000
  H   H2091     1.0  0.92598  0.71553  0.71529  1.0000
  H   H2092     1.0  0.87864  0.71677  0.72161  1.0000
  H   H2093     1.0  0.78711  0.97186  0.49682  1.0000
  Fe  Fe176     1.0  0.61437  0.83466  0.72373  1.0000
  H   H2094     1.0  0.95236  0.77740  0.69433  1.0000
  H   H2095     1.0  0.52039  0.74271  0.61086  1.0000
  H   H2096     1.0  0.93497  0.91043  0.70509  1.0000
  H   H2097     1.0  0.53866  0.66204  0.67753  1.0000
  H   H2098     1.0  0.78000  0.53026  0.69358  1.0000
  H   H2099     1.0  0.95615  0.75875  0.52215  1.0000
  C   C2618     1.0  0.93371  0.50296  0.48666  1.0000
  H   H2100     1.0  0.72599  0.94340  0.66672  1.0000
  C   C2619     1.0  0.74420  0.99417  0.50323  1.0000
  H   H2101     1.0  0.66697  0.58239  0.73123  1.0000
  H   H2102     1.0  0.97840  0.60703  0.72728  1.0000
  C   C2620     1.0  0.75311  0.77660  0.72947  1.0000
  H   H2103     1.0  0.70850  0.92509  0.73030  1.0000
  H   H2104     1.0  0.74152  0.76398  0.72665  1.0000
  C   C2621     1.0  0.93558  0.68220  0.72725  1.0000
  C   C2622     1.0  0.77559  0.77015  0.73151  1.0000
  Fe  Fe177     1.0  0.85119  0.60312  0.72894  1.0000
  Fe  Fe178     1.0  0.87427  0.84298  0.73355  1.0000
  C   C2623     1.0  0.80370  0.51179  0.49003  1.0000
  C   C2624     1.0  0.83936  0.90549  0.48703  1.0000
  C   C2625     1.0  0.66280  0.54731  0.72881  1.0000
  C   C2626     1.0  0.99336  0.87731  0.69096  1.0000
  H   H2105     1.0  0.80996  0.55534  0.72939  1.0000
  C   C2627     1.0  0.76933  0.50270  0.67753  1.0000
  C   C2628     1.0  0.79232  0.55953  0.73118  1.0000
  C   C2629     1.0  0.74584  0.79901  0.73137  1.0000
  C   C2630     1.0  0.72863  0.64137  0.73186  1.0000
  H   H2106     1.0  0.78113  0.75283  0.73020  1.0000
  P   P87       1.0  0.71647  0.80723  0.73081  1.0000
  H   H2107     1.0  0.98481  0.89321  0.66145  1.0000
  C   C2631     1.0  0.69564  0.76664  0.73026  1.0000
  H   H2108     1.0  0.68073  0.84281  0.73167  1.0000
  C   C2632     1.0  0.76295  0.58828  0.73272  1.0000
  H   H2109     1.0  0.71743  0.98589  0.48437  1.0000
  C   C2633     1.0  0.99330  0.51456  0.51693  1.0000
  H   H2110     1.0  0.75785  0.60568  0.73321  1.0000
  C   C2634     1.0  0.99501  0.54930  0.48440  1.0000
  Fe  Fe179     1.0  0.66636  0.89712  0.86543  1.0000
  S   S353      1.0  0.69378  0.91686  0.87644  1.0000
  S   S354      1.0  0.64727  0.86925  0.88238  1.0000
  Fe  Fe180     1.0  0.66563  0.92402  0.82466  1.0000
  S   S355      1.0  0.69226  0.94675  0.83313  1.0000
  S   S356      1.0  0.65228  0.92624  0.79260  1.0000
  Fe  Fe181     1.0  0.70993  0.91465  0.84413  1.0000
  S   S357      1.0  0.74766  0.90975  0.83596  1.0000
  Fe  Fe182     1.0  0.67377  0.94734  0.86461  1.0000
  S   S358      1.0  0.66869  0.97457  0.88857  1.0000
  S   S359      1.0  0.68396  0.89229  0.83446  1.0000
  S   S360      1.0  0.64573  0.92724  0.85488  1.0000
  Fe  Fe183     1.0  0.67621  0.52865  0.87101  1.0000
  H   H2111     1.0  0.79551  0.82024  0.74194  1.0000
  S   S361      1.0  0.67659  0.55040  0.89848  1.0000
  Fe  Fe184     1.0  0.65487  0.51554  0.83223  1.0000
  H   H2112     1.0  0.52743  0.53109  0.89047  1.0000
  S   S362      1.0  0.62535  0.51825  0.81190  1.0000
  C   C2635     1.0  0.98173  0.77099  0.81727  1.0000
  Fe  Fe185     1.0  0.70575  0.52023  0.83151  1.0000
  S   S363      1.0  0.73026  0.53686  0.80740  1.0000
  C   C2636     1.0  0.82603  0.52092  0.75249  1.0000
  S   S364      1.0  0.67644  0.54354  0.83866  1.0000
  Fe  Fe186     1.0  0.89566  0.59917  0.75110  1.0000
  H   H2113     1.0  0.98948  0.71967  0.75268  1.0000
  C   C2637     1.0  0.79474  0.94106  0.74797  1.0000
  Fe  Fe187     1.0  0.85098  0.58324  0.77306  1.0000
  S   S365      1.0  0.83090  0.61129  0.75801  1.0000
  S   S366      1.0  0.83424  0.55787  0.79627  1.0000
  H   H2114     1.0  0.98005  0.59201  0.80295  1.0000
  C   C2638     1.0  0.68772  0.82670  0.88291  1.0000
  Fe  Fe188     1.0  0.85900  0.63305  0.76456  1.0000
  S   S367      1.0  0.85360  0.66607  0.77999  1.0000
  C   C2639     1.0  0.61042  0.51146  0.73609  1.0000
  S   S368      1.0  0.87802  0.60556  0.78189  1.0000
  Fe  Fe189     1.0  0.84536  0.83247  0.77303  1.0000
  C   C2640     1.0  0.70332  0.51477  0.95717  1.0000
  S   S369      1.0  0.80877  0.83810  0.78568  1.0000
  Fe  Fe190     1.0  0.89726  0.82786  0.77306  1.0000
  C   C2641     1.0  0.56395  0.85862  0.75293  1.0000
  S   S370      1.0  0.92933  0.82859  0.79094  1.0000
  C   C2642     1.0  0.98536  0.74933  0.81024  1.0000
  H   H2115     1.0  0.59795  0.57711  0.90739  1.0000
  Fe  Fe191     1.0  0.87159  0.79445  0.75062  1.0000
  H   H2116     1.0  0.70842  0.53860  0.76885  1.0000
  S   S371      1.0  0.87285  0.85681  0.76516  1.0000
  S   S372      1.0  0.86959  0.80443  0.78355  1.0000
  H   H2117     1.0  0.70135  0.84519  0.83343  1.0000
  H   H2118     1.0  0.70851  0.82809  0.90851  1.0000
  H   H2119     1.0  0.95736  0.79597  0.82758  1.0000
  C   C2643     1.0  0.96371  0.82826  0.75982  1.0000
  C   C2644     1.0  0.95776  0.82976  0.78089  1.0000
  C   C2645     1.0  0.97485  0.83269  0.79441  1.0000
  C   C2646     1.0  0.72288  0.84554  0.85877  1.0000
  H   H2120     1.0  0.81907  0.88211  0.76394  1.0000
  H   H2121     1.0  0.95099  0.82569  0.74917  1.0000
  H   H2122     1.0  0.97060  0.83386  0.81074  1.0000
  C   C2647     1.0  0.86012  0.69221  0.76766  1.0000
  C   C2648     1.0  0.85684  0.71157  0.77886  1.0000
  C   C2649     1.0  0.86135  0.73277  0.76947  1.0000
  C   C2650     1.0  0.86920  0.73470  0.74877  1.0000
  C   C2651     1.0  0.74776  0.49597  0.75861  1.0000
  C   C2652     1.0  0.86823  0.69415  0.74703  1.0000
  H   H2123     1.0  0.85059  0.71017  0.79483  1.0000
  H   H2124     1.0  0.85860  0.74758  0.77817  1.0000
  H   H2125     1.0  0.81674  0.53105  0.76355  1.0000
  H   H2126     1.0  0.96884  0.71995  0.80174  1.0000
  H   H2127     1.0  0.91674  0.71074  0.77774  1.0000
  C   C2653     1.0  0.66928  0.52559  0.73586  1.0000
  C   C2654     1.0  0.95850  0.59962  0.75536  1.0000
  C   C2655     1.0  0.95920  0.59571  0.77680  1.0000
  C   C2656     1.0  0.81777  0.93743  0.74931  1.0000
  C   C2657     1.0  0.86168  0.50673  0.73848  1.0000
  H   H2128     1.0  0.94397  0.59219  0.78590  1.0000
  H   H2129     1.0  0.93137  0.73333  0.81380  1.0000
  C   C2658     1.0  0.75903  0.54346  0.80569  1.0000
  C   C2659     1.0  0.77437  0.53420  0.81954  1.0000
  C   C2660     1.0  0.79724  0.53894  0.81658  1.0000
  C   C2661     1.0  0.80502  0.55339  0.80008  1.0000
  C   C2662     1.0  0.78954  0.56310  0.78660  1.0000
  C   C2663     1.0  0.76680  0.55799  0.78928  1.0000
  H   H2130     1.0  0.76873  0.52296  0.83221  1.0000
  H   H2131     1.0  0.80902  0.53128  0.82711  1.0000
  H   H2132     1.0  0.79519  0.57430  0.77392  1.0000
  H   H2133     1.0  0.75514  0.56533  0.77852  1.0000
  C   C2664     1.0  0.65373  0.56540  0.91021  1.0000
  C   C2665     1.0  0.65715  0.57697  0.92792  1.0000
  C   C2666     1.0  0.63925  0.58799  0.93855  1.0000
  C   C2667     1.0  0.61782  0.58809  0.93123  1.0000
  C   C2668     1.0  0.61447  0.57703  0.91319  1.0000
  C   C2669     1.0  0.63230  0.56545  0.90287  1.0000
  H   H2134     1.0  0.67366  0.57713  0.93370  1.0000
  C   C2670     1.0  0.60025  0.97533  0.92882  1.0000
  H   H2135     1.0  0.62939  0.55630  0.88948  1.0000
  C   C2671     1.0  0.62574  0.54123  0.79362  1.0000
  C   C2672     1.0  0.64314  0.55599  0.79269  1.0000
  C   C2673     1.0  0.64285  0.57489  0.77903  1.0000
  C   C2674     1.0  0.62558  0.57888  0.76557  1.0000
  C   C2675     1.0  0.60843  0.56376  0.76586  1.0000
  C   C2676     1.0  0.60839  0.54507  0.78007  1.0000
  H   H2136     1.0  0.65689  0.55296  0.80247  1.0000
  H   H2137     1.0  0.65637  0.58623  0.77867  1.0000
  H   H2138     1.0  0.59503  0.56672  0.75546  1.0000
  H   H2139     1.0  0.59487  0.53368  0.78065  1.0000
  C   C2677     1.0  0.76410  0.89005  0.82118  1.0000
  C   C2678     1.0  0.75477  0.87274  0.81138  1.0000
  C   C2679     1.0  0.76866  0.85717  0.80055  1.0000
  C   C2680     1.0  0.79206  0.85880  0.79903  1.0000
  C   C2681     1.0  0.80133  0.87640  0.80844  1.0000
  C   C2682     1.0  0.78746  0.89179  0.81947  1.0000
  H   H2140     1.0  0.73686  0.87129  0.81223  1.0000
  H   H2141     1.0  0.76119  0.84378  0.79325  1.0000
  H   H2142     1.0  0.81922  0.87799  0.80748  1.0000
  H   H2143     1.0  0.79494  0.90511  0.82686  1.0000
  H   H2144     1.0  0.90489  0.74939  0.78446  1.0000
  H   H2145     1.0  0.59975  0.90434  0.82120  1.0000
  C   C2683     1.0  0.64501  0.90079  0.78273  1.0000
  C   C2684     1.0  0.64087  0.88194  0.79588  1.0000
  C   C2685     1.0  0.63473  0.86201  0.78772  1.0000
  C   C2686     1.0  0.63261  0.86075  0.76638  1.0000
  C   C2687     1.0  0.63714  0.87946  0.75317  1.0000
  C   C2688     1.0  0.64344  0.89935  0.76136  1.0000
  H   H2146     1.0  0.64203  0.88283  0.81238  1.0000
  H   H2147     1.0  0.63125  0.84762  0.79804  1.0000
  C   C2689     1.0  0.53528  0.89650  0.75015  1.0000
  H   H2148     1.0  0.64738  0.91361  0.75111  1.0000
  C   C2690     1.0  0.65019  0.86579  0.90922  1.0000
  C   C2691     1.0  0.63306  0.85613  0.92183  1.0000
  C   C2692     1.0  0.63476  0.85344  0.94333  1.0000
  C   C2693     1.0  0.65401  0.85974  0.95222  1.0000
  C   C2694     1.0  0.67153  0.86860  0.93950  1.0000
  C   C2695     1.0  0.66948  0.87200  0.91808  1.0000
  H   H2149     1.0  0.61817  0.85124  0.91498  1.0000
  H   H2150     1.0  0.62124  0.84649  0.95300  1.0000
  H   H2151     1.0  0.68657  0.87310  0.94630  1.0000
  H   H2152     1.0  0.68289  0.87913  0.90839  1.0000
  C   C2696     1.0  0.72544  0.84005  0.87983  1.0000
  H   H2153     1.0  0.51896  0.53127  0.85347  1.0000
  Fe  Fe192     1.0  0.59653  0.61084  0.97748  1.0000
  H   H2154     1.0  0.67362  0.82061  0.89245  1.0000
  C   C2697     1.0  0.76432  0.83435  0.93131  1.0000
  H   H2155     1.0  0.73062  0.93534  0.91460  1.0000
  C   C2698     1.0  0.61370  0.69452  0.95719  1.0000
  H   H2156     1.0  0.73775  0.58832  0.97461  1.0000
  H   H2157     1.0  0.64208  0.59654  0.95233  1.0000
  C   C2699     1.0  0.73447  0.90536  0.76028  1.0000
  H   H2158     1.0  0.92532  0.77175  0.82587  1.0000
  H   H2159     1.0  0.54848  0.49928  0.90664  1.0000
  C   C2700     1.0  0.49993  0.81033  0.96130  1.0000
  H   H2160     1.0  0.89933  0.64690  0.79480  1.0000
  H   H2161     1.0  0.58726  0.81128  0.93348  1.0000
  C   C2701     1.0  0.57236  0.87987  0.75393  1.0000
  C   C2702     1.0  0.94546  0.74382  0.81479  1.0000
  C   C2703     1.0  0.63329  0.70564  0.95945  1.0000
  C   C2704     1.0  0.68562  0.83144  0.86175  1.0000
  H   H2162     1.0  0.50960  0.87335  0.74588  1.0000
  C   C2705     1.0  0.78116  0.49638  0.77774  1.0000
  C   C2706     1.0  0.95087  0.73786  0.74163  1.0000
  S   S373      1.0  0.65182  0.50248  0.86552  1.0000
  C   C2707     1.0  0.71693  0.90828  0.77529  1.0000
  H   H2163     1.0  0.60583  0.75859  0.86820  1.0000
  H   H2164     1.0  0.53500  0.83987  0.74852  1.0000
  P   P88       1.0  0.61564  0.77055  0.94218  1.0000
  H   H2165     1.0  0.87089  0.67937  0.73828  1.0000
  H   H2166     1.0  0.94530  0.89198  0.78342  1.0000
  C   C2708     1.0  0.74580  0.87447  0.89956  1.0000
  C   C2709     1.0  0.70751  0.83108  0.89197  1.0000
  H   H2167     1.0  0.52391  0.91085  0.74853  1.0000
  C   C2710     1.0  0.94398  0.67257  0.77054  1.0000
  C   C2711     1.0  0.58815  0.98642  0.96310  1.0000
  C   C2712     1.0  0.56259  0.81253  0.95856  1.0000
  C   C2713     1.0  0.79427  0.85489  0.87660  1.0000
  H   H2168     1.0  0.99022  0.83036  0.73604  1.0000
  C   C2714     1.0  0.78025  0.92336  0.75202  1.0000
  H   H2169     1.0  0.69587  0.57687  0.75719  1.0000
  C   C2715     1.0  0.98917  0.66767  0.73418  1.0000
  C   C2716     1.0  0.67272  0.56570  0.73618  1.0000
  H   H2170     1.0  0.84439  0.91328  0.75582  1.0000
  C   C2717     1.0  0.76797  0.81928  0.94816  1.0000
  H   H2171     1.0  0.79372  0.81515  0.83152  1.0000
  C   C2718     1.0  0.73153  0.97124  0.75736  1.0000
  H   H2172     1.0  0.62346  0.92856  0.92021  1.0000
  H   H2173     1.0  0.66293  0.65619  0.90143  1.0000
  C   C2719     1.0  0.51556  0.96942  0.76108  1.0000
  C   C2720     1.0  0.70268  0.63542  0.76153  1.0000
  C   C2721     1.0  0.92182  0.66642  0.77491  1.0000
  H   H2174     1.0  0.90858  0.67308  0.76539  1.0000
  P   P89       1.0  0.75052  0.92874  0.75028  1.0000
  C   C2722     1.0  0.70512  0.80935  0.75717  1.0000
  C   C2723     1.0  0.59898  0.93996  0.81503  1.0000
  S   S374      1.0  0.62416  0.83556  0.75692  1.0000
  H   H2175     1.0  0.61015  0.90002  0.89878  1.0000
  H   H2176     1.0  0.76838  0.85166  0.93230  1.0000
  C   C2724     1.0  0.49856  0.77258  0.97688  1.0000
  H   H2177     1.0  0.52746  0.77344  0.93003  1.0000
  H   H2178     1.0  0.73590  0.85390  0.84945  1.0000
  H   H2179     1.0  0.61344  0.50687  0.75206  1.0000
  H   H2180     1.0  0.82886  0.95109  0.74582  1.0000
  C   C2725     1.0  0.91651  0.65143  0.79155  1.0000
  C   C2726     1.0  0.60259  0.90194  0.91420  1.0000
  C   C2727     1.0  0.58606  0.88762  0.92209  1.0000
  C   C2728     1.0  0.57724  0.88936  0.94234  1.0000
  C   C2729     1.0  0.58436  0.90590  0.95449  1.0000
  C   C2730     1.0  0.60039  0.92097  0.94643  1.0000
  C   C2731     1.0  0.61000  0.91827  0.92641  1.0000
  C   C2732     1.0  0.68625  0.52255  0.74990  1.0000
  H   H2181     1.0  0.58123  0.96719  0.77130  1.0000
  H   H2182     1.0  0.64147  0.97871  0.95193  1.0000
  C   C2733     1.0  0.97976  0.59561  0.78644  1.0000
  H   H2183     1.0  0.92324  0.78096  0.76531  1.0000
  H   H2184     1.0  0.57517  0.84398  0.75355  1.0000
  C   C2734     1.0  0.72345  0.86733  0.75717  1.0000
  H   H2185     1.0  0.87970  0.50558  0.73877  1.0000
  C   C2735     1.0  0.61111  0.53297  0.96692  1.0000
  C   C2736     1.0  0.68192  0.80927  0.76142  1.0000
  C   C2737     1.0  0.51786  0.77957  0.94333  1.0000
  C   C2738     1.0  0.51085  0.76465  0.95954  1.0000
  C   C2739     1.0  0.61018  0.76351  0.90038  1.0000
  H   H2186     1.0  0.63575  0.87865  0.73668  1.0000
  H   H2187     1.0  0.75653  0.83216  0.73682  1.0000
  H   H2188     1.0  0.60848  0.96375  0.91847  1.0000
  H   H2189     1.0  0.77861  0.88838  0.76254  1.0000
  H   H2190     1.0  0.50046  0.99255  0.73881  1.0000
  C   C2740     1.0  0.65987  0.78353  0.94095  1.0000
  H   H2191     1.0  0.58064  0.87475  0.91270  1.0000
  H   H2192     1.0  0.56497  0.87778  0.94879  1.0000
  H   H2193     1.0  0.99365  0.70362  0.82782  1.0000
  C   C2741     1.0  0.64000  0.67396  0.78673  1.0000
  H   H2194     1.0  0.72732  0.55013  0.96849  1.0000
  C   C2742     1.0  0.75512  0.78926  0.92907  1.0000
  H   H2195     1.0  0.92921  0.62990  0.81621  1.0000
  C   C2743     1.0  0.52700  0.87522  0.74872  1.0000
  H   H2196     1.0  0.58363  0.89652  0.78864  1.0000
  C   C2744     1.0  0.74866  0.95141  0.78640  1.0000
  H   H2197     1.0  0.75742  0.93680  0.79311  1.0000
  C   C2745     1.0  0.74331  0.95239  0.76557  1.0000
  C   C2746     1.0  0.59382  0.95760  0.80091  1.0000
  C   C2747     1.0  0.75143  0.80429  0.91221  1.0000
  H   H2198     1.0  0.76089  0.81840  0.85595  1.0000
  S   S375      1.0  0.70698  0.50663  0.86458  1.0000
  C   C2748     1.0  0.98043  0.68786  0.74189  1.0000
  H   H2199     1.0  0.74104  0.53706  0.73628  1.0000
  S   S376      1.0  0.62606  0.60333  0.74919  1.0000
  C   C2749     1.0  0.82653  0.91616  0.75493  1.0000
  H   H2200     1.0  0.55533  0.82850  0.95315  1.0000
  C   C2750     1.0  0.73009  0.98757  0.79078  1.0000
  C   C2751     1.0  0.58072  0.93134  0.77752  1.0000
  H   H2201     1.0  0.73899  0.49917  0.74458  1.0000
  H   H2202     1.0  0.79838  0.50013  0.77905  1.0000
  C   C2752     1.0  0.51233  0.80239  0.94417  1.0000
  C   C2753     1.0  0.73737  0.88481  0.75101  1.0000
  C   C2754     1.0  0.72066  0.51993  0.92251  1.0000
  H   H2203     1.0  0.64443  0.69696  0.81029  1.0000
  C   C2755     1.0  0.58604  0.91368  0.79181  1.0000
  H   H2204     1.0  0.82697  0.83690  0.83570  1.0000
  C   C2756     1.0  0.93862  0.87163  0.73639  1.0000
  H   H2205     1.0  0.50384  0.97378  0.77366  1.0000
  C   C2757     1.0  0.76328  0.79677  0.94708  1.0000
  C   C2758     1.0  0.68693  0.81311  0.79781  1.0000
  C   C2759     1.0  0.71004  0.81288  0.79384  1.0000
  C   C2760     1.0  0.71913  0.81089  0.77365  1.0000
  H   H2206     1.0  0.77454  0.82505  0.96204  1.0000
  H   H2207     1.0  0.98362  0.76375  0.77104  1.0000
  P   P90       1.0  0.78493  0.51365  0.73647  1.0000
  H   H2208     1.0  0.68240  0.97741  0.94961  1.0000
  C   C2761     1.0  0.97863  0.60404  0.74386  1.0000
  H   H2209     1.0  0.71344  0.92410  0.78225  1.0000
  C   C2762     1.0  0.61060  0.77009  0.87930  1.0000
  P   P91       1.0  0.56960  0.92637  0.75292  1.0000
  C   C2763     1.0  0.55444  0.80240  0.97726  1.0000
  H   H2210     1.0  0.91872  0.87114  0.76509  1.0000
  C   C2764     1.0  0.58473  0.95334  0.78224  1.0000
  C   C2765     1.0  0.68897  0.56258  0.75075  1.0000
  P   P92       1.0  0.60882  0.94370  0.96113  1.0000
  C   C2766     1.0  0.62663  0.53121  0.95018  1.0000
  C   C2767     1.0  0.58079  0.80271  0.94751  1.0000
  H   H2211     1.0  0.74558  0.96765  0.81519  1.0000
  C   C2768     1.0  0.81496  0.51035  0.73750  1.0000
  S   S377      1.0  0.87472  0.76086  0.73604  1.0000
  H   H2212     1.0  0.67983  0.81487  0.81339  1.0000
  H   H2213     1.0  0.72096  0.81442  0.80637  1.0000
  H   H2214     1.0  0.73706  0.81084  0.77112  1.0000
  C   C2769     1.0  0.53513  0.49905  0.84886  1.0000
  C   C2770     1.0  0.84922  0.51897  0.75308  1.0000
  H   H2215     1.0  0.99174  0.78457  0.73801  1.0000
  H   H2216     1.0  0.69443  0.85726  0.77597  1.0000
  C   C2771     1.0  0.55809  0.89899  0.75286  1.0000
  C   C2772     1.0  0.72127  0.58285  0.97966  1.0000
  H   H2217     1.0  0.62837  0.82303  0.88157  1.0000
  C   C2773     1.0  0.92824  0.76396  0.76181  1.0000
  H   H2218     1.0  0.71543  0.90333  0.93604  1.0000
  H   H2219     1.0  0.97803  0.66741  0.77987  1.0000
  C   C2774     1.0  0.93378  0.87688  0.75692  1.0000
  C   C2775     1.0  0.54131  0.85630  0.75019  1.0000
  C   C2776     1.0  0.67800  0.79352  0.94876  1.0000
  C   C2777     1.0  0.59507  0.91804  0.81050  1.0000
  H   H2220     1.0  0.66993  0.82890  0.85495  1.0000
  C   C2778     1.0  0.61214  0.55957  0.84464  1.0000
  C   C2779     1.0  0.59394  0.56365  0.83231  1.0000
  C   C2780     1.0  0.59060  0.58463  0.82224  1.0000
  C   C2781     1.0  0.60557  0.60147  0.82434  1.0000
  C   C2782     1.0  0.62454  0.59711  0.83586  1.0000
  C   C2783     1.0  0.62734  0.57623  0.84643  1.0000
  P   P93       1.0  0.64401  0.61858  0.83916  1.0000
  C   C2784     1.0  0.64251  0.64035  0.81867  1.0000
  C   C2785     1.0  0.63786  0.62970  0.86431  1.0000
  C   C2786     1.0  0.65414  0.64107  0.87380  1.0000
  C   C2787     1.0  0.65010  0.64802  0.89395  1.0000
  C   C2788     1.0  0.62974  0.64384  0.90469  1.0000
  C   C2789     1.0  0.61328  0.63304  0.89517  1.0000
  C   C2790     1.0  0.61728  0.62598  0.87509  1.0000
  C   C2791     1.0  0.64436  0.66289  0.82287  1.0000
  C   C2792     1.0  0.63959  0.63488  0.79824  1.0000
  C   C2793     1.0  0.67187  0.60569  0.83820  1.0000
  C   C2794     1.0  0.68144  0.59721  0.85648  1.0000
  C   C2795     1.0  0.70293  0.58727  0.85578  1.0000
  C   C2796     1.0  0.71489  0.58525  0.83683  1.0000
  C   C2797     1.0  0.70533  0.59309  0.81854  1.0000
  C   C2798     1.0  0.68391  0.60326  0.81918  1.0000
  H   H2221     1.0  0.61485  0.54322  0.85227  1.0000
  H   H2222     1.0  0.58276  0.55036  0.83022  1.0000
  H   H2223     1.0  0.57660  0.58774  0.81252  1.0000
  H   H2224     1.0  0.60229  0.61773  0.81680  1.0000
  H   H2225     1.0  0.64133  0.57279  0.85605  1.0000
  H   H2226     1.0  0.67019  0.64398  0.86584  1.0000
  H   H2227     1.0  0.62678  0.64855  0.92053  1.0000
  H   H2228     1.0  0.59766  0.62946  0.90369  1.0000
  H   H2229     1.0  0.60444  0.61713  0.86832  1.0000
  H   H2230     1.0  0.64663  0.66768  0.83839  1.0000
  H   H2231     1.0  0.63797  0.61770  0.79452  1.0000
  H   H2232     1.0  0.67218  0.59762  0.87130  1.0000
  H   H2233     1.0  0.70995  0.58034  0.86990  1.0000
  H   H2234     1.0  0.73125  0.57685  0.83619  1.0000
  H   H2235     1.0  0.71437  0.59060  0.80385  1.0000
  H   H2236     1.0  0.67672  0.60869  0.80479  1.0000
  C   C2799     1.0  0.94879  0.88869  0.76728  1.0000
  H   H2237     1.0  0.78823  0.95770  0.74370  1.0000
  C   C2800     1.0  0.91817  0.74613  0.77288  1.0000
  C   C2801     1.0  0.92500  0.72413  0.76894  1.0000
  C   C2802     1.0  0.68773  0.62640  0.74889  1.0000
  H   H2238     1.0  0.64749  0.69655  0.96590  1.0000
  H   H2239     1.0  0.76391  0.89015  0.87316  1.0000
  H   H2240     1.0  0.73457  0.65022  0.76278  1.0000
  C   C2803     1.0  0.70324  0.84076  0.84968  1.0000
  H   H2241     1.0  0.53161  0.49921  0.83264  1.0000
  C   C2804     1.0  0.59093  0.78258  0.95514  1.0000
  H   H2242     1.0  0.66110  0.52766  0.94023  1.0000
  H   H2243     1.0  0.53379  0.94503  0.77972  1.0000
  C   C2805     1.0  0.87267  0.71534  0.73763  1.0000
  C   C2806     1.0  0.53279  0.51700  0.88142  1.0000
  H   H2244     1.0  0.57972  0.69763  0.94835  1.0000
  C   C2807     1.0  0.64937  0.52790  0.95348  1.0000
  C   C2808     1.0  0.64313  0.67960  0.80694  1.0000
  C   C2809     1.0  0.63822  0.65160  0.78240  1.0000
  C   C2810     1.0  0.59782  0.97014  0.95022  1.0000
  H   H2245     1.0  0.63547  0.64715  0.76678  1.0000
  H   H2246     1.0  0.96852  0.64019  0.80849  1.0000
  H   H2247     1.0  0.72276  0.53003  0.90817  1.0000
  H   H2248     1.0  0.64938  0.73692  0.95689  1.0000
  C   C2811     1.0  0.73525  0.91839  0.91070  1.0000
  H   H2249     1.0  0.57581  0.52045  0.74317  1.0000
  C   C2812     1.0  0.73183  0.49913  0.92479  1.0000
  H   H2250     1.0  0.72590  0.85160  0.75019  1.0000
  H   H2251     1.0  0.85749  0.52730  0.76475  1.0000
  H   H2252     1.0  0.51471  0.74698  0.95831  1.0000
  H   H2253     1.0  0.63876  0.68689  0.77442  1.0000
  C   C2813     1.0  0.81298  0.85258  0.86291  1.0000
  H   H2254     1.0  0.61446  0.94556  0.74937  1.0000
  C   C2814     1.0  0.73179  0.87847  0.91715  1.0000
  H   H2255     1.0  0.60515  0.74685  0.90525  1.0000
  C   C2815     1.0  0.96076  0.66328  0.78300  1.0000
  C   C2816     1.0  0.79387  0.82608  0.84426  1.0000
  C   C2817     1.0  0.77515  0.82830  0.85795  1.0000
  C   C2818     1.0  0.59498  0.70629  0.94978  1.0000
  H   H2256     1.0  0.61290  0.67686  0.96174  1.0000
  H   H2257     1.0  0.62785  0.81143  0.91868  1.0000
  H   H2258     1.0  0.69168  0.50596  0.75540  1.0000
  C   C2819     1.0  0.63975  0.78154  0.95297  1.0000
  C   C2820     1.0  0.65673  0.52610  0.97366  1.0000
  H   H2259     1.0  0.75179  0.77174  0.92812  1.0000
  H   H2260     1.0  0.69845  0.54413  0.93678  1.0000
  C   C2821     1.0  0.70590  0.87043  0.77186  1.0000
  S   S378      1.0  0.93347  0.59780  0.74191  1.0000
  H   H2261     1.0  0.60659  0.94322  0.82922  1.0000
  H   H2262     1.0  0.69834  0.63680  0.77787  1.0000
  H   H2263     1.0  0.58100  0.73827  0.93952  1.0000
  H   H2264     1.0  0.68887  0.89351  0.79184  1.0000
  C   C2822     1.0  0.93332  0.64202  0.80369  1.0000
  C   C2823     1.0  0.74194  0.96888  0.79897  1.0000
  C   C2824     1.0  0.96689  0.73608  0.80842  1.0000
  C   C2825     1.0  0.70274  0.89088  0.78088  1.0000
  C   C2826     1.0  0.75561  0.82702  0.91337  1.0000
  C   C2827     1.0  0.58249  0.77247  0.97387  1.0000
  C   C2828     1.0  0.67630  0.80121  0.96874  1.0000
  C   C2829     1.0  0.62333  0.80635  0.88677  1.0000
  C   C2830     1.0  0.61626  0.77839  0.91481  1.0000
  S   S379      1.0  0.87043  0.57401  0.74357  1.0000
  H   H2265     1.0  0.59739  0.97453  0.80426  1.0000
  C   C2831     1.0  0.61540  0.74060  0.94717  1.0000
  C   C2832     1.0  0.54787  0.94751  0.74825  1.0000
  C   C2833     1.0  0.59579  0.72925  0.94479  1.0000
  H   H2266     1.0  0.65496  0.81152  0.78461  1.0000
  H   H2267     1.0  0.97991  0.90532  0.76487  1.0000
  C   C2834     1.0  0.95543  0.64793  0.79940  1.0000
  C   C2835     1.0  0.70663  0.52778  0.93868  1.0000
  C   C2836     1.0  0.81270  0.83833  0.84665  1.0000
  C   C2837     1.0  0.77489  0.84338  0.87377  1.0000
  P   P94       1.0  0.75078  0.84628  0.89158  1.0000
  C   C2838     1.0  0.75408  0.89268  0.88739  1.0000
  C   C2839     1.0  0.77033  0.50117  0.75927  1.0000
  H   H2268     1.0  0.75484  0.92845  0.88307  1.0000
  H   H2269     1.0  0.82765  0.86202  0.86474  1.0000
  C   C2840     1.0  0.63421  0.72859  0.95444  1.0000
  C   C2841     1.0  0.67292  0.81121  0.78162  1.0000
  H   H2270     1.0  0.59048  0.75743  0.98054  1.0000
  C   C2842     1.0  0.74893  0.91453  0.89300  1.0000
  S   S380      1.0  0.59504  0.60231  0.94391  1.0000
  H   H2271     1.0  0.61733  0.79666  0.85620  1.0000
  H   H2272     1.0  0.72437  0.86472  0.92626  1.0000
  S   S381      1.0  0.90014  0.81624  0.74096  1.0000
  H   H2273     1.0  0.51772  0.81396  0.93162  1.0000
  C   C2843     1.0  0.78919  0.90216  0.75822  1.0000
  H   H2274     1.0  0.59012  0.88139  0.75514  1.0000
  H   H2275     1.0  0.66144  0.77775  0.92541  1.0000
  C   C2844     1.0  0.63848  0.78864  0.97326  1.0000
  C   C2845     1.0  0.61712  0.79151  0.87250  1.0000
  C   C2846     1.0  0.62295  0.79979  0.90780  1.0000
  C   C2847     1.0  0.72665  0.90035  0.92275  1.0000
  H   H2276     1.0  0.79484  0.86588  0.88920  1.0000
  C   C2848     1.0  0.94204  0.76538  0.82173  1.0000
  H   H2277     1.0  0.62111  0.53329  0.93457  1.0000
  C   C2849     1.0  0.81225  0.89856  0.75938  1.0000
  H   H2278     1.0  0.74535  0.79820  0.89825  1.0000
  H   H2279     1.0  0.53290  0.75224  0.73855  1.0000
  C   C2850     1.0  0.96014  0.77900  0.82282  1.0000
  C   C2851     1.0  0.69590  0.54101  0.75746  1.0000
  C   C2852     1.0  0.53257  0.95320  0.76447  1.0000
  C   C2853     1.0  0.67423  0.92241  0.96206  1.0000
  H   H2280     1.0  0.70368  0.94165  0.95655  1.0000
  H   H2281     1.0  0.69324  0.79567  0.93925  1.0000
  C   C2854     1.0  0.98606  0.83090  0.75235  1.0000
  H   H2282     1.0  0.57748  0.90635  0.97019  1.0000
  H   H2283     1.0  0.76618  0.78510  0.96013  1.0000
  H   H2284     1.0  0.59366  0.53664  0.96426  1.0000
  P   P95       1.0  0.95071  0.69122  0.74839  1.0000
  C   C2855     1.0  0.72195  0.99208  0.91942  1.0000
  H   H2285     1.0  0.67062  0.80797  0.74911  1.0000
  C   C2856     1.0  0.72306  0.64300  0.75299  1.0000
  C   C2857     1.0  0.94196  0.71977  0.75370  1.0000
  C   C2858     1.0  0.97307  0.89116  0.73622  1.0000
  H   H2286     1.0  0.70096  0.76333  0.74585  1.0000
  H   H2287     1.0  0.94068  0.64682  0.73547  1.0000
  H   H2288     1.0  0.67167  0.62093  0.75532  1.0000
  C   C2859     1.0  0.54479  0.49889  0.89054  1.0000
  C   C2860     1.0  0.94431  0.75986  0.74596  1.0000
  C   C2861     1.0  0.52802  0.51711  0.86058  1.0000
  H   H2289     1.0  0.64233  0.90749  0.96642  1.0000
  C   C2862     1.0  0.61120  0.93857  0.73489  1.0000
  H   H2290     1.0  0.74289  0.97447  0.94130  1.0000
  C   C2863     1.0  0.51366  0.98001  0.74146  1.0000
  C   C2864     1.0  0.75367  0.54939  0.73494  1.0000
  C   C2865     1.0  0.73065  0.98800  0.93887  1.0000
  H   H2291     1.0  0.64687  0.50317  0.77194  1.0000
  H   H2292     1.0  0.69001  0.80962  0.97465  1.0000
  C   C2866     1.0  0.65093  0.92288  0.96270  1.0000
  S   S382      1.0  0.84591  0.82043  0.74062  1.0000
  C   C2867     1.0  0.78379  0.80816  0.73788  1.0000
  C   C2868     1.0  0.96832  0.89604  0.75687  1.0000
  H   H2293     1.0  0.75009  0.88242  0.73877  1.0000
  C   C2869     1.0  0.63886  0.94314  0.95901  1.0000
  H   H2294     1.0  0.95146  0.77382  0.73699  1.0000
  H   H2295     1.0  0.49890  0.87674  0.97628  1.0000
  H   H2296     1.0  0.80824  0.78082  0.73791  1.0000
  C   C2870     1.0  0.72499  0.98880  0.76997  1.0000
  H   H2297     1.0  0.72712  0.97233  0.74139  1.0000
  C   C2871     1.0  0.65038  0.96284  0.95455  1.0000
  C   C2872     1.0  0.67368  0.96221  0.95347  1.0000
  C   C2873     1.0  0.71518  0.56123  0.97604  1.0000
  C   C2874     1.0  0.68563  0.94204  0.95727  1.0000
  H   H2298     1.0  0.68331  0.90676  0.96539  1.0000
  P   P96       1.0  0.68612  0.52582  0.97834  1.0000
  S   S383      1.0  0.65678  0.85670  0.97908  1.0000
  H   H2299     1.0  0.58664  0.98336  0.97968  1.0000
  H   H2300     1.0  0.72950  0.57695  0.73473  1.0000
  C   C2875     1.0  0.69375  0.55406  0.98235  1.0000
  H   H2301     1.0  0.72726  0.98172  0.90675  1.0000
  C   C2876     1.0  0.65666  0.79850  0.98105  1.0000
  S   S384      1.0  0.87739  0.62769  0.73417  1.0000
  H   H2302     1.0  0.56454  0.94154  0.98257  1.0000
  C   C2877     1.0  0.77644  0.54294  0.73419  1.0000
  C   C2878     1.0  0.74700  0.57200  0.73410  1.0000
  H   H2303     1.0  0.49560  0.82800  0.96200  1.0000
  H   H2304     1.0  0.62342  0.78696  0.98307  1.0000
  C   C2879     1.0  0.79090  0.78590  0.73584  1.0000
  C   C2880     1.0  0.76152  0.81480  0.73521  1.0000
