data_image0
_chemical_formula_structural       FeSH2SC2HFeS2FeS2FeSFeS3FeS2FeSHFeSFeHS2CHCHC3H2CHC8H4C3HCH2CHC7H4C6H7SH3SC2HCHCHC4PC3HC7HCH4CH6SCH2C2H2SCH2C3PHC17H2C2H4CHPCHC2H2C2HC6H2C3HCHCHCH3C3H5CH2C5HC2H3CHC7PC9H14C7PC5HC7H9FeCH7FeSH5C2HCHSH3C4H2CSC4HCHC2HCH2C5HC3HC4H3C2H2C2HCHC2H2CHFeHPCPH2C2HC3H2C5H2CHC2SH2CHCH2C3SCH3CFeCHCHCFeS2FeS2FeSFeS3FeS2PH3FeHS2CH3SH2C2H2C6H4C8H4C6H4FeH3CH4C2HC3PC2HC12H13CH2SCH4CHCHC8H2C2HC3SCHC4HC2HSCSHC2H2C2PC2HCFeHCHC3H2SHC2FeHSC3HPCHC2SCHC2SCHSFeC4H2CHC2HC2H3C2PCH2SCHC2HC7H3C8HFeHCHC2SH8C4HCH5C3H2C4H2CH4C2HC7HCH3C2H3CHC2H2CH2CHCHCH2C2HPCH3C10H5CHCHFeS2FeS2FeSFeS3FeSHFeS2FeSFeS3C2SH2FeS2FeSFeSFeS2H2PC2HC5HCHC5HCHCHCH2C4H2C6H4C6H5C3H3C7H4C5H3C3H2C3H4CH3CHC2HC2HC2H2C2H2CH6C2HC2HC2HCH3C6PC9H11C3H3C2PCHC5HCHC2HC2HC4H6C2HC8SCSPCHC2SPC20HC2H11CH3CH4C2HC2H3C5HC2H2CHCH3C2HC3H3C3H7C2H2C3PHCH2CHC3HC3H3C4H3CH2CHCH4CHC2HC3HC2FeS2FeSCFeSFeS3HSFeS2FeS2FeSFeS3HFeS2FeCSFeSHS2HC2HCHCH2CHC10H4C6H4CH2CHCHC6H4C6H2CHCH3C5H2CH2CHCPC3SCHC3HCHC3H2SHCSCH2CHC4HC2HCHC3HC5HC2H2C2HC5HCH4CH2CP2C16H12C6PC18H16CH4CH4C3HCSHC2HC4HC7H3CHC4HC2H2C2HC4HCHC2HC3H2CHPHC2H2C6H3CHC2HC4H2CH2CPFeCHCH3CH4C2HCHC2HC2HCHCHCH4CHC3HPH2C2H3C7HCH3CH3CHCHCH2CPH4CHCHCHC2FeS2FeS2FeSFeS3FeS2FeS2FeSFeS3FeSHFeSFeSFeHSCS2HFeCH2C2H2C4HC6H2CH3C7H4C3HCH2CH4C9H4CHC2HCH2C2HC4H2CHC3HCSCHC2H2FePCH2CHCHC2P2C16HCH13CH2C4H3CH4CH2SC6PC18H20C5PC17SH17C3HC2HCHC6HCH2C3HC2H10CH2CH3C2H4C2SCH2C3H2CFeCHC2HSHFeSHCSHCH2C3H4C3HPC3H2C2HCHC9H2CSC3HC2HC2H4CHCHC4HCHCSH2C9H2C2H2PH4C3HC3HCH3CHCPC3HC3FeCFeS2FeS2FeSFeS3FeS2FeS2FeSFeS3HCSHCSCFeSFeCSCFeHC2H3CH2CPHCH2SH2SC7HCH2C7H4C2HC3HC2HC6H11C3HCH6C4H3C3PC3HC7H3C2H5CH3CHCPCH4C3H2C4H3C2H2C4HCH4CH3C2HCHC10H2SH2C3H2CH3S2CHPC3H3CHCH2C4H3CHC7HCHCHCFeC6H2C3SC2H3C4H4FeH3C2HC2SH2C2H3CHC8H8CH2CHCHCHSC3H3CH2CH4C3HC2HC8HPCHCHC2HC11H2CPC2HCH5C2HCSC2HCHC2H2C4HC3HPHC3HC2HCHCH3CHFeC2H2C3FeHCHC4HFeS2FeSC2FeSHSCFeHFeS2FeS3FeS2FeS2FeSFeS3FeS2FeS2FeSFeS3H2C2HC2HCHC8H4C6H4CHCH2C7H7CH4CSC2FeCH3C4HC2H2CS2HCHCHC3H2CH3C2HC7HC2H3CHCHCHC4PC21H17C3H2CHCH2C6PC2H2C4HC9H5C4H10C2HCH2CH3SCH2C3HSHCH2C3HCH4C2HCHCH6C5HFeC2H2CHPCH2PCHC4HC5H2CHC7H2C2SH3PH4C6HC2H2C2HC2H2C4HCHC2HPCHCH4CHC5HCHCH6CHC4FeSFeS2FeSFeS3H2FeS2FeS2FeSFeS3FeSHFeS2Fe2S3FeSHFeSFeSHS2C6H4C6H4C4HCH7SH2P2C2H2C2H3C6H6CH2CH2C2HCH2CH2C3H3CHC2HCH3C3HC4H4C2H2CH2C7PC5HC8H2C2HC2H5CH2SH9SC5H2C2HCHC5HC3PC4HCHC9HFeCHCH8CH3C6PC3HC13H17CHC2HC2H2C2H2C2HC7PC19H17C2HCHCSC2HCHC3HCH2C3HCH3SC2HCH5CHC3HC3HC2HCSCFeS2FeSFeCSCFeS2Fe2SFeS2CHC3HCSHC2H3C6H4C3SCH2CH3C2H9C5H3CHCH3CHCHC2HC2HC5H2C2H3C2H3C6H2CHC2HCFeSH3CHCHCH3C3HC2PC7HCHSHC10PC5HC2HC6H8PH7C3H2CH2C3HPCHC2H3CH2CHC4HSHCH2C2HCHC2H3CHC10HC3HCHC5HCHC2H7CHCH2CHCHSC5HC2H2SCHCHCH5C2H2C5FeS2Fe3S3FeSCFeS2FeSFeS3C6H8CSHC3HC2H2CH3C2H3CH2CHCHC4SHCH3C3H3CH3C3HCH4C4HC3H2CH3C6H2CH3C2H3C2H3CHC3HC5PCHPC2HCHC3H5C2SH3CHC2HCHC2HCHCH2C6PH4CHC4HCHSCHCHC2H2CHC3H2C2H2CHC2H4C2H3CH3C4H2C3HCSC2HCPHC5PC5H2C2H2PHCHC3H3CHC6H3C3H2C4HSHFeSCHCSH4C2FeS2FeS2FeSFeS3C2HCHPH2CH3CHFeCHC3HC6H4CHFeC6HSH4CHPC2HS2C3HCH3C2H2CH2CHC2H2CHC2PC2HC4HC8H3CHCHCH2FeCHCHC3HC2HCSH2CH2SC3HSHC5PC3HCH2C2H5C5H2C2H2CHCHSHCHC6HC2H3CH2C6H2CH2C6PC4HCH5C2H3C3HC2HC3H2C5H2C4H2PCHC2HC3HC3HCH5CH2CPCHC5H5C3H2SC6FeHSFeHFeCHSFeS2FeS2FeCFeS3CHCHC2SC6H4C6HCH2C2HSCH2CHCHCHC2HSHCH4CH2CHCHCH2CH3CH2C7H3SHCH2C3SH2C2H3CHCH2C7PC18H20C2H2CH2C2FeC2PC3HCH2CSH2C4PC3H2C2H3C5H4CH2CHC3HCH2C2FeS2FeS2FeSFeS3FeSHFeSCFeSFeS3CHCSHFeSHCSH2FeC2HSH2C3H2CH3C3HC6H4C2H2C3HC4HCHC6H5C6H3C6PC7H2CHC4PC3H9CHCHC2HCHC2HCHCHC4HC2HC3H4CH2CHCHCH4CHC2H3C2H2CHC6HFe2H2SHSC2HCH2C4H2CHCH3C3H3CHC2HCHC2H2C2HCHCHCSHCH3CH3C8PC4H2C2HCHPCH2C4H3CH2CSHCHSHC5HC2H2CH6C3H2C6HSC3H2C2HC2H3SHSCFeSCFeSFeS2CFeS2FeS2FeSFeS3FeSCFeSHSHSC6HCH3P2C8H4C6H4C6H4CHPC5H2C2HSH3C5SC7PC18H12CH8C3HC6HCHCPHCFeH2CH2CHPCHC2H2CH3C2HCHCH2CH2FePCH2CHC7H2CH2CH2CH3C3HC2H3C2HC2HCH2CHC4HCH2CH2C2HC2H2C4H2C2H2FeHC2HC4HCHCSH2C4HCHC2HCHC2HC4H4C2HC3H2C2HCH2CH4C2H4C2HC5HCHCH2CH3CHC4H2C2HCHCHC3H3C3HCH2C3H3CHC4HPCHCH3CSC2HCPSHCHC3H2C2H2C2HC2H2C2H2C3HSC2HS2FeS2FeS2FeSFeHS2CH2C2H3C3HC2HCH2C2H2C2HC4H4C11H4CH6SC2H5CH2C6HC2H5C6PH2CHC6FeH2C2H2CH3C4SCH2C4PHC2H4C2FeS2FeS2FePFeS3HCSH2CHSH2SH3C2HC6HCH2CHC6HCH2CHC3H5C4H2CHC2H3C2HPCHCHC4HC5HCH2C2H2CHC2H5C3HCHCSC2H3C2H3CH2CHC2HC2H2CHCH3C2HCH6C2HCH2CH2C2HCHFeS2FeS2FeS3FeSFeS3FeS2FeS2FeSFeCS2C2FeS2FeSHFeSFeS3C2H7C2HCHC3H5C2H4CH4FeC6H4CHSC3HC6H4C2HC6H5C6H7C5HCHSCH6C3H5C6H8C2H2PC7H3PC6HC4H2SH3C3H4CHCHC3HFeHC4SC4H4CS2HCH2FeH3C3HCSHCH2CHC3PSHSC8HCH2CHC3HCPH3FeHCH2CHC2HC4H2SC2HC5H2C2HCHC3HCH2CHCH2C2HPC2H3C2HC2H2C2FeCHCHCH3CHC3HC2SHCPCHFeH2C2HC4HCHC2HC3HC4H2CHC2HC2HC3SC3HC6H2C5HC2H3CH2PHCH3C3HC2HC2H3C3HCHC3H2CFeC3HC3H2C3H3FeHSFeS2CFeS4FeS2FeSCFeSFeS5FeSFeS2FeSFeSFeS3C6H5C3HC2HC7H4CHCH2CH2C4HC5H3C6H4C5H3CHC2FeH2CHC4PC8H10C6PC5HC12HCH4CHCH13C2HC2HC2H4C6PC9PHC7H12C2H6C6PC9H2C3HC3H10CH2CH2CHCHC3H3C2H3CH2C3HCFeSCHC3H6FeC3HC5HC2PHC3HC3H5C2H2S2HC5H2C2H2CH2C2FeCHC2H2SCHC3H2CHSPHPC3H2C2HC2H2S2H3CFeCH3SH3C2H2C2H2CH2SCHC2HCSC2H3FeH2C2SFeHCHC2SC6H3C2HC3H2C3H3CH2SC3H3FeSFeS2FeSFeS3HC2H2CHC3PH5C2HC2HC2HPHC3H3C2H2CH2C3H3C2HC2H4CH4CHC4H3C6HC2SHC2PCH5CH2C2H3C2HCHC2HCH2C8H2C6HCSCHC2H2C2HC2HC3H2CH2C3FeS2FeSHFeSFeCS2HC3HCHCHCH5C3HCHC3HC3H2CH4C5HC2SH3C2HC3HCH2SC2H4SCHC4H2CH5CH2C2HCH2C3HPCHC3HCH2CHPC11HC2HCH2C4H2CH2C3H2C2H2CHCHCSH2SCFeS2FeS2FeCFeS3HFeS2FeS2FeHFeS3FeS2FeS2FeSFeS3HC7H4CHC6H4PH2C6H4C2H6C9H4C6H2C6H3CH2CHC2HC3HC2H3C2HC2HC2HC2HCH2CHFeH5C2H2CHC6PC17H14PCHCHC2HCHC2H2C6PC18H17PH2CHC2HCH2C10HC2HC4HC2H8CHCHCSC2H2CH2CHCH3SHCHC4HCH4C7HC5HC3HC3FeCH2C2HC3HC5HCH2CH2CSPHCH3CH3C2HCHC2HC2H2C5HC3HC2HPCH3C2HC2H3C2HC3PC4HCH2CHCPH2CHC2H2CHCPC3H3CH2C2HCH4CH3CHFeH3CH2CHC4H2PC4H3C2HC2FeS2FeS2FeSFeS3FeS2FeSCHFeS2FeSHFeSFeS3HFeS2FeS2Fe2S3C6H4C6HCH2CH2C5HCHCHCH3C7H4C6H4C6H5C3HSC3HC5PC18H15C4HCHCHCPC2H2C11HCH8C9PH3C2HCH3CHCH3CHC2HCH4C2HC2H2FeC4HC3H2CH3C10H9SCH3CHC3H2C3H3CPC2HC2HC2HCH2CHCH2C3SC2HCPC5HSC2PH2SHC2H2C2HC3HC4HFeC2H3CH2CHCH4C2FeHC5HCHSC2HCHCHCHCHCHC8HSHCH3CH2C5HCH2C3H3C2H2CH
_chemical_formula_sum              "Fe256 S512 H3072 C3840 P128"
_cell_length_a       89.9082
_cell_length_b       89.8206
_cell_length_c       39.2675
_cell_angle_alpha    77.5809
_cell_angle_beta     77.612
_cell_angle_gamma    76.8099

_space_group_name_H-M_alt    "P 1"
_space_group_IT_number       1

loop_
  _space_group_symop_operation_xyz
  'x, y, z'

loop_
  _atom_site_type_symbol
  _atom_site_label
  _atom_site_symmetry_multiplicity
  _atom_site_fract_x
  _atom_site_fract_y
  _atom_site_fract_z
  _atom_site_occupancy
  Fe  Fe1       1.0  0.19235  0.03197  0.15163  1.0000
  S   S1        1.0  0.16899  0.04602  0.14126  1.0000
  H   H1        1.0  0.12648  0.15228  0.04242  1.0000
  H   H2        1.0  0.09735  0.19093  0.36117  1.0000
  S   S2        1.0  0.99985  0.09391  0.17861  1.0000
  C   C1        1.0  0.03942  0.16085  0.38046  1.0000
  C   C2        1.0  0.99949  0.11968  0.08521  1.0000
  H   H3        1.0  0.08165  0.18067  0.25609  1.0000
  Fe  Fe2       1.0  0.10165  0.10325  0.21094  1.0000
  S   S3        1.0  0.11808  0.11802  0.17752  1.0000
  S   S4        1.0  0.11185  0.07995  0.24036  1.0000
  Fe  Fe3       1.0  0.07330  0.12714  0.19415  1.0000
  S   S5        1.0  0.08791  0.14412  0.15980  1.0000
  S   S6        1.0  0.04677  0.13381  0.20113  1.0000
  Fe  Fe4       1.0  0.10218  0.12324  0.13796  1.0000
  S   S7        1.0  0.11455  0.12208  0.08182  1.0000
  Fe  Fe5       1.0  0.10288  0.13772  0.20237  1.0000
  S   S8        1.0  0.11643  0.15491  0.21211  1.0000
  S   S9        1.0  0.08689  0.10671  0.16938  1.0000
  S   S10       1.0  0.08705  0.12255  0.23870  1.0000
  Fe  Fe6       1.0  0.15471  0.17906  0.35736  1.0000
  S   S11       1.0  0.17379  0.18470  0.31268  1.0000
  S   S12       1.0  0.13357  0.17068  0.34910  1.0000
  Fe  Fe7       1.0  0.17417  0.18020  0.41456  1.0000
  S   S13       1.0  0.19482  0.18488  0.37280  1.0000
  H   H4        1.0  0.00762  0.11241  0.10149  1.0000
  Fe  Fe8       1.0  0.17736  0.20176  0.34317  1.0000
  S   S14       1.0  0.18133  0.22567  0.31395  1.0000
  Fe  Fe9       1.0  0.18934  0.16758  0.34612  1.0000
  H   H5        1.0  0.14432  0.11017  0.12028  1.0000
  S   S15       1.0  0.15657  0.19787  0.38604  1.0000
  S   S16       1.0  0.17035  0.16118  0.38984  1.0000
  C   C3        1.0  0.14733  0.13526  0.03317  1.0000
  H   H6        1.0  0.10265  0.19498  0.24854  1.0000
  C   C4        1.0  0.18376  0.18331  0.17382  1.0000
  H   H7        1.0  0.02233  0.15626  0.42716  1.0000
  C   C5        1.0  0.07929  0.06733  0.04395  1.0000
  C   C6        1.0  0.17481  0.17172  0.18587  1.0000
  C   C7        1.0  0.09648  0.19137  0.27487  1.0000
  H   H8        1.0  0.11054  0.20025  0.30094  1.0000
  H   H9        1.0  0.19232  0.25696  0.19086  1.0000
  C   C8        1.0  0.15356  0.25155  0.10272  1.0000
  H   H10       1.0  0.19247  0.25240  0.27020  1.0000
  C   C9        1.0  0.08148  0.18088  0.34300  1.0000
  C   C10       1.0  0.10092  0.19436  0.30434  1.0000
  C   C11       1.0  0.13034  0.16501  0.31069  1.0000
  C   C12       1.0  0.11935  0.15553  0.31465  1.0000
  C   C13       1.0  0.11547  0.15171  0.28497  1.0000
  C   C14       1.0  0.12218  0.15776  0.25071  1.0000
  C   C15       1.0  0.13336  0.16703  0.24670  1.0000
  C   C16       1.0  0.13759  0.17046  0.27643  1.0000
  H   H11       1.0  0.11365  0.15131  0.34095  1.0000
  H   H12       1.0  0.10685  0.14460  0.28848  1.0000
  H   H13       1.0  0.13857  0.17186  0.22036  1.0000
  H   H14       1.0  0.14595  0.17787  0.27280  1.0000
  C   C17       1.0  0.10412  0.12630  0.04660  1.0000
  C   C18       1.0  0.08822  0.13238  0.05140  1.0000
  C   C19       1.0  0.08031  0.13567  0.02263  1.0000
  H   H15       1.0  0.18422  0.20410  0.46775  1.0000
  C   C20       1.0  0.22754  0.20415  0.21573  1.0000
  H   H16       1.0  0.08208  0.13470  0.07715  1.0000
  H   H17       1.0  0.18279  0.19056  0.14831  1.0000
  C   C21       1.0  0.20192  0.27346  0.00725  1.0000
  H   H18       1.0  0.03742  0.15207  0.08142  1.0000
  C   C22       1.0  0.17671  0.12495  0.31343  1.0000
  C   C23       1.0  0.01253  0.10540  0.18492  1.0000
  C   C24       1.0  0.02796  0.09829  0.18798  1.0000
  C   C25       1.0  0.03856  0.10677  0.19276  1.0000
  C   C26       1.0  0.03386  0.12258  0.19467  1.0000
  C   C27       1.0  0.01838  0.12971  0.19183  1.0000
  C   C28       1.0  0.00780  0.12121  0.18687  1.0000
  H   H19       1.0  0.03174  0.08606  0.18688  1.0000
  H   H20       1.0  0.05035  0.10104  0.19516  1.0000
  H   H21       1.0  0.01457  0.14191  0.19326  1.0000
  H   H22       1.0  0.99601  0.12689  0.18457  1.0000
  C   C29       1.0  0.15337  0.05495  0.17024  1.0000
  C   C30       1.0  0.15286  0.05246  0.20685  1.0000
  C   C31       1.0  0.13991  0.05988  0.22856  1.0000
  C   C32       1.0  0.12775  0.07015  0.21353  1.0000
  C   C33       1.0  0.12843  0.07272  0.17693  1.0000
  C   C34       1.0  0.14097  0.06481  0.15559  1.0000
  H   H23       1.0  0.16226  0.04465  0.21840  1.0000
  H   H24       1.0  0.13939  0.05781  0.25693  1.0000
  H   H25       1.0  0.11915  0.08061  0.16508  1.0000
  H   H26       1.0  0.14105  0.06637  0.12752  1.0000
  H   H27       1.0  0.18605  0.14872  0.03653  1.0000
  H   H28       1.0  0.16267  0.14591  0.33000  1.0000
  H   H29       1.0  0.99482  0.15576  0.25928  1.0000
  S   S17       1.0  0.23483  0.01025  0.14603  1.0000
  H   H30       1.0  0.16663  0.29655  0.05888  1.0000
  H   H31       1.0  0.19665  0.01190  0.99675  1.0000
  H   H32       1.0  0.21958  0.17919  0.41407  1.0000
  S   S18       1.0  0.20216  0.01345  0.11803  1.0000
  C   C35       1.0  0.09346  0.18908  0.33837  1.0000
  C   C36       1.0  0.19609  0.08774  0.17142  1.0000
  H   H33       1.0  0.21363  0.07005  0.19415  1.0000
  C   C37       1.0  0.17915  0.21728  0.22404  1.0000
  H   H34       1.0  0.20791  0.01628  0.04482  1.0000
  C   C38       1.0  0.22232  0.19492  0.19780  1.0000
  H   H35       1.0  0.15777  0.03836  0.08556  1.0000
  C   C39       1.0  0.17819  0.06935  0.25164  1.0000
  C   C40       1.0  0.17979  0.26499  0.07291  1.0000
  C   C41       1.0  0.19274  0.08083  0.28123  1.0000
  C   C42       1.0  0.18056  0.08225  0.26292  1.0000
  P   P1        1.0  0.19559  0.09746  0.29619  1.0000
  C   C43       1.0  0.20503  0.09185  0.33449  1.0000
  C   C44       1.0  0.21436  0.10130  0.34046  1.0000
  C   C45       1.0  0.22871  0.16327  0.30675  1.0000
  H   H36       1.0  0.20427  0.05585  0.01942  1.0000
  C   C46       1.0  0.20961  0.07451  0.38954  1.0000
  C   C47       1.0  0.20235  0.07865  0.35978  1.0000
  C   C48       1.0  0.17734  0.10936  0.31181  1.0000
  C   C49       1.0  0.16414  0.10274  0.32645  1.0000
  C   C50       1.0  0.15045  0.11173  0.34155  1.0000
  C   C51       1.0  0.14993  0.12728  0.34271  1.0000
  C   C52       1.0  0.16303  0.13391  0.32848  1.0000
  H   H37       1.0  0.16863  0.07040  0.23799  1.0000
  C   C53       1.0  0.23160  0.18054  0.19168  1.0000
  H   H38       1.0  0.17289  0.09330  0.25749  1.0000
  H   H39       1.0  0.16259  0.16856  0.05128  1.0000
  H   H40       1.0  0.21589  0.11202  0.32246  1.0000
  H   H41       1.0  0.22885  0.09130  0.26938  1.0000
  C   C54       1.0  0.99270  0.13388  0.29456  1.0000
  H   H42       1.0  0.14674  0.25968  0.05152  1.0000
  H   H43       1.0  0.19459  0.07161  0.35666  1.0000
  H   H44       1.0  0.16448  0.09057  0.32706  1.0000
  H   H45       1.0  0.14031  0.10658  0.35299  1.0000
  H   H46       1.0  0.13950  0.13416  0.35532  1.0000
  H   H47       1.0  0.22493  0.08052  0.41766  1.0000
  S   S19       1.0  0.23481  0.02947  0.04429  1.0000
  C   C55       1.0  0.20759  0.20747  0.13386  1.0000
  H   H48       1.0  0.18380  0.21919  0.13224  1.0000
  H   H49       1.0  0.20634  0.14065  0.19793  1.0000
  C   C56       1.0  0.22703  0.02534  0.01020  1.0000
  C   C57       1.0  0.17018  0.23061  0.23624  1.0000
  H   H50       1.0  0.16956  0.27179  0.02532  1.0000
  H   H51       1.0  0.22433  0.25079  0.03595  1.0000
  S   S20       1.0  0.20167  0.01739  0.19953  1.0000
  C   C58       1.0  0.23268  0.13962  0.28313  1.0000
  H   H52       1.0  0.20933  0.14906  0.45625  1.0000
  H   H53       1.0  0.02162  0.12821  0.99856  1.0000
  C   C59       1.0  0.22003  0.14297  0.44252  1.0000
  C   C60       1.0  0.07209  0.08287  0.04512  1.0000
  C   C61       1.0  0.07734  0.09469  0.01876  1.0000
  P   P2        1.0  0.05611  0.08710  0.08031  1.0000
  H   H54       1.0  0.21313  0.06544  0.29820  1.0000
  C   C62       1.0  0.06303  0.07671  0.12057  1.0000
  C   C63       1.0  0.05494  0.06616  0.14504  1.0000
  C   C64       1.0  0.06072  0.05815  0.17566  1.0000
  C   C65       1.0  0.07477  0.06033  0.18170  1.0000
  C   C66       1.0  0.08314  0.07041  0.15698  1.0000
  C   C67       1.0  0.07733  0.07855  0.12651  1.0000
  C   C68       1.0  0.02530  0.07382  0.03458  1.0000
  C   C69       1.0  0.19281  0.21823  0.19910  1.0000
  C   C70       1.0  0.19533  0.21638  0.11703  1.0000
  C   C71       1.0  0.12830  0.08280  0.01406  1.0000
  C   C72       1.0  0.14119  0.05577  0.02524  1.0000
  C   C73       1.0  0.05071  0.10775  0.08051  1.0000
  C   C74       1.0  0.04227  0.11732  0.05504  1.0000
  C   C75       1.0  0.03744  0.13324  0.05545  1.0000
  C   C76       1.0  0.04109  0.13974  0.08114  1.0000
  C   C77       1.0  0.04966  0.13036  0.10621  1.0000
  C   C78       1.0  0.05440  0.11442  0.10609  1.0000
  H   H55       1.0  0.00151  0.07184  0.05613  1.0000
  H   H56       1.0  0.17137  0.98450  0.06153  1.0000
  C   C79       1.0  0.16466  0.25091  0.12331  1.0000
  C   C80       1.0  0.20246  0.30200  0.06306  1.0000
  H   H57       1.0  0.07193  0.10675  0.01871  1.0000
  H   H58       1.0  0.04420  0.06399  0.14084  1.0000
  H   H59       1.0  0.05426  0.05025  0.19475  1.0000
  H   H60       1.0  0.17147  0.98957  0.12138  1.0000
  C   C81       1.0  0.15421  0.15458  0.10043  1.0000
  H   H61       1.0  0.08392  0.08644  0.10770  1.0000
  P   P3        1.0  0.20417  0.20136  0.18146  1.0000
  C   C82       1.0  0.21310  0.26776  0.10956  1.0000
  H   H62       1.0  0.07921  0.05421  0.20554  1.0000
  C   C83       1.0  0.98754  0.13062  0.09979  1.0000
  C   C84       1.0  0.22835  0.22146  0.29196  1.0000
  H   H63       1.0  0.12441  0.11918  0.00902  1.0000
  H   H64       1.0  0.05262  0.13544  0.12591  1.0000
  C   C85       1.0  0.23352  0.11046  0.22817  1.0000
  C   C86       1.0  0.13559  0.14742  0.02258  1.0000
  H   H65       1.0  0.06075  0.10746  0.12628  1.0000
  C   C87       1.0  0.01704  0.11801  0.30913  1.0000
  C   C88       1.0  0.02507  0.12914  0.28735  1.0000
  C   C89       1.0  0.01694  0.14289  0.27029  1.0000
  C   C90       1.0  0.00080  0.14528  0.27380  1.0000
  C   C91       1.0  0.21856  0.10636  0.15213  1.0000
  C   C92       1.0  0.00089  0.12042  0.31302  1.0000
  H   H66       1.0  0.22054  0.21506  0.22193  1.0000
  H   H67       1.0  0.09722  0.05169  0.01609  1.0000
  C   C93       1.0  0.20078  0.26044  0.99416  1.0000
  C   C94       1.0  0.21933  0.08369  0.39460  1.0000
  C   C95       1.0  0.15547  0.25897  0.06735  1.0000
  H   H68       1.0  0.20421  0.27643  0.12147  1.0000
  C   C96       1.0  0.13958  0.07040  0.00327  1.0000
  H   H69       1.0  0.14336  0.24649  0.11431  1.0000
  C   C97       1.0  0.22378  0.10203  0.25388  1.0000
  H   H70       1.0  0.14367  0.16299  0.10639  1.0000
  C   C98       1.0  0.03918  0.08137  0.07301  1.0000
  H   H71       1.0  0.03953  0.11242  0.03478  1.0000
  H   H72       1.0  0.20871  0.04273  0.27864  1.0000
  H   H73       1.0  0.22734  0.11349  0.14466  1.0000
  C   C99       1.0  0.21242  0.26437  0.07666  1.0000
  C   C100      1.0  0.16820  0.99907  0.10049  1.0000
  C   C101      1.0  0.00067  0.11788  0.05015  1.0000
  H   H74       1.0  0.07527  0.05805  0.06388  1.0000
  H   H75       1.0  0.21875  0.98341  0.03971  1.0000
  H   H76       1.0  0.02337  0.10729  0.32210  1.0000
  H   H77       1.0  0.03763  0.12692  0.28267  1.0000
  H   H78       1.0  0.02327  0.15133  0.25289  1.0000
  C   C102      1.0  0.21120  0.12985  0.21348  1.0000
  H   H79       1.0  0.19643  0.25076  0.01181  1.0000
  H   H80       1.0  0.18663  0.04515  0.24821  1.0000
  C   C103      1.0  0.22209  0.09118  0.17040  1.0000
  C   C104      1.0  0.22433  0.25336  0.06162  1.0000
  C   C105      1.0  0.01221  0.07877  0.09277  1.0000
  C   C106      1.0  0.16819  0.99623  0.06690  1.0000
  C   C107      1.0  0.22161  0.09714  0.37018  1.0000
  H   H81       1.0  0.23489  0.13123  0.18928  1.0000
  C   C108      1.0  0.02564  0.08244  0.09862  1.0000
  C   C109      1.0  0.22550  0.26028  0.12703  1.0000
  H   H82       1.0  0.18605  0.25709  0.12502  1.0000
  H   H83       1.0  0.99484  0.11152  0.32938  1.0000
  H   H84       1.0  0.02541  0.08628  0.12308  1.0000
  C   C110      1.0  0.22104  0.14183  0.40708  1.0000
  H   H85       1.0  0.01557  0.18353  0.43711  1.0000
  C   C111      1.0  0.23247  0.19675  0.41322  1.0000
  C   C112      1.0  0.05374  0.16761  0.22054  1.0000
  C   C113      1.0  0.03919  0.17722  0.21982  1.0000
  C   C114      1.0  0.03143  0.18392  0.24933  1.0000
  C   C115      1.0  0.03819  0.18093  0.27965  1.0000
  C   C116      1.0  0.05277  0.17112  0.28071  1.0000
  C   C117      1.0  0.06054  0.16457  0.25077  1.0000
  P   P4        1.0  0.06159  0.16695  0.31986  1.0000
  C   C118      1.0  0.04705  0.17209  0.35721  1.0000
  C   C119      1.0  0.06942  0.14638  0.32927  1.0000
  C   C120      1.0  0.08192  0.14088  0.34766  1.0000
  C   C121      1.0  0.08810  0.12498  0.35437  1.0000
  C   C122      1.0  0.08168  0.11444  0.34329  1.0000
  C   C123      1.0  0.06894  0.11978  0.32590  1.0000
  C   C124      1.0  0.06281  0.13568  0.31898  1.0000
  C   C125      1.0  0.03175  0.19163  0.39160  1.0000
  C   C126      1.0  0.04304  0.18754  0.36285  1.0000
  H   H86       1.0  0.20105  0.12432  0.13111  1.0000
  H   H87       1.0  0.05965  0.16233  0.19773  1.0000
  H   H88       1.0  0.03391  0.17935  0.19643  1.0000
  H   H89       1.0  0.02013  0.19138  0.24872  1.0000
  H   H90       1.0  0.03193  0.18623  0.30214  1.0000
  H   H91       1.0  0.07185  0.15705  0.25079  1.0000
  H   H92       1.0  0.08701  0.14883  0.35658  1.0000
  H   H93       1.0  0.09794  0.12085  0.36797  1.0000
  H   H94       1.0  0.08661  0.10213  0.34801  1.0000
  H   H95       1.0  0.06403  0.11160  0.31712  1.0000
  H   H96       1.0  0.05299  0.13961  0.30534  1.0000
  H   H97       1.0  0.02875  0.20356  0.39591  1.0000
  H   H98       1.0  0.04862  0.19645  0.34497  1.0000
  H   H99       1.0  0.07603  0.17666  0.36964  1.0000
  C   C127      1.0  0.07688  0.17787  0.31350  1.0000
  C   C128      1.0  0.14328  0.10005  0.23622  1.0000
  C   C129      1.0  0.14263  0.11230  0.25353  1.0000
  C   C130      1.0  0.15158  0.12360  0.23798  1.0000
  C   C131      1.0  0.16087  0.12285  0.20468  1.0000
  C   C132      1.0  0.16088  0.11105  0.18622  1.0000
  C   C133      1.0  0.15232  0.09941  0.20255  1.0000
  P   P5        1.0  0.17308  0.11031  0.14347  1.0000
  C   C134      1.0  0.16818  0.09803  0.11826  1.0000
  C   C135      1.0  0.17033  0.12924  0.11579  1.0000
  C   C136      1.0  0.18072  0.13227  0.08406  1.0000
  C   C137      1.0  0.23273  0.13632  0.45990  1.0000
  C   C138      1.0  0.17772  0.25759  0.10848  1.0000
  H   H100      1.0  0.18756  0.08030  0.17862  1.0000
  C   C139      1.0  0.15684  0.14038  0.12338  1.0000
  C   C140      1.0  0.17959  0.08654  0.10334  1.0000
  C   C141      1.0  0.17603  0.07827  0.08076  1.0000
  C   C142      1.0  0.16119  0.08157  0.07226  1.0000
  C   C143      1.0  0.14985  0.09309  0.08655  1.0000
  C   C144      1.0  0.15327  0.10123  0.10964  1.0000
  C   C145      1.0  0.19243  0.10299  0.15310  1.0000
  H   H101      1.0  0.22820  0.13011  0.27899  1.0000
  H   H102      1.0  0.20760  0.06424  0.40882  1.0000
  H   H103      1.0  0.04213  0.14890  0.37656  1.0000
  H   H104      1.0  0.13659  0.09115  0.24882  1.0000
  H   H105      1.0  0.13515  0.11304  0.27896  1.0000
  H   H106      1.0  0.15106  0.13303  0.25163  1.0000
  H   H107      1.0  0.16776  0.13169  0.19293  1.0000
  H   H108      1.0  0.15246  0.08996  0.18929  1.0000
  H   H109      1.0  0.19070  0.12348  0.07671  1.0000
  Fe  Fe10      1.0  0.22281  0.02492  0.10186  1.0000
  C   C146      1.0  0.02813  0.16499  0.40918  1.0000
  H   H110      1.0  0.23114  0.99752  0.06965  1.0000
  H   H111      1.0  0.14801  0.13803  0.14635  1.0000
  H   H112      1.0  0.19128  0.08388  0.10870  1.0000
  H   H113      1.0  0.18471  0.06902  0.07056  1.0000
  H   H114      1.0  0.15837  0.07495  0.05531  1.0000
  H   H115      1.0  0.13828  0.09549  0.08032  1.0000
  H   H116      1.0  0.03101  0.14061  0.03569  1.0000
  Fe  Fe11      1.0  0.22264  0.02890  0.17824  1.0000
  S   S21       1.0  0.21239  0.04444  0.13252  1.0000
  H   H117      1.0  0.09407  0.07204  0.16171  1.0000
  H   H118      1.0  0.98972  0.11107  0.25782  1.0000
  H   H119      1.0  0.06805  0.14057  0.02628  1.0000
  H   H120      1.0  0.16702  0.17019  0.16982  1.0000
  H   H121      1.0  0.00186  0.07951  0.11297  1.0000
  C   C147      1.0  0.18532  0.16446  0.24014  1.0000
  C   C148      1.0  0.16484  0.15767  0.06937  1.0000
  H   H122      1.0  0.16000  0.22971  0.25663  1.0000
  C   C149      1.0  0.19350  0.18562  0.19506  1.0000
  H   H123      1.0  0.22355  0.20258  0.43187  1.0000
  S   S22       1.0  0.17566  0.17356  0.47398  1.0000
  H   H124      1.0  0.17545  0.20631  0.23476  1.0000
  H   H125      1.0  0.16824  0.15373  0.22897  1.0000
  H   H126      1.0  0.20146  0.17769  0.24557  1.0000
  C   C150      1.0  0.17551  0.16238  0.21912  1.0000
  C   C151      1.0  0.23053  0.23555  0.26950  1.0000
  C   C152      1.0  0.22498  0.20982  0.07703  1.0000
  C   C153      1.0  0.20249  0.24363  0.27583  1.0000
  H   H127      1.0  0.10987  0.09046  0.05525  1.0000
  H   H128      1.0  0.18571  0.15739  0.26616  1.0000
  C   C154      1.0  0.20036  0.22931  0.29736  1.0000
  S   S23       1.0  0.20441  0.14787  0.32157  1.0000
  C   C155      1.0  0.19428  0.17602  0.22826  1.0000
  C   C156      1.0  0.08454  0.18313  0.27937  1.0000
  C   C157      1.0  0.21086  0.08187  0.18010  1.0000
  C   C158      1.0  0.09170  0.06367  0.01698  1.0000
  H   H129      1.0  0.18692  0.13006  0.30397  1.0000
  C   C159      1.0  0.20770  0.10766  0.26021  1.0000
  H   H130      1.0  0.21465  0.22288  0.03223  1.0000
  C   C160      1.0  0.01202  0.07448  0.06076  1.0000
  C   C161      1.0  0.03886  0.07723  0.04063  1.0000
  H   H131      1.0  0.21449  0.29622  0.06119  1.0000
  C   C162      1.0  0.02431  0.18036  0.41479  1.0000
  H   H132      1.0  0.00967  0.10894  0.03962  1.0000
  H   H133      1.0  0.21198  0.20726  0.32212  1.0000
  C   C163      1.0  0.20141  0.12132  0.23889  1.0000
  C   C164      1.0  0.13088  0.05360  0.05752  1.0000
  C   C165      1.0  0.21340  0.21824  0.30532  1.0000
  C   C166      1.0  0.22249  0.20432  0.11356  1.0000
  C   C167      1.0  0.08978  0.09097  0.99185  1.0000
  H   H134      1.0  0.18901  0.12554  0.24230  1.0000
  C   C168      1.0  0.18313  0.04933  0.01561  1.0000
  C   C169      1.0  0.20369  0.11238  0.14407  1.0000
  C   C170      1.0  0.19786  0.22187  0.08054  1.0000
  H   H135      1.0  0.22117  0.17206  0.32076  1.0000
  C   C171      1.0  0.16014  0.02393  0.04627  1.0000
  C   C172      1.0  0.16848  0.26575  0.05253  1.0000
  C   C173      1.0  0.22726  0.12453  0.20848  1.0000
  C   C174      1.0  0.17485  0.24491  0.22407  1.0000
  H   H136      1.0  0.22623  0.26338  0.15179  1.0000
  H   H137      1.0  0.18832  0.22876  0.06785  1.0000
  H   H138      1.0  0.22761  0.17305  0.17879  1.0000
  C   C175      1.0  0.21268  0.21858  0.06052  1.0000
  C   C176      1.0  0.19737  0.23269  0.18672  1.0000
  H   H139      1.0  0.18058  0.04523  0.04381  1.0000
  H   H140      1.0  0.16822  0.25504  0.23492  1.0000
  C   C177      1.0  0.20316  0.06662  0.28589  1.0000
  C   C178      1.0  0.18829  0.05510  0.25746  1.0000
  H   H141      1.0  0.16756  0.11876  0.01624  1.0000
  C   C179      1.0  0.11979  0.06614  0.06853  1.0000
  H   H142      1.0  0.20796  0.23367  0.16776  1.0000
  C   C180      1.0  0.18847  0.24595  0.19938  1.0000
  C   C181      1.0  0.11856  0.08076  0.04691  1.0000
  H   H143      1.0  0.23352  0.08665  0.17721  1.0000
  H   H144      1.0  0.16428  0.01649  0.13309  1.0000
  C   C182      1.0  0.20075  0.05375  0.27462  1.0000
  H   H145      1.0  0.23225  0.19778  0.12572  1.0000
  Fe  Fe12      1.0  0.21323  0.99972  0.16395  1.0000
  H   H146      1.0  0.04891  0.07689  0.01971  1.0000
  P   P6        1.0  0.19640  0.27413  0.05407  1.0000
  C   C183      1.0  0.21363  0.01897  0.01785  1.0000
  P   P7        1.0  0.15613  0.04007  0.01067  1.0000
  H   H147      1.0  0.16306  0.24539  0.15093  1.0000
  H   H148      1.0  0.11206  0.06449  0.09375  1.0000
  C   C184      1.0  0.15867  0.12842  0.00782  1.0000
  C   C185      1.0  0.21751  0.24668  0.26155  1.0000
  H   H149      1.0  0.14730  0.13086  0.06111  1.0000
  C   C186      1.0  0.17806  0.14649  0.06112  1.0000
  C   C187      1.0  0.19108  0.29418  0.06009  1.0000
  C   C188      1.0  0.22302  0.15078  0.30184  1.0000
  H   H150      1.0  0.21899  0.25766  0.24468  1.0000
  H   H151      1.0  0.21114  0.14679  0.39386  1.0000
  C   C189      1.0  0.16037  0.02665  0.08006  1.0000
  C   C190      1.0  0.16416  0.01426  0.10709  1.0000
  C   C191      1.0  0.11203  0.12354  0.01296  1.0000
  C   C192      1.0  0.19654  0.05556  0.00191  1.0000
  C   C193      1.0  0.16419  0.00857  0.03994  1.0000
  H   H152      1.0  0.16443  0.00594  0.01428  1.0000
  H   H153      1.0  0.13130  0.04231  0.07426  1.0000
  C   C194      1.0  0.23017  0.18362  0.40296  1.0000
  H   H154      1.0  0.22888  0.10446  0.37437  1.0000
  C   C195      1.0  0.17563  0.30216  0.06167  1.0000
  C   C196      1.0  0.23363  0.98496  0.07424  1.0000
  S   S24       1.0  0.23227  0.03700  0.21970  1.0000
  H   H155      1.0  0.98644  0.13168  0.12721  1.0000
  H   H156      1.0  0.20990  0.29544  0.99311  1.0000
  C   C197      1.0  0.17351  0.04807  0.99291  1.0000
  H   H157      1.0  0.12695  0.09393  0.99659  1.0000
  C   C198      1.0  0.99022  0.12745  0.02894  1.0000
  H   H158      1.0  0.02503  0.07079  0.00946  1.0000
  H   H159      1.0  0.23557  0.13347  0.36115  1.0000
  C   C199      1.0  0.23483  0.13439  0.38856  1.0000
  C   C200      1.0  0.09696  0.07550  0.99102  1.0000
  C   C201      1.0  0.15565  0.09829  0.76728  1.0000
  S   S25       1.0  0.16503  0.03043  0.79750  1.0000
  C   C202      1.0  0.21258  0.28493  0.94765  1.0000
  H   H160      1.0  0.07669  0.16733  0.64959  1.0000
  H   H161      1.0  0.19462  0.17022  0.89971  1.0000
  H   H162      1.0  0.17921  0.11732  0.68802  1.0000
  C   C203      1.0  0.18990  0.13386  0.75901  1.0000
  Fe  Fe13      1.0  0.21786  0.99802  0.80789  1.0000
  C   C204      1.0  0.14167  0.15961  0.57778  1.0000
  H   H163      1.0  0.18226  0.15857  0.75649  1.0000
  C   C205      1.0  0.02245  0.12932  0.97050  1.0000
  H   H164      1.0  0.22265  0.00607  0.61721  1.0000
  C   C206      1.0  0.15432  0.12432  0.83932  1.0000
  Fe  Fe14      1.0  0.10295  0.09418  0.88123  1.0000
  S   S26       1.0  0.11123  0.11525  0.88565  1.0000
  S   S27       1.0  0.11932  0.07250  0.90087  1.0000
  Fe  Fe15      1.0  0.07424  0.11323  0.85154  1.0000
  S   S28       1.0  0.08099  0.13579  0.85283  1.0000
  S   S29       1.0  0.05225  0.11677  0.82822  1.0000
  Fe  Fe16      1.0  0.10529  0.12472  0.83166  1.0000
  S   S30       1.0  0.12322  0.13309  0.78576  1.0000
  Fe  Fe17      1.0  0.08640  0.12420  0.90676  1.0000
  S   S31       1.0  0.07750  0.13621  0.95437  1.0000
  S   S32       1.0  0.09832  0.10302  0.82590  1.0000
  S   S33       1.0  0.07826  0.10235  0.90687  1.0000
  Fe  Fe18      1.0  0.17312  0.19631  0.72454  1.0000
  S   S34       1.0  0.17808  0.21830  0.68725  1.0000
  S   S35       1.0  0.15095  0.19407  0.76428  1.0000
  P   P8        1.0  0.99170  0.12475  0.98383  1.0000
  H   H165      1.0  0.16409  0.16610  0.65462  1.0000
  H   H166      1.0  0.20339  0.08354  0.70629  1.0000
  H   H167      1.0  0.18851  0.13437  0.73219  1.0000
  Fe  Fe19      1.0  0.19009  0.20236  0.64768  1.0000
  H   H168      1.0  0.17478  0.16547  0.54888  1.0000
  S   S36       1.0  0.19465  0.19255  0.74802  1.0000
  S   S37       1.0  0.18352  0.18094  0.68380  1.0000
  C   C207      1.0  0.19077  0.05973  0.94283  1.0000
  H   H169      1.0  0.12037  0.15299  0.71616  1.0000
  H   H170      1.0  0.19145  0.14773  0.60875  1.0000
  H   H171      1.0  0.23363  0.24975  0.72829  1.0000
  S   S38       1.0  0.99631  0.07969  0.87002  1.0000
  H   H172      1.0  0.17002  0.05304  0.93830  1.0000
  H   H173      1.0  0.18342  0.99462  0.72607  1.0000
  C   C208      1.0  0.18535  0.19856  0.55670  1.0000
  C   C209      1.0  0.18135  0.18386  0.56649  1.0000
  H   H174      1.0  0.14690  0.07220  0.97755  1.0000
  H   H175      1.0  0.18053  0.17816  0.59383  1.0000
  C   C210      1.0  0.13088  0.14988  0.78182  1.0000
  C   C211      1.0  0.14369  0.15220  0.75520  1.0000
  C   C212      1.0  0.14986  0.16569  0.74969  1.0000
  C   C213      1.0  0.14337  0.17696  0.77097  1.0000
  C   C214      1.0  0.13054  0.17464  0.79779  1.0000
  C   C215      1.0  0.12434  0.16108  0.80335  1.0000
  H   H176      1.0  0.14873  0.14360  0.73843  1.0000
  H   H177      1.0  0.15944  0.16747  0.72851  1.0000
  H   H178      1.0  0.12529  0.18340  0.81411  1.0000
  H   H179      1.0  0.11436  0.15943  0.82373  1.0000
  C   C216      1.0  0.03757  0.13436  0.91178  1.0000
  C   C217      1.0  0.23078  0.24914  0.78451  1.0000
  C   C218      1.0  0.03649  0.10668  0.84233  1.0000
  C   C219      1.0  0.03758  0.09237  0.86529  1.0000
  C   C220      1.0  0.02508  0.08438  0.87391  1.0000
  C   C221      1.0  0.01121  0.09078  0.86052  1.0000
  C   C222      1.0  0.00993  0.10536  0.83866  1.0000
  C   C223      1.0  0.02258  0.11314  0.82924  1.0000
  H   H180      1.0  0.04820  0.08725  0.87549  1.0000
  H   H181      1.0  0.02623  0.07307  0.89065  1.0000
  H   H182      1.0  0.99939  0.11038  0.82799  1.0000
  H   H183      1.0  0.02161  0.12419  0.81142  1.0000
  C   C224      1.0  0.15260  0.04302  0.82480  1.0000
  C   C225      1.0  0.15763  0.04650  0.85296  1.0000
  C   C226      1.0  0.14750  0.05614  0.87524  1.0000
  C   C227      1.0  0.13235  0.06252  0.86925  1.0000
  C   C228      1.0  0.12747  0.05954  0.84029  1.0000
  C   C229      1.0  0.13754  0.04967  0.81828  1.0000
  H   H184      1.0  0.16912  0.04131  0.85850  1.0000
  H   H185      1.0  0.15123  0.05826  0.89786  1.0000
  H   H186      1.0  0.11574  0.06434  0.83570  1.0000
  H   H187      1.0  0.13361  0.04709  0.79641  1.0000
  Fe  Fe20      1.0  0.18958  0.02426  0.80788  1.0000
  H   H188      1.0  0.12185  0.19537  0.59355  1.0000
  H   H189      1.0  0.00172  0.12964  0.90696  1.0000
  H   H190      1.0  0.11015  0.12398  0.95877  1.0000
  C   C230      1.0  0.11098  0.15614  0.70124  1.0000
  H   H191      1.0  0.18499  0.15805  0.81780  1.0000
  H   H192      1.0  0.10217  0.17364  0.62003  1.0000
  H   H193      1.0  0.12327  0.20607  0.72509  1.0000
  H   H194      1.0  0.21610  0.15025  0.56952  1.0000
  C   C231      1.0  0.14438  0.13666  0.66629  1.0000
  C   C232      1.0  0.12924  0.20288  0.69986  1.0000
  H   H195      1.0  0.19734  0.07944  0.82810  1.0000
  C   C233      1.0  0.14618  0.12063  0.91291  1.0000
  C   C234      1.0  0.14875  0.13516  0.89320  1.0000
  C   C235      1.0  0.15256  0.13694  0.85620  1.0000
  P   P9        1.0  0.14511  0.15195  0.91432  1.0000
  C   C236      1.0  0.12595  0.16292  0.90917  1.0000
  C   C237      1.0  0.14628  0.14581  0.96087  1.0000
  H   H196      1.0  0.02594  0.13549  0.86858  1.0000
  C   C238      1.0  0.12217  0.17883  0.91095  1.0000
  C   C239      1.0  0.10738  0.18733  0.90667  1.0000
  C   C240      1.0  0.09622  0.17998  0.90098  1.0000
  C   C241      1.0  0.09985  0.16414  0.89960  1.0000
  C   C242      1.0  0.11463  0.15562  0.90374  1.0000
  C   C243      1.0  0.15944  0.16384  0.89280  1.0000
  C   C244      1.0  0.15694  0.17494  0.86233  1.0000
  C   C245      1.0  0.16775  0.18441  0.84600  1.0000
  C   C246      1.0  0.18132  0.18271  0.85944  1.0000
  C   C247      1.0  0.18407  0.17155  0.88938  1.0000
  C   C248      1.0  0.17318  0.16216  0.90607  1.0000
  C   C249      1.0  0.14368  0.16261  0.54078  1.0000
  H   H197      1.0  0.14207  0.11915  0.94119  1.0000
  H   H198      1.0  0.15366  0.14817  0.84009  1.0000
  H   H199      1.0  0.16692  0.12812  0.95242  1.0000
  H   H200      1.0  0.22963  0.99353  0.72542  1.0000
  H   H201      1.0  0.13064  0.18468  0.91555  1.0000
  H   H202      1.0  0.10453  0.19963  0.90774  1.0000
  H   H203      1.0  0.08473  0.18651  0.89778  1.0000
  H   H204      1.0  0.09115  0.15840  0.89552  1.0000
  H   H205      1.0  0.11712  0.14336  0.90270  1.0000
  H   H206      1.0  0.14662  0.17635  0.85103  1.0000
  H   H207      1.0  0.16564  0.19301  0.82264  1.0000
  H   H208      1.0  0.18970  0.19003  0.84644  1.0000
  H   H209      1.0  0.17554  0.15371  0.92928  1.0000
  C   C250      1.0  0.15661  0.08230  0.77121  1.0000
  H   H210      1.0  0.14449  0.10605  0.76654  1.0000
  H   H211      1.0  0.14623  0.07765  0.77371  1.0000
  S   S39       1.0  0.20451  0.01816  0.92198  1.0000
  C   C251      1.0  0.18338  0.19838  0.49513  1.0000
  H   H212      1.0  0.19538  0.07023  0.76931  1.0000
  H   H213      1.0  0.09494  0.14668  0.74517  1.0000
  H   H214      1.0  0.18933  0.21713  0.51284  1.0000
  H   H215      1.0  0.19408  0.13307  0.85561  1.0000
  C   C252      1.0  0.17099  0.07232  0.77162  1.0000
  H   H216      1.0  0.17186  0.05998  0.77364  1.0000
  C   C253      1.0  0.20528  0.25984  0.95798  1.0000
  H   H217      1.0  0.18423  0.14425  0.67380  1.0000
  C   C254      1.0  0.22922  0.18399  0.50503  1.0000
  C   C255      1.0  0.18615  0.14761  0.77284  1.0000
  C   C256      1.0  0.18778  0.14733  0.80749  1.0000
  C   C257      1.0  0.17310  0.14207  0.67177  1.0000
  C   C258      1.0  0.21270  0.09672  0.65741  1.0000
  C   C259      1.0  0.17820  0.17663  0.54088  1.0000
  C   C260      1.0  0.22050  0.99909  0.64326  1.0000
  C   C261      1.0  0.08810  0.13245  0.98925  1.0000
  H   H218      1.0  0.21745  0.29430  0.92970  1.0000
  H   H219      1.0  0.04829  0.13656  0.89463  1.0000
  C   C262      1.0  0.16111  0.02447  0.95369  1.0000
  C   C263      1.0  0.18462  0.13404  0.57795  1.0000
  H   H220      1.0  0.19385  0.06343  0.91456  1.0000
  C   C264      1.0  0.17614  0.98626  0.73916  1.0000
  C   C265      1.0  0.00987  0.12814  0.95602  1.0000
  C   C266      1.0  0.15821  0.13371  0.97178  1.0000
  S   S40       1.0  0.23125  0.05102  0.74037  1.0000
  C   C267      1.0  0.21409  0.02039  0.95489  1.0000
  H   H221      1.0  0.21115  0.06486  0.95490  1.0000
  C   C268      1.0  0.01124  0.13041  0.91902  1.0000
  C   C269      1.0  0.99768  0.09617  0.96076  1.0000
  C   C270      1.0  0.15592  0.12423  0.67704  1.0000
  C   C271      1.0  0.15661  0.01929  0.92703  1.0000
  H   H222      1.0  0.21181  0.08852  0.64173  1.0000
  C   C272      1.0  0.02497  0.13366  0.89709  1.0000
  C   C273      1.0  0.23295  0.19157  0.76751  1.0000
  H   H223      1.0  0.15362  0.11252  0.68377  1.0000
  S   S41       1.0  0.22589  0.24881  0.85730  1.0000
  C   C274      1.0  0.18341  0.09424  0.76623  1.0000
  S   S42       1.0  0.21296  0.19926  0.66578  1.0000
  H   H224      1.0  0.15277  0.98742  0.62088  1.0000
  C   C275      1.0  0.08418  0.15658  0.69917  1.0000
  C   C276      1.0  0.21562  0.11756  0.69813  1.0000
  H   H225      1.0  0.16525  0.01274  0.90918  1.0000
  H   H226      1.0  0.22044  0.05756  0.66472  1.0000
  C   C277      1.0  0.18632  0.20574  0.52082  1.0000
  C   C278      1.0  0.20820  0.28555  0.98378  1.0000
  P   P10       1.0  0.23160  0.13797  0.50543  1.0000
  C   C279      1.0  0.20784  0.09400  0.69412  1.0000
  C   C280      1.0  0.21871  0.11001  0.64096  1.0000
  H   H227      1.0  0.12568  0.20051  0.52821  1.0000
  C   C281      1.0  0.21737  0.23518  0.75685  1.0000
  Fe  Fe21      1.0  0.20061  0.21327  0.70832  1.0000
  H   H228      1.0  0.20581  0.12355  0.50114  1.0000
  C   C282      1.0  0.22998  0.03796  0.59540  1.0000
  H   H229      1.0  0.23486  0.09478  0.74928  1.0000
  C   C283      1.0  0.20852  0.14391  0.56279  1.0000
  C   C284      1.0  0.16902  0.10427  0.76426  1.0000
  C   C285      1.0  0.19692  0.11951  0.81473  1.0000
  H   H230      1.0  0.12541  0.16169  0.97927  1.0000
  H   H231      1.0  0.21459  0.27166  0.90669  1.0000
  S   S43       1.0  0.18908  0.20854  0.58794  1.0000
  H   H232      1.0  0.16804  0.11671  0.76003  1.0000
  C   C286      1.0  0.03629  0.13223  0.94849  1.0000
  C   C287      1.0  0.19301  0.13327  0.82858  1.0000
  Fe  Fe22      1.0  0.20535  0.17902  0.70444  1.0000
  H   H233      1.0  0.15659  0.12607  0.81078  1.0000
  S   S44       1.0  0.21433  0.23035  0.71738  1.0000
  C   C288      1.0  0.19561  0.11970  0.77956  1.0000
  C   C289      1.0  0.22716  0.00114  0.67057  1.0000
  C   C290      1.0  0.14827  0.10793  0.89589  1.0000
  H   H234      1.0  0.09380  0.10010  0.97142  1.0000
  P   P11       1.0  0.20081  0.10186  0.76158  1.0000
  C   C291      1.0  0.18864  0.12749  0.54721  1.0000
  H   H235      1.0  0.07298  0.15379  0.71212  1.0000
  C   C292      1.0  0.15229  0.10978  0.85905  1.0000
  C   C293      1.0  0.22787  0.24504  0.75413  1.0000
  S   S45       1.0  0.20947  0.01733  0.76549  1.0000
  C   C294      1.0  0.21449  0.98150  0.71083  1.0000
  H   H236      1.0  0.15315  0.10014  0.84573  1.0000
  C   C295      1.0  0.20269  0.12901  0.52436  1.0000
  C   C296      1.0  0.18432  0.07821  0.76933  1.0000
  S   S46       1.0  0.20128  0.04037  0.82429  1.0000
  C   C297      1.0  0.08630  0.16419  0.66394  1.0000
  H   H237      1.0  0.20137  0.22220  0.79309  1.0000
  S   S47       1.0  0.19704  0.00397  0.84859  1.0000
  Fe  Fe23      1.0  0.21041  0.01949  0.86249  1.0000
  C   C298      1.0  0.20967  0.22957  0.79052  1.0000
  C   C299      1.0  0.09653  0.15258  0.71780  1.0000
  C   C300      1.0  0.14112  0.02311  0.92247  1.0000
  C   C301      1.0  0.11328  0.16369  0.66583  1.0000
  H   H238      1.0  0.14189  0.22160  0.68638  1.0000
  H   H239      1.0  0.14592  0.09683  0.91097  1.0000
  C   C302      1.0  0.22743  0.05053  0.64559  1.0000
  H   H240      1.0  0.14428  0.98358  0.80338  1.0000
  C   C303      1.0  0.10080  0.16775  0.64727  1.0000
  C   C304      1.0  0.13013  0.03209  0.94462  1.0000
  H   H241      1.0  0.20094  0.10878  0.83160  1.0000
  C   C305      1.0  0.19459  0.14225  0.58563  1.0000
  C   C306      1.0  0.21083  0.98823  0.64969  1.0000
  H   H242      1.0  0.15010  0.15370  0.52564  1.0000
  H   H243      1.0  0.14632  0.14818  0.59099  1.0000
  H   H244      1.0  0.22214  0.17074  0.64412  1.0000
  C   C307      1.0  0.21242  0.23384  0.82090  1.0000
  C   C308      1.0  0.20961  0.07891  0.81791  1.0000
  P   P12       1.0  0.13214  0.16804  0.64484  1.0000
  C   C309      1.0  0.16162  0.15450  0.66087  1.0000
  H   H245      1.0  0.17370  0.13298  0.59556  1.0000
  H   H246      1.0  0.15202  0.19088  0.61126  1.0000
  S   S48       1.0  0.22075  0.15601  0.71739  1.0000
  C   C310      1.0  0.22298  0.24366  0.81813  1.0000
  H   H247      1.0  0.13329  0.13433  0.66444  1.0000
  C   C311      1.0  0.14793  0.20723  0.64616  1.0000
  C   C312      1.0  0.20868  0.10473  0.71465  1.0000
  H   H248      1.0  0.17319  0.02160  0.95657  1.0000
  C   C313      1.0  0.13405  0.17145  0.59718  1.0000
  C   C314      1.0  0.14709  0.15193  0.65843  1.0000
  C   C315      1.0  0.22037  0.12030  0.66133  1.0000
  C   C316      1.0  0.22439  0.99213  0.70416  1.0000
  C   C317      1.0  0.21468  0.08833  0.78588  1.0000
  C   C318      1.0  0.21108  0.27213  0.93473  1.0000
  C   C319      1.0  0.13494  0.18521  0.65783  1.0000
  H   H249      1.0  0.11826  0.03561  0.94007  1.0000
  H   H250      1.0  0.11896  0.18290  0.70785  1.0000
  H   H251      1.0  0.20622  0.22963  0.84670  1.0000
  C   C320      1.0  0.13458  0.03718  0.97152  1.0000
  C   C321      1.0  0.12999  0.18906  0.54212  1.0000
  C   C322      1.0  0.12793  0.18611  0.57911  1.0000
  C   C323      1.0  0.17029  0.12694  0.67968  1.0000
  C   C324      1.0  0.12687  0.18966  0.68997  1.0000
  C   C325      1.0  0.14550  0.19411  0.63600  1.0000
  C   C326      1.0  0.13981  0.21161  0.67811  1.0000
  C   C327      1.0  0.98936  0.10508  0.98652  1.0000
  H   H252      1.0  0.22221  0.19989  0.77159  1.0000
  Fe  Fe24      1.0  0.22206  0.03220  0.78436  1.0000
  H   H253      1.0  0.23429  0.00983  0.66593  1.0000
  C   C328      1.0  0.21263  0.13742  0.53182  1.0000
  H   H254      1.0  0.22027  0.19439  0.50506  1.0000
  C   C329      1.0  0.22037  0.06859  0.83695  1.0000
  C   C330      1.0  0.13795  0.17735  0.52297  1.0000
  S   S49       1.0  0.23220  0.01217  0.82416  1.0000
  H   H255      1.0  0.00592  0.10072  0.93883  1.0000
  H   H256      1.0  0.20865  0.05158  0.61861  1.0000
  H   H257      1.0  0.13775  0.01965  0.90086  1.0000
  H   H258      1.0  0.15627  0.21390  0.62940  1.0000
  H   H259      1.0  0.22222  0.11225  0.61247  1.0000
  H   H260      1.0  0.21722  0.12554  0.71352  1.0000
  H   H261      1.0  0.00125  0.07455  0.94209  1.0000
  H   H262      1.0  0.10665  0.07268  0.97035  1.0000
  C   C331      1.0  0.17926  0.18374  0.50502  1.0000
  C   C332      1.0  0.13499  0.15266  0.98662  1.0000
  C   C333      1.0  0.22772  0.02641  0.94697  1.0000
  C   C334      1.0  0.17730  0.05361  0.95644  1.0000
  H   H263      1.0  0.04604  0.13295  0.95979  1.0000
  C   C335      1.0  0.99509  0.08123  0.96251  1.0000
  H   H264      1.0  0.21642  0.06104  0.86112  1.0000
  H   H265      1.0  0.22491  0.03552  0.57501  1.0000
  H   H266      1.0  0.20437  0.24987  0.94766  1.0000
  H   H267      1.0  0.18084  0.12127  0.54101  1.0000
  H   H268      1.0  0.16185  0.00186  0.77325  1.0000
  C   C336      1.0  0.16374  0.99053  0.76571  1.0000
  C   C337      1.0  0.22083  0.04710  0.61977  1.0000
  C   C338      1.0  0.15014  0.03341  0.97627  1.0000
  H   H269      1.0  0.22014  0.98745  0.90211  1.0000
  H   H270      1.0  0.22533  0.13044  0.64854  1.0000
  C   C339      1.0  0.10402  0.12636  0.98445  1.0000
  C   C340      1.0  0.20044  0.06062  0.96552  1.0000
  C   C341      1.0  0.23402  0.15227  0.67931  1.0000
  C   C342      1.0  0.23416  0.02888  0.97461  1.0000
  H   H271      1.0  0.13997  0.17976  0.49424  1.0000
  H   H272      1.0  0.23309  0.02945  0.91968  1.0000
  C   C343      1.0  0.23065  0.08761  0.77380  1.0000
  H   H273      1.0  0.16471  0.98476  0.67329  1.0000
  H   H274      1.0  0.23234  0.18226  0.82288  1.0000
  H   H275      1.0  0.12590  0.04428  0.98797  1.0000
  H   H276      1.0  0.20563  0.98703  0.62827  1.0000
  C   C344      1.0  0.22550  0.16993  0.50323  1.0000
  C   C345      1.0  0.23222  0.16166  0.64652  1.0000
  H   H277      1.0  0.21369  0.16970  0.50137  1.0000
  C   C346      1.0  0.20722  0.01651  0.99040  1.0000
  C   C347      1.0  0.17164  0.31761  0.06685  1.0000
  C   C348      1.0  0.22464  0.64641  0.13879  1.0000
  C   C349      1.0  0.22678  0.64282  0.25500  1.0000
  C   C350      1.0  0.21440  0.63690  0.45239  1.0000
  C   C351      1.0  0.17798  0.64261  0.45150  1.0000
  C   C352      1.0  0.23135  0.64348  0.07720  1.0000
  H   H278      1.0  0.02960  0.64070  0.27090  1.0000
  C   C353      1.0  0.18214  0.64343  0.22344  1.0000
  H   H279      1.0  0.22111  0.51186  0.99536  1.0000
  H   H280      1.0  0.15971  0.32372  0.06810  1.0000
  H   H281      1.0  0.20728  0.32321  0.07145  1.0000
  C   C354      1.0  0.23138  0.63718  0.11295  1.0000
  C   C355      1.0  0.23493  0.62579  0.40830  1.0000
  H   H282      1.0  0.17994  0.33714  0.07464  1.0000
  H   H283      1.0  0.17054  0.64284  0.27764  1.0000
  H   H284      1.0  0.17783  0.63362  0.22000  1.0000
  C   C356      1.0  0.18302  0.32519  0.07047  1.0000
  H   H285      1.0  0.22677  0.61296  0.45876  1.0000
  C   C357      1.0  0.22553  0.62421  0.44179  1.0000
  C   C358      1.0  0.19842  0.31738  0.06857  1.0000
  H   H286      1.0  0.22473  0.64133  0.16639  1.0000
  H   H287      1.0  0.21615  0.63999  0.25189  1.0000
  C   C359      1.0  0.23334  0.64003  0.38521  1.0000
  H   H288      1.0  0.19435  0.64702  0.17014  1.0000
  H   H289      1.0  0.18695  0.63880  0.43026  1.0000
  C   C360      1.0  0.18138  0.64199  0.48516  1.0000
  H   H290      1.0  0.18397  0.61074  0.48982  1.0000
  C   C361      1.0  0.22536  0.63501  0.73259  1.0000
  H   H291      1.0  0.23395  0.61382  0.91368  1.0000
  C   C362      1.0  0.21420  0.60684  0.53288  1.0000
  H   H292      1.0  0.19343  0.63040  0.57153  1.0000
  H   H293      1.0  0.19842  0.64403  0.61515  1.0000
  C   C363      1.0  0.19280  0.60544  0.50595  1.0000
  C   C364      1.0  0.20262  0.61422  0.51254  1.0000
  H   H294      1.0  0.22792  0.62729  0.71353  1.0000
  P   P13       1.0  0.20093  0.63464  0.49389  1.0000
  C   C365      1.0  0.20464  0.64466  0.52575  1.0000
  H   H295      1.0  0.22462  0.58537  0.56278  1.0000
  H   H296      1.0  0.20702  0.57007  0.55142  1.0000
  H   H297      1.0  0.22417  0.61250  0.86026  1.0000
  C   C366      1.0  0.23026  0.60205  0.87485  1.0000
  C   C367      1.0  0.23384  0.63168  0.76050  1.0000
  C   C368      1.0  0.19957  0.63997  0.56220  1.0000
  C   C369      1.0  0.23313  0.58797  0.86270  1.0000
  C   C370      1.0  0.23040  0.54623  0.94963  1.0000
  C   C371      1.0  0.23055  0.64160  0.78531  1.0000
  C   C372      1.0  0.16932  0.64677  0.51214  1.0000
  C   C373      1.0  0.22808  0.52064  0.98346  1.0000
  C   C374      1.0  0.19438  0.58958  0.52000  1.0000
  C   C375      1.0  0.22143  0.53486  0.96497  1.0000
  H   H298      1.0  0.22924  0.58754  0.83870  1.0000
  H   H299      1.0  0.14904  0.64581  0.61615  1.0000
  H   H300      1.0  0.20930  0.53710  0.96262  1.0000
  H   H301      1.0  0.22491  0.55721  0.93591  1.0000
  H   H302      1.0  0.17154  0.64634  0.53834  1.0000
  C   C376      1.0  0.21572  0.59099  0.54696  1.0000
  H   H303      1.0  0.22210  0.61332  0.53776  1.0000
  C   C377      1.0  0.20581  0.58236  0.54056  1.0000
  H   H304      1.0  0.18677  0.58285  0.51484  1.0000
  Fe  Fe25      1.0  0.07386  0.78474  0.17552  1.0000
  S   S50       1.0  0.09385  0.76523  0.16377  1.0000
  S   S51       1.0  0.05075  0.77755  0.20246  1.0000
  Fe  Fe26      1.0  0.09505  0.80918  0.15125  1.0000
  S   S52       1.0  0.11594  0.79144  0.13608  1.0000
  S   S53       1.0  0.09784  0.83423  0.14628  1.0000
  Fe  Fe27      1.0  0.10015  0.78167  0.11331  1.0000
  S   S54       1.0  0.10890  0.77171  0.06274  1.0000
  Fe  Fe28      1.0  0.10781  0.77674  0.18765  1.0000
  S   S55       1.0  0.12320  0.76788  0.22940  1.0000
  S   S56       1.0  0.07955  0.80073  0.12379  1.0000
  S   S57       1.0  0.08735  0.79500  0.20384  1.0000
  Fe  Fe29      1.0  0.20520  0.86992  0.14388  1.0000
  S   S58       1.0  0.18665  0.87530  0.19005  1.0000
  H   H305      1.0  0.21262  0.89414  0.20495  1.0000
  Fe  Fe30      1.0  0.18463  0.88824  0.09055  1.0000
  S   S59       1.0  0.16455  0.89464  0.13325  1.0000
  S   S60       1.0  0.18068  0.89745  0.03446  1.0000
  Fe  Fe31      1.0  0.18265  0.89974  0.15894  1.0000
  S   S61       1.0  0.17699  0.92212  0.18218  1.0000
  Fe  Fe32      1.0  0.17055  0.86976  0.15965  1.0000
  S   S62       1.0  0.15667  0.85080  0.18630  1.0000
  S   S63       1.0  0.20235  0.89469  0.11449  1.0000
  S   S64       1.0  0.18945  0.86320  0.11496  1.0000
  C   C378      1.0  0.00046  0.74359  0.02075  1.0000
  C   C379      1.0  0.18082  0.69309  0.15219  1.0000
  S   S65       1.0  0.21774  0.97299  0.17577  1.0000
  H   H306      1.0  0.04165  0.79670  0.13757  1.0000
  H   H307      1.0  0.99296  0.70882  0.18084  1.0000
  Fe  Fe33      1.0  0.18371  0.70144  0.30347  1.0000
  S   S66       1.0  0.20701  0.70822  0.28594  1.0000
  S   S67       1.0  0.17019  0.70404  0.25933  1.0000
  Fe  Fe34      1.0  0.18807  0.69238  0.38093  1.0000
  S   S68       1.0  0.21167  0.69855  0.36877  1.0000
  Fe  Fe35      1.0  0.20065  0.71948  0.33391  1.0000
  S   S69       1.0  0.20307  0.74392  0.33232  1.0000
  Fe  Fe36      1.0  0.21569  0.68653  0.32195  1.0000
  S   S70       1.0  0.17672  0.71424  0.34931  1.0000
  S   S71       1.0  0.19279  0.67866  0.33662  1.0000
  H   H308      1.0  0.02558  0.76086  0.21923  1.0000
  H   H309      1.0  0.01879  0.79908  0.10980  1.0000
  P   P14       1.0  0.22206  0.95016  0.03886  1.0000
  C   C380      1.0  0.12707  0.72889  0.45573  1.0000
  C   C381      1.0  0.18146  0.93381  0.06955  1.0000
  H   H310      1.0  0.13299  0.79746  0.33229  1.0000
  C   C382      1.0  0.13774  0.77529  0.36556  1.0000
  C   C383      1.0  0.19403  0.95679  0.08527  1.0000
  C   C384      1.0  0.23404  0.73179  0.32239  1.0000
  C   C385      1.0  0.99563  0.73778  0.25689  1.0000
  C   C386      1.0  0.10516  0.77337  0.99444  1.0000
  H   H311      1.0  0.14550  0.75238  0.39395  1.0000
  C   C387      1.0  0.05427  0.76149  0.99063  1.0000
  H   H312      1.0  0.01916  0.82159  0.22267  1.0000
  C   C388      1.0  0.22680  0.75918  0.32577  1.0000
  C   C389      1.0  0.02029  0.65063  0.26701  1.0000
  C   C390      1.0  0.21290  0.74927  0.23321  1.0000
  C   C391      1.0  0.14123  0.78664  0.33613  1.0000
  C   C392      1.0  0.22598  0.79201  0.46781  1.0000
  H   H313      1.0  0.13497  0.71806  0.40936  1.0000
  C   C393      1.0  0.00617  0.67083  0.22765  1.0000
  H   H314      1.0  0.21320  0.85861  0.22004  1.0000
  C   C394      1.0  0.20372  0.70387  0.12396  1.0000
  H   H315      1.0  0.20278  0.92883  0.03357  1.0000
  C   C395      1.0  0.20011  0.88773  0.28001  1.0000
  H   H316      1.0  0.13895  0.85022  0.00699  1.0000
  H   H317      1.0  0.16267  0.80936  0.01316  1.0000
  C   C396      1.0  0.01461  0.73503  0.02925  1.0000
  C   C397      1.0  0.18875  0.89733  0.26133  1.0000
  C   C398      1.0  0.19854  0.87201  0.00614  1.0000
  C   C399      1.0  0.22856  0.72704  0.42592  1.0000
  H   H318      1.0  0.18896  0.94514  0.29733  1.0000
  H   H319      1.0  0.20147  0.86720  0.03210  1.0000
  C   C400      1.0  0.18856  0.93635  0.17808  1.0000
  C   C401      1.0  0.18132  0.95095  0.18722  1.0000
  C   C402      1.0  0.18993  0.96261  0.18453  1.0000
  C   C403      1.0  0.20606  0.95961  0.17404  1.0000
  C   C404      1.0  0.21334  0.94490  0.16549  1.0000
  C   C405      1.0  0.20465  0.93345  0.16683  1.0000
  H   H320      1.0  0.16891  0.95330  0.19627  1.0000
  H   H321      1.0  0.18417  0.97370  0.19198  1.0000
  H   H322      1.0  0.98598  0.71231  0.12182  1.0000
  H   H323      1.0  0.21044  0.92225  0.16010  1.0000
  C   C406      1.0  0.15654  0.72144  0.25151  1.0000
  C   C407      1.0  0.15225  0.73169  0.27560  1.0000
  C   C408      1.0  0.14147  0.74550  0.26901  1.0000
  C   C409      1.0  0.13519  0.74946  0.23778  1.0000
  C   C410      1.0  0.13937  0.73921  0.21358  1.0000
  C   C411      1.0  0.14997  0.72516  0.22062  1.0000
  H   H324      1.0  0.15707  0.72895  0.29956  1.0000
  H   H325      1.0  0.13809  0.75325  0.28813  1.0000
  H   H326      1.0  0.13451  0.74213  0.18953  1.0000
  H   H327      1.0  0.15311  0.71718  0.20212  1.0000
  H   H328      1.0  0.20672  0.72866  0.16162  1.0000
  C   C412      1.0  0.08935  0.79404  0.02419  1.0000
  C   C413      1.0  0.10046  0.78031  0.02481  1.0000
  C   C414      1.0  0.19324  0.66874  0.23229  1.0000
  H   H329      1.0  0.22937  0.88617  0.15132  1.0000
  H   H330      1.0  0.99864  0.84501  0.22990  1.0000
  H   H331      1.0  0.08563  0.79947  0.04739  1.0000
  C   C415      1.0  0.19703  0.87361  0.30097  1.0000
  C   C416      1.0  0.11443  0.83872  0.15676  1.0000
  C   C417      1.0  0.11558  0.85435  0.15353  1.0000
  C   C418      1.0  0.12880  0.85829  0.16072  1.0000
  C   C419      1.0  0.14081  0.84661  0.17221  1.0000
  C   C420      1.0  0.13952  0.83103  0.17596  1.0000
  C   C421      1.0  0.12660  0.82708  0.16754  1.0000
  H   H332      1.0  0.10626  0.86346  0.14518  1.0000
  H   H333      1.0  0.12948  0.87035  0.15838  1.0000
  H   H334      1.0  0.14848  0.82194  0.18603  1.0000
  H   H335      1.0  0.12583  0.81502  0.17048  1.0000
  C   C422      1.0  0.02418  0.76907  0.19504  1.0000
  C   C423      1.0  0.03527  0.77857  0.18016  1.0000
  C   C424      1.0  0.03331  0.78922  0.14907  1.0000
  C   C425      1.0  0.02034  0.79049  0.13326  1.0000
  C   C426      1.0  0.05825  0.75542  0.13030  1.0000
  H   H336      1.0  0.17663  0.92479  0.06391  1.0000
  H   H337      1.0  0.07473  0.77004  0.10389  1.0000
  H   H338      1.0  0.06280  0.75243  0.15484  1.0000
  C   C427      1.0  0.01133  0.77014  0.17875  1.0000
  C   C428      1.0  0.22434  0.80132  0.43478  1.0000
  C   C429      1.0  0.19293  0.81035  0.31322  1.0000
  H   H339      1.0  0.17016  0.74766  0.35208  1.0000
  H   H340      1.0  0.12692  0.77740  0.38385  1.0000
  C   C430      1.0  0.22400  0.74848  0.20212  1.0000
  C   C431      1.0  0.22313  0.89242  0.01448  1.0000
  C   C432      1.0  0.13333  0.71633  0.43803  1.0000
  H   H341      1.0  0.21172  0.76505  0.40574  1.0000
  H   H342      1.0  0.00797  0.81892  0.04936  1.0000
  H   H343      1.0  0.23044  0.70666  0.21966  1.0000
  H   H344      1.0  0.17532  0.68383  0.16861  1.0000
  C   C433      1.0  0.05872  0.76974  0.07053  1.0000
  H   H345      1.0  0.18067  0.85815  0.31867  1.0000
  H   H346      1.0  0.19830  0.95913  0.99251  1.0000
  H   H347      1.0  0.12917  0.81483  0.03070  1.0000
  C   C434      1.0  0.19481  0.82466  0.29208  1.0000
  H   H348      1.0  0.16084  0.87525  0.28509  1.0000
  C   C435      1.0  0.13640  0.79276  0.01376  1.0000
  C   C436      1.0  0.17804  0.64860  0.25590  1.0000
  H   H349      1.0  0.17082  0.72965  0.10694  1.0000
  C   C437      1.0  0.16557  0.76978  0.31799  1.0000
  C   C438      1.0  0.00921  0.76751  0.01751  1.0000
  H   H350      1.0  0.01432  0.79032  0.05890  1.0000
  C   C439      1.0  0.22673  0.80156  0.24245  1.0000
  C   C440      1.0  0.99607  0.67626  0.25690  1.0000
  H   H351      1.0  0.22206  0.81843  0.14475  1.0000
  H   H352      1.0  0.03979  0.74257  0.15045  1.0000
  C   C441      1.0  0.22615  0.65440  0.27456  1.0000
  C   C442      1.0  0.98759  0.80648  0.22372  1.0000
  H   H353      1.0  0.19117  0.74352  0.26229  1.0000
  H   H354      1.0  0.21459  0.75460  0.25404  1.0000
  C   C443      1.0  0.21784  0.66207  0.12916  1.0000
  H   H355      1.0  0.19715  0.67866  0.23627  1.0000
  H   H356      1.0  0.20455  0.66115  0.43652  1.0000
  H   H357      1.0  0.99071  0.67288  0.31421  1.0000
  H   H358      1.0  0.20147  0.82882  0.01912  1.0000
  H   H359      1.0  0.21257  0.68025  0.08476  1.0000
  H   H360      1.0  0.19382  0.70877  0.43202  1.0000
  C   C444      1.0  0.02698  0.82184  0.00590  1.0000
  C   C445      1.0  0.18849  0.88638  0.00064  1.0000
  H   H361      1.0  0.22128  0.66375  0.37776  1.0000
  C   C446      1.0  0.18223  0.80239  0.30767  1.0000
  C   C447      1.0  0.20842  0.73456  0.18135  1.0000
  H   H362      1.0  0.17647  0.76744  0.30002  1.0000
  C   C448      1.0  0.17460  0.89290  0.26352  1.0000
  C   C449      1.0  0.19963  0.93875  0.28437  1.0000
  H   H363      1.0  0.22331  0.81236  0.25256  1.0000
  C   C450      1.0  0.21818  0.79834  0.22015  1.0000
  H   H364      1.0  0.14316  0.69192  0.44338  1.0000
  H   H365      1.0  0.01468  0.72287  0.27986  1.0000
  H   H366      1.0  0.14508  0.83134  0.27916  1.0000
  C   C451      1.0  0.18521  0.78716  0.17917  1.0000
  C   C452      1.0  0.18132  0.77305  0.17856  1.0000
  C   C453      1.0  0.17028  0.76708  0.20567  1.0000
  C   C454      1.0  0.16362  0.77491  0.23398  1.0000
  C   C455      1.0  0.16798  0.78871  0.23574  1.0000
  C   C456      1.0  0.17848  0.79505  0.20747  1.0000
  P   P15       1.0  0.15948  0.79839  0.27325  1.0000
  C   C457      1.0  0.14126  0.81069  0.26455  1.0000
  C   C458      1.0  0.13725  0.82615  0.27019  1.0000
  C   C459      1.0  0.12287  0.83521  0.26407  1.0000
  C   C460      1.0  0.11220  0.82878  0.25350  1.0000
  C   C461      1.0  0.11588  0.81325  0.24918  1.0000
  C   C462      1.0  0.13036  0.80429  0.25440  1.0000
  C   C463      1.0  0.17330  0.80870  0.28078  1.0000
  C   C464      1.0  0.17563  0.82288  0.25905  1.0000
  C   C465      1.0  0.18628  0.83087  0.26477  1.0000
  H   H367      1.0  0.19334  0.79204  0.15752  1.0000
  H   H368      1.0  0.18645  0.76698  0.15658  1.0000
  H   H369      1.0  0.16672  0.75645  0.20473  1.0000
  H   H370      1.0  0.15500  0.77023  0.25450  1.0000
  H   H371      1.0  0.18145  0.80607  0.20702  1.0000
  H   H372      1.0  0.12008  0.84730  0.26701  1.0000
  H   H373      1.0  0.10120  0.83587  0.24802  1.0000
  H   H374      1.0  0.10766  0.80825  0.24077  1.0000
  H   H375      1.0  0.13296  0.79233  0.25068  1.0000
  H   H376      1.0  0.16920  0.82778  0.23763  1.0000
  H   H377      1.0  0.18791  0.84186  0.24789  1.0000
  C   C466      1.0  0.00936  0.78090  0.14775  1.0000
  C   C467      1.0  0.06487  0.76547  0.10177  1.0000
  C   C468      1.0  0.19126  0.70354  0.45953  1.0000
  H   H378      1.0  0.20975  0.69934  0.19838  1.0000
  H   H379      1.0  0.22582  0.94225  0.15840  1.0000
  H   H380      1.0  0.12376  0.74039  0.44078  1.0000
  C   C469      1.0  0.20224  0.92252  0.28946  1.0000
  C   C470      1.0  0.17171  0.87876  0.28403  1.0000
  P   P16       1.0  0.20927  0.67391  0.16301  1.0000
  C   C471      1.0  0.19630  0.93611  0.05258  1.0000
  H   H381      1.0  0.20805  0.80666  0.21321  1.0000
  C   C472      1.0  0.16205  0.75851  0.34752  1.0000
  C   C473      1.0  0.04620  0.76358  0.06714  1.0000
  C   C474      1.0  0.19431  0.71757  0.11014  1.0000
  C   C475      1.0  0.19746  0.73541  0.21237  1.0000
  C   C476      1.0  0.19704  0.69153  0.14512  1.0000
  H   H382      1.0  0.18733  0.73013  0.21675  1.0000
  C   C477      1.0  0.17291  0.94295  0.09432  1.0000
  H   H383      1.0  0.19985  0.80538  0.33381  1.0000
  C   C478      1.0  0.21576  0.91423  0.27149  1.0000
  C   C479      1.0  0.23440  0.75685  0.42013  1.0000
  H   H384      1.0  0.20651  0.73866  0.41116  1.0000
  C   C480      1.0  0.21059  0.94677  0.26181  1.0000
  C   C481      1.0  0.22276  0.78444  0.20686  1.0000
  H   H385      1.0  0.01210  0.79711  0.21877  1.0000
  C   C482      1.0  0.22450  0.67910  0.17907  1.0000
  C   C483      1.0  0.18348  0.66134  0.26018  1.0000
  C   C484      1.0  0.99987  0.70963  0.26767  1.0000
  C   C485      1.0  0.17912  0.95453  0.10185  1.0000
  H   H386      1.0  0.19085  0.90820  0.24464  1.0000
  H   H387      1.0  0.99916  0.74841  0.25795  1.0000
  H   H388      1.0  0.00679  0.69862  0.27740  1.0000
  H   H389      1.0  0.02593  0.65387  0.21007  1.0000
  H   H390      1.0  0.00296  0.76271  0.19016  1.0000
  H   H391      1.0  0.17249  0.96143  0.12143  1.0000
  C   C486      1.0  0.17335  0.81340  0.00092  1.0000
  C   C487      1.0  0.20275  0.94756  0.06051  1.0000
  H   H392      1.0  0.22875  0.80415  0.09418  1.0000
  C   C488      1.0  0.21784  0.66831  0.09311  1.0000
  C   C489      1.0  0.99769  0.75978  0.01523  1.0000
  C   C490      1.0  0.22380  0.85019  0.22181  1.0000
  C   C491      1.0  0.99829  0.66880  0.29126  1.0000
  C   C492      1.0  0.22996  0.96057  0.06314  1.0000
  C   C493      1.0  0.22028  0.75499  0.41377  1.0000
  C   C494      1.0  0.03922  0.75394  0.09635  1.0000
  C   C495      1.0  0.00438  0.72337  0.26920  1.0000
  S   S72       1.0  0.22824  0.85347  0.14868  1.0000
  C   C496      1.0  0.02612  0.74269  0.03184  1.0000
  S   S73       1.0  0.17723  0.68400  0.43733  1.0000
  P   P17       1.0  0.21860  0.89335  0.27601  1.0000
  C   C497      1.0  0.04531  0.74981  0.12775  1.0000
  H   H393      1.0  0.00692  0.78005  0.01190  1.0000
  C   C498      1.0  0.03415  0.78928  0.01656  1.0000
  C   C499      1.0  0.18218  0.81767  0.02147  1.0000
  S   S74       1.0  0.99336  0.78307  0.12616  1.0000
  P   P18       1.0  0.17526  0.81712  0.06833  1.0000
  C   C500      1.0  0.16072  0.83454  0.07087  1.0000
  C   C501      1.0  0.16753  0.79987  0.08940  1.0000
  C   C502      1.0  0.15840  0.79943  0.12320  1.0000
  C   C503      1.0  0.15233  0.78623  0.14028  1.0000
  C   C504      1.0  0.15539  0.77328  0.12380  1.0000
  C   C505      1.0  0.16482  0.77343  0.09046  1.0000
  C   C506      1.0  0.17106  0.78660  0.07346  1.0000
  C   C507      1.0  0.16530  0.84895  0.06515  1.0000
  C   C508      1.0  0.15418  0.86263  0.06604  1.0000
  C   C509      1.0  0.13842  0.86203  0.07204  1.0000
  C   C510      1.0  0.13380  0.84775  0.07697  1.0000
  C   C511      1.0  0.14488  0.83404  0.07638  1.0000
  C   C512      1.0  0.19012  0.81723  0.09278  1.0000
  C   C513      1.0  0.20540  0.80938  0.08344  1.0000
  C   C514      1.0  0.21688  0.80976  0.10220  1.0000
  C   C515      1.0  0.21311  0.81767  0.13085  1.0000
  C   C516      1.0  0.19777  0.82483  0.14137  1.0000
  C   C517      1.0  0.18630  0.82460  0.12251  1.0000
  C   C518      1.0  0.23433  0.93123  0.03765  1.0000
  C   C519      1.0  0.00309  0.80724  0.22204  1.0000
  H   H394      1.0  0.23255  0.94493  0.22661  1.0000
  C   C520      1.0  0.19637  0.70888  0.48525  1.0000
  C   C521      1.0  0.01776  0.81316  0.03244  1.0000
  H   H395      1.0  0.15597  0.80932  0.13633  1.0000
  H   H396      1.0  0.14516  0.78606  0.16639  1.0000
  H   H397      1.0  0.15037  0.76318  0.13702  1.0000
  H   H398      1.0  0.16718  0.76336  0.07773  1.0000
  H   H399      1.0  0.17859  0.78635  0.04803  1.0000
  H   H400      1.0  0.17748  0.84964  0.06010  1.0000
  H   H401      1.0  0.15781  0.87369  0.06231  1.0000
  H   H402      1.0  0.12978  0.87258  0.07342  1.0000
  H   H403      1.0  0.12158  0.84725  0.08189  1.0000
  H   H404      1.0  0.14097  0.82316  0.08037  1.0000
  H   H405      1.0  0.20848  0.80316  0.06140  1.0000
  C   C522      1.0  0.19767  0.66346  0.19976  1.0000
  H   H406      1.0  0.19480  0.83099  0.16358  1.0000
  H   H407      1.0  0.17450  0.83038  0.13099  1.0000
  H   H408      1.0  0.22447  0.66382  0.03954  1.0000
  C   C523      1.0  0.17817  0.71904  0.11742  1.0000
  H   H409      1.0  0.15894  0.70792  0.14401  1.0000
  H   H410      1.0  0.21414  0.89350  0.03756  1.0000
  H   H411      1.0  0.08349  0.83283  0.08071  1.0000
  H   H412      1.0  0.21794  0.76944  0.32876  1.0000
  C   C524      1.0  0.22261  0.74503  0.32637  1.0000
  C   C525      1.0  0.10893  0.84450  0.00712  1.0000
  H   H413      1.0  0.13833  0.78648  0.03980  1.0000
  C   C526      1.0  0.17146  0.70679  0.13829  1.0000
  C   C527      1.0  0.19517  0.82425  0.00442  1.0000
  H   H414      1.0  0.16159  0.94084  0.10828  1.0000
  H   H415      1.0  0.02432  0.83441  0.00201  1.0000
  H   H416      1.0  0.21622  0.70285  0.11817  1.0000
  C   C528      1.0  0.10747  0.85996  0.01124  1.0000
  C   C529      1.0  0.09777  0.86542  0.04072  1.0000
  C   C530      1.0  0.08924  0.85558  0.06584  1.0000
  C   C531      1.0  0.09016  0.84040  0.06114  1.0000
  C   C532      1.0  0.09983  0.83490  0.03173  1.0000
  H   H417      1.0  0.18107  0.79132  0.32440  1.0000
  C   C533      1.0  0.02137  0.79694  0.03782  1.0000
  C   C534      1.0  0.22457  0.65902  0.06728  1.0000
  H   H418      1.0  0.22082  0.84760  0.27849  1.0000
  H   H419      1.0  0.10012  0.82318  0.02832  1.0000
  C   C535      1.0  0.00707  0.82109  0.22431  1.0000
  H   H420      1.0  0.01194  0.65028  0.32282  1.0000
  C   C536      1.0  0.21313  0.65124  0.42921  1.0000
  H   H421      1.0  0.16601  0.90035  0.24857  1.0000
  H   H422      1.0  0.20549  0.86597  0.31576  1.0000
  H   H423      1.0  0.06397  0.77759  0.04869  1.0000
  C   C537      1.0  0.13782  0.70155  0.45725  1.0000
  C   C538      1.0  0.15513  0.78392  0.31192  1.0000
  H   H424      1.0  0.20307  0.83077  0.29661  1.0000
  C   C539      1.0  0.18278  0.69158  0.46952  1.0000
  C   C540      1.0  0.14814  0.76121  0.37122  1.0000
  C   C541      1.0  0.02349  0.75898  0.02621  1.0000
  H   H425      1.0  0.09690  0.87723  0.04429  1.0000
  H   H426      1.0  0.08198  0.85962  0.08920  1.0000
  H   H427      1.0  0.21608  0.78209  0.18945  1.0000
  C   C542      1.0  0.23206  0.91903  0.06623  1.0000
  C   C543      1.0  0.22151  0.96153  0.99497  1.0000
  C   C544      1.0  0.22135  0.69240  0.19478  1.0000
  H   H428      1.0  0.23109  0.89058  0.39446  1.0000
  H   H429      1.0  0.23004  0.74005  0.15219  1.0000
  H   H430      1.0  0.21650  0.78646  0.48260  1.0000
  H   H431      1.0  0.19874  0.96556  0.09233  1.0000
  H   H432      1.0  0.07280  0.75307  0.02171  1.0000
  H   H433      1.0  0.01664  0.72246  0.03367  1.0000
  H   H434      1.0  0.02897  0.74979  0.09532  1.0000
  C   C545      1.0  0.22818  0.84398  0.25503  1.0000
  C   C546      1.0  0.99551  0.83424  0.22840  1.0000
  H   H435      1.0  0.20840  0.95937  0.25693  1.0000
  H   H436      1.0  0.20290  0.71814  0.47742  1.0000
  C   C547      1.0  0.18292  0.86913  0.30280  1.0000
  C   C548      1.0  0.22684  0.92239  0.24934  1.0000
  C   C549      1.0  0.22166  0.74104  0.17618  1.0000
  P   P19       1.0  0.03931  0.76841  0.02548  1.0000
  H   H437      1.0  0.21370  0.80291  0.42455  1.0000
  C   C550      1.0  0.22483  0.88965  0.20532  1.0000
  H   H438      1.0  0.19355  0.91650  0.30680  1.0000
  H   H439      1.0  0.19950  0.72705  0.09383  1.0000
  C   C551      1.0  0.22424  0.93859  0.24462  1.0000
  H   H440      1.0  0.13945  0.65826  0.46588  1.0000
  C   C552      1.0  0.19962  0.74294  0.23807  1.0000
  C   C553      1.0  0.21735  0.74009  0.41677  1.0000
  C   C554      1.0  0.22663  0.97688  0.05740  1.0000
  H   H441      1.0  0.03716  0.73591  0.03780  1.0000
  C   C555      1.0  0.01822  0.65805  0.23275  1.0000
  C   C556      1.0  0.19172  0.65097  0.19529  1.0000
  C   C557      1.0  0.23219  0.88439  0.37293  1.0000
  H   H442      1.0  0.98663  0.76628  0.00884  1.0000
  H   H443      1.0  0.18001  0.66564  0.28501  1.0000
  H   H444      1.0  0.21614  0.66144  0.48693  1.0000
  C   C558      1.0  0.06941  0.75446  0.99628  1.0000
  C   C559      1.0  0.98664  0.71024  0.25340  1.0000
  C   C560      1.0  0.13086  0.80878  0.00869  1.0000
  C   C561      1.0  0.22581  0.89189  0.34273  1.0000
  H   H445      1.0  0.22260  0.92068  0.08827  1.0000
  H   H446      1.0  0.99164  0.73766  0.01824  1.0000
  H   H447      1.0  0.00480  0.67639  0.20089  1.0000
  C   C562      1.0  0.23327  0.84569  0.19109  1.0000
  H   H448      1.0  0.11383  0.86779  0.99175  1.0000
  H   H449      1.0  0.23087  0.72086  0.32265  1.0000
  C   C563      1.0  0.22731  0.88398  0.31460  1.0000
  H   H450      1.0  0.07439  0.81136  0.99321  1.0000
  C   C564      1.0  0.23435  0.88534  0.17453  1.0000
  H   H451      1.0  0.22604  0.71561  0.42804  1.0000
  H   H452      1.0  0.21506  0.66047  0.28622  1.0000
  H   H453      1.0  0.23537  0.81537  0.38871  1.0000
  H   H454      1.0  0.11372  0.76272  0.99479  1.0000
  C   C565      1.0  0.23500  0.86838  0.31757  1.0000
  H   H455      1.0  0.21977  0.90383  0.34144  1.0000
  C   C566      1.0  0.23104  0.88795  0.23612  1.0000
  C   C567      1.0  0.23306  0.69662  0.20689  1.0000
  H   H456      1.0  0.16049  0.64932  0.41836  1.0000
  C   C568      1.0  0.01034  0.65602  0.29625  1.0000
  C   C569      1.0  0.08300  0.80075  0.99343  1.0000
  C   C570      1.0  0.22254  0.65276  0.39581  1.0000
  H   H457      1.0  0.98810  0.83646  0.00090  1.0000
  C   C571      1.0  0.16290  0.64844  0.44467  1.0000
  C   C572      1.0  0.15106  0.65350  0.47144  1.0000
  Fe  Fe37      1.0  0.20011  0.87058  0.85729  1.0000
  S   S75       1.0  0.17652  0.88553  0.85736  1.0000
  S   S76       1.0  0.20984  0.86040  0.90790  1.0000
  Fe  Fe38      1.0  0.20564  0.87250  0.77762  1.0000
  S   S77       1.0  0.18238  0.88788  0.77207  1.0000
  C   C573      1.0  0.23308  0.71214  0.67452  1.0000
  Fe  Fe39      1.0  0.18773  0.90068  0.81019  1.0000
  S   S78       1.0  0.18132  0.92695  0.80744  1.0000
  Fe  Fe40      1.0  0.17343  0.87132  0.81964  1.0000
  S   S79       1.0  0.15023  0.86345  0.83324  1.0000
  S   S80       1.0  0.21154  0.88654  0.81220  1.0000
  S   S81       1.0  0.19635  0.85514  0.82296  1.0000
  H   H458      1.0  0.21289  0.75443  0.63412  1.0000
  S   S82       1.0  0.00073  0.75629  0.83492  1.0000
  Fe  Fe41      1.0  0.10801  0.80320  0.80016  1.0000
  S   S83       1.0  0.11383  0.78661  0.84902  1.0000
  S   S84       1.0  0.12636  0.81655  0.76705  1.0000
  Fe  Fe42      1.0  0.07645  0.79303  0.80739  1.0000
  S   S85       1.0  0.08052  0.77570  0.85621  1.0000
  S   S86       1.0  0.05391  0.79711  0.78561  1.0000
  Fe  Fe43      1.0  0.08893  0.79430  0.87283  1.0000
  S   S87       1.0  0.07951  0.80275  0.92503  1.0000
  Fe  Fe44      1.0  0.10495  0.76976  0.82718  1.0000
  S   S88       1.0  0.11842  0.74519  0.82836  1.0000
  S   S89       1.0  0.08361  0.81224  0.82522  1.0000
  S   S90       1.0  0.10047  0.78586  0.77689  1.0000
  H   H459      1.0  0.00838  0.74390  0.71338  1.0000
  Fe  Fe45      1.0  0.19894  0.71103  0.67817  1.0000
  S   S91       1.0  0.18316  0.69596  0.71405  1.0000
  S   S92       1.0  0.20865  0.72631  0.70279  1.0000
  Fe  Fe46      1.0  0.19305  0.70308  0.61097  1.0000
  C   C574      1.0  0.07399  0.76346  0.73828  1.0000
  S   S93       1.0  0.20055  0.70887  0.55178  1.0000
  Fe  Fe47      1.0  0.16713  0.70615  0.67479  1.0000
  S   S94       1.0  0.14167  0.71686  0.68712  1.0000
  H   H460      1.0  0.21582  0.76086  0.69862  1.0000
  S   S95       1.0  0.18220  0.72244  0.64143  1.0000
  S   S96       1.0  0.21139  0.69311  0.64468  1.0000
  H   H461      1.0  0.22114  0.73022  0.52632  1.0000
  C   C575      1.0  0.21242  0.65724  0.51468  1.0000
  C   C576      1.0  0.08019  0.77611  0.71775  1.0000
  H   H462      1.0  0.20992  0.83053  0.95464  1.0000
  C   C577      1.0  0.20361  0.94617  0.70402  1.0000
  H   H463      1.0  0.04726  0.82092  0.96477  1.0000
  C   C578      1.0  0.17070  0.97819  0.65259  1.0000
  H   H464      1.0  0.17509  0.74195  0.73265  1.0000
  H   H465      1.0  0.18522  0.81614  0.85980  1.0000
  C   C579      1.0  0.22806  0.76491  0.53461  1.0000
  H   H466      1.0  0.23164  0.68059  0.71808  1.0000
  C   C580      1.0  0.10549  0.70988  0.62012  1.0000
  C   C581      1.0  0.19303  0.70235  0.52108  1.0000
  C   C582      1.0  0.15453  0.66871  0.60208  1.0000
  C   C583      1.0  0.05046  0.76281  0.95717  1.0000
  C   C584      1.0  0.12561  0.73835  0.78785  1.0000
  C   C585      1.0  0.13756  0.72524  0.78663  1.0000
  C   C586      1.0  0.14299  0.71897  0.75537  1.0000
  C   C587      1.0  0.13629  0.72559  0.72526  1.0000
  C   C588      1.0  0.12450  0.73884  0.72624  1.0000
  C   C589      1.0  0.11922  0.74526  0.75736  1.0000
  H   H467      1.0  0.14252  0.71980  0.81010  1.0000
  H   H468      1.0  0.15198  0.70868  0.75504  1.0000
  H   H469      1.0  0.11930  0.74405  0.70302  1.0000
  H   H470      1.0  0.10990  0.75525  0.75799  1.0000
  C   C590      1.0  0.01455  0.76877  0.82346  1.0000
  C   C591      1.0  0.02833  0.76399  0.83765  1.0000
  C   C592      1.0  0.04032  0.77266  0.82704  1.0000
  C   C593      1.0  0.03873  0.78626  0.80174  1.0000
  C   C594      1.0  0.02483  0.79120  0.78794  1.0000
  C   C595      1.0  0.01278  0.78258  0.79883  1.0000
  H   H471      1.0  0.02985  0.75333  0.85655  1.0000
  H   H472      1.0  0.05093  0.76862  0.83779  1.0000
  H   H473      1.0  0.02346  0.80167  0.76830  1.0000
  H   H474      1.0  0.00234  0.78636  0.78733  1.0000
  C   C596      1.0  0.08138  0.72581  0.58388  1.0000
  H   H475      1.0  0.21307  0.71595  0.77479  1.0000
  H   H476      1.0  0.14886  0.95747  0.78672  1.0000
  C   C597      1.0  0.16755  0.85479  0.93609  1.0000
  H   H477      1.0  0.09422  0.78466  0.66894  1.0000
  C   C598      1.0  0.16883  0.96126  0.74691  1.0000
  H   H478      1.0  0.21459  0.83794  0.76471  1.0000
  C   C599      1.0  0.14501  0.84918  0.81572  1.0000
  C   C600      1.0  0.13181  0.84309  0.83349  1.0000
  C   C601      1.0  0.12624  0.83279  0.81926  1.0000
  C   C602      1.0  0.13379  0.82856  0.78679  1.0000
  C   C603      1.0  0.14723  0.83435  0.76925  1.0000
  C   C604      1.0  0.15290  0.84456  0.78378  1.0000
  H   H479      1.0  0.12568  0.84656  0.85810  1.0000
  H   H480      1.0  0.11591  0.82840  0.83302  1.0000
  H   H481      1.0  0.15316  0.83107  0.74414  1.0000
  H   H482      1.0  0.16306  0.84920  0.76977  1.0000
  C   C605      1.0  0.19439  0.93890  0.80900  1.0000
  C   C606      1.0  0.21050  0.93391  0.80264  1.0000
  C   C607      1.0  0.22040  0.94436  0.80048  1.0000
  C   C608      1.0  0.21432  0.95978  0.80542  1.0000
  C   C609      1.0  0.19823  0.96453  0.81340  1.0000
  C   C610      1.0  0.18837  0.95412  0.81537  1.0000
  H   H483      1.0  0.21532  0.92216  0.79826  1.0000
  H   H484      1.0  0.15752  0.81545  0.88469  1.0000
  C   C611      1.0  0.99014  0.82112  0.96415  1.0000
  H   H485      1.0  0.17598  0.95795  0.82165  1.0000
  C   C612      1.0  0.10869  0.71436  0.58311  1.0000
  H   H486      1.0  0.18872  0.88965  0.91267  1.0000
  H   H487      1.0  0.16571  0.66500  0.61058  1.0000
  H   H488      1.0  0.10266  0.77480  0.94017  1.0000
  C   C613      1.0  0.06151  0.75711  0.92984  1.0000
  C   C614      1.0  0.07661  0.75034  0.93548  1.0000
  C   C615      1.0  0.14761  0.84430  0.92172  1.0000
  C   C616      1.0  0.13901  0.84495  0.95583  1.0000
  C   C617      1.0  0.14514  0.65789  0.60518  1.0000
  H   H489      1.0  0.19775  0.97541  0.93338  1.0000
  H   H490      1.0  0.08809  0.70993  0.66728  1.0000
  C   C618      1.0  0.15406  0.72364  0.54173  1.0000
  H   H491      1.0  0.22411  0.95093  0.71725  1.0000
  H   H492      1.0  0.22295  0.72438  0.61925  1.0000
  C   C619      1.0  0.01282  0.81446  0.85848  1.0000
  H   H493      1.0  0.16856  0.84855  0.88570  1.0000
  C   C620      1.0  0.23205  0.75605  0.79275  1.0000
  P   P20       1.0  0.19412  0.96631  0.69339  1.0000
  C   C621      1.0  0.09881  0.68574  0.73634  1.0000
  C   C622      1.0  0.21910  0.74141  0.53441  1.0000
  C   C623      1.0  0.20661  0.70137  0.82396  1.0000
  S   S97       1.0  0.17674  0.68748  0.64128  1.0000
  C   C624      1.0  0.22460  0.72687  0.64379  1.0000
  H   H494      1.0  0.03890  0.76822  0.95231  1.0000
  C   C625      1.0  0.21828  0.91483  0.71858  1.0000
  C   C626      1.0  0.00878  0.77141  0.92189  1.0000
  C   C627      1.0  0.14943  0.68437  0.58860  1.0000
  H   H495      1.0  0.07199  0.73193  0.56984  1.0000
  C   C628      1.0  0.21872  0.65476  0.78210  1.0000
  H   H496      1.0  0.08534  0.74628  0.91406  1.0000
  C   C629      1.0  0.23010  0.82067  0.73649  1.0000
  C   C630      1.0  0.15631  0.96564  0.77311  1.0000
  C   C631      1.0  0.19654  0.93424  0.70069  1.0000
  H   H497      1.0  0.20176  0.66870  0.75118  1.0000
  H   H498      1.0  0.22072  0.67485  0.53083  1.0000
  S   S98       1.0  0.22275  0.86771  0.72815  1.0000
  H   H499      1.0  0.21193  0.97510  0.73739  1.0000
  C   C632      1.0  0.09026  0.85639  0.88334  1.0000
  S   S99       1.0  0.22710  0.97294  0.79984  1.0000
  C   C633      1.0  0.15964  0.74054  0.57583  1.0000
  H   H500      1.0  0.19123  0.76550  0.58097  1.0000
  H   H501      1.0  0.05841  0.75821  0.90411  1.0000
  C   C634      1.0  0.20222  0.76134  0.56503  1.0000
  H   H502      1.0  0.00397  0.81650  0.84236  1.0000
  C   C635      1.0  0.19990  0.82542  0.96776  1.0000
  C   C636      1.0  0.19273  0.96023  0.62756  1.0000
  C   C637      1.0  0.21756  0.75351  0.81187  1.0000
  C   C638      1.0  0.09644  0.72218  0.56508  1.0000
  H   H503      1.0  0.18297  0.95153  0.94638  1.0000
  C   C639      1.0  0.23414  0.96852  0.97693  1.0000
  C   C640      1.0  0.20134  0.91797  0.89360  1.0000
  H   H504      1.0  0.09833  0.72541  0.53661  1.0000
  C   C641      1.0  0.21367  0.77044  0.55462  1.0000
  H   H505      1.0  0.11471  0.70368  0.63465  1.0000
  C   C642      1.0  0.21009  0.66013  0.57573  1.0000
  C   C643      1.0  0.21052  0.92321  0.91149  1.0000
  C   C644      1.0  0.10942  0.84468  0.93457  1.0000
  H   H506      1.0  0.20619  0.90868  0.87853  1.0000
  C   C645      1.0  0.20767  0.97940  0.68368  1.0000
  C   C646      1.0  0.02717  0.81839  0.84245  1.0000
  C   C647      1.0  0.03911  0.81547  0.86197  1.0000
  C   C648      1.0  0.03669  0.80878  0.89774  1.0000
  C   C649      1.0  0.02225  0.80506  0.91410  1.0000
  H   H507      1.0  0.19616  0.73971  0.56332  1.0000
  C   C650      1.0  0.18560  0.92464  0.89523  1.0000
  C   C651      1.0  0.23166  0.69638  0.78561  1.0000
  H   H508      1.0  0.19497  0.82184  0.91921  1.0000
  H   H509      1.0  0.15743  0.71785  0.51893  1.0000
  C   C652      1.0  0.23297  0.76830  0.76413  1.0000
  C   C653      1.0  0.14642  0.73823  0.60092  1.0000
  H   H510      1.0  0.14328  0.84017  0.90250  1.0000
  C   C654      1.0  0.18811  0.94216  0.93166  1.0000
  C   C655      1.0  0.18506  0.96820  0.65543  1.0000
  C   C656      1.0  0.09041  0.71343  0.63878  1.0000
  C   C657      1.0  0.21395  0.64854  0.72867  1.0000
  C   C658      1.0  0.14059  0.72143  0.56657  1.0000
  H   H511      1.0  0.17071  0.94982  0.74053  1.0000
  C   C659      1.0  0.21065  0.65838  0.75358  1.0000
  H   H512      1.0  0.02927  0.82318  0.81442  1.0000
  H   H513      1.0  0.05032  0.81814  0.84906  1.0000
  H   H514      1.0  0.04615  0.80629  0.91243  1.0000
  H   H515      1.0  0.02057  0.79980  0.94185  1.0000
  C   C660      1.0  0.10908  0.85983  0.91541  1.0000
  H   H516      1.0  0.16687  0.94207  0.91477  1.0000
  H   H517      1.0  0.17849  0.85865  0.92827  1.0000
  C   C661      1.0  0.20164  0.87041  0.94365  1.0000
  P   P21       1.0  0.99191  0.80203  0.91538  1.0000
  P   P22       1.0  0.18716  0.78835  0.76281  1.0000
  C   C662      1.0  0.17762  0.79648  0.80210  1.0000
  C   C663      1.0  0.19168  0.80354  0.72596  1.0000
  C   C664      1.0  0.19673  0.79991  0.69178  1.0000
  C   C665      1.0  0.20106  0.81126  0.66313  1.0000
  C   C666      1.0  0.20049  0.82629  0.66842  1.0000
  C   C667      1.0  0.19521  0.83009  0.70217  1.0000
  C   C668      1.0  0.19069  0.81882  0.73081  1.0000
  C   C669      1.0  0.18603  0.80343  0.81853  1.0000
  C   C670      1.0  0.17879  0.81030  0.84813  1.0000
  C   C671      1.0  0.16320  0.80993  0.86215  1.0000
  C   C672      1.0  0.15488  0.80260  0.84672  1.0000
  C   C673      1.0  0.16203  0.79588  0.81687  1.0000
  C   C674      1.0  0.17531  0.77780  0.74875  1.0000
  C   C675      1.0  0.15650  0.76178  0.72717  1.0000
  C   C676      1.0  0.15145  0.77752  0.72938  1.0000
  C   C677      1.0  0.16093  0.78556  0.73948  1.0000
  H   H518      1.0  0.20287  0.68435  0.87123  1.0000
  H   H519      1.0  0.19750  0.78824  0.68738  1.0000
  H   H520      1.0  0.20502  0.80837  0.63689  1.0000
  H   H521      1.0  0.20420  0.83500  0.64642  1.0000
  H   H522      1.0  0.19484  0.84173  0.70631  1.0000
  H   H523      1.0  0.18657  0.82220  0.75648  1.0000
  H   H524      1.0  0.19811  0.80390  0.80779  1.0000
  H   H525      1.0  0.14273  0.80245  0.85724  1.0000
  H   H526      1.0  0.15518  0.79043  0.80548  1.0000
  H   H527      1.0  0.14915  0.75552  0.71951  1.0000
  H   H528      1.0  0.14010  0.78349  0.72364  1.0000
  H   H529      1.0  0.15687  0.79780  0.74079  1.0000
  C   C678      1.0  0.13660  0.92847  0.71382  1.0000
  C   C679      1.0  0.15239  0.92712  0.71377  1.0000
  C   C680      1.0  0.15796  0.92309  0.74576  1.0000
  C   C681      1.0  0.14781  0.92046  0.77783  1.0000
  C   C682      1.0  0.13193  0.92187  0.77811  1.0000
  C   C683      1.0  0.12641  0.92578  0.74584  1.0000
  P   P23       1.0  0.11864  0.91770  0.81888  1.0000
  C   C684      1.0  0.10931  0.90301  0.81207  1.0000
  C   C685      1.0  0.12887  0.91093  0.85593  1.0000
  C   C686      1.0  0.13046  0.89544  0.87346  1.0000
  C   C687      1.0  0.13828  0.89055  0.90232  1.0000
  C   C688      1.0  0.14453  0.90105  0.91396  1.0000
  C   C689      1.0  0.14295  0.91650  0.89672  1.0000
  C   C690      1.0  0.13513  0.92145  0.86788  1.0000
  C   C691      1.0  0.09307  0.90488  0.81757  1.0000
  C   C692      1.0  0.08617  0.89374  0.81005  1.0000
  C   C693      1.0  0.09541  0.88073  0.79685  1.0000
  C   C694      1.0  0.11155  0.87885  0.79117  1.0000
  C   C695      1.0  0.11847  0.88996  0.79853  1.0000
  C   C696      1.0  0.10482  0.93492  0.82887  1.0000
  C   C697      1.0  0.10439  0.94911  0.80517  1.0000
  C   C698      1.0  0.09379  0.96236  0.81390  1.0000
  C   C699      1.0  0.08366  0.96157  0.84637  1.0000
  C   C700      1.0  0.08416  0.94755  0.87027  1.0000
  C   C701      1.0  0.09474  0.93429  0.86165  1.0000
  H   H530      1.0  0.13228  0.93138  0.68901  1.0000
  H   H531      1.0  0.16034  0.92897  0.68895  1.0000
  H   H532      1.0  0.17022  0.92177  0.74597  1.0000
  H   H533      1.0  0.15255  0.91702  0.80208  1.0000
  H   H534      1.0  0.11423  0.92657  0.74547  1.0000
  H   H535      1.0  0.12596  0.88701  0.86469  1.0000
  H   H536      1.0  0.13987  0.87850  0.91503  1.0000
  H   H537      1.0  0.15089  0.89713  0.93583  1.0000
  H   H538      1.0  0.14797  0.92460  0.90542  1.0000
  H   H539      1.0  0.13415  0.93343  0.85457  1.0000
  H   H540      1.0  0.08568  0.91497  0.82710  1.0000
  H   H541      1.0  0.07364  0.89524  0.81417  1.0000
  H   H542      1.0  0.09011  0.87210  0.79091  1.0000
  H   H543      1.0  0.11874  0.86877  0.78090  1.0000
  H   H544      1.0  0.13102  0.88841  0.79347  1.0000
  H   H545      1.0  0.11225  0.95012  0.78012  1.0000
  C   C702      1.0  0.22554  0.92658  0.72148  1.0000
  H   H546      1.0  0.01914  0.77612  0.91784  1.0000
  H   H547      1.0  0.07637  0.94699  0.89557  1.0000
  H   H548      1.0  0.09510  0.92352  0.88058  1.0000
  H   H549      1.0  0.04363  0.72277  0.87709  1.0000
  C   C703      1.0  0.20498  0.74680  0.55507  1.0000
  H   H550      1.0  0.12692  0.72701  0.61658  1.0000
  H   H551      1.0  0.06675  0.76478  0.76376  1.0000
  H   H552      1.0  0.08799  0.73647  0.85670  1.0000
  H   H553      1.0  0.17117  0.81136  0.94859  1.0000
  C   C704      1.0  0.17808  0.81462  0.96427  1.0000
  C   C705      1.0  0.23294  0.90143  0.95252  1.0000
  C   C706      1.0  0.21826  0.94218  0.71429  1.0000
  H   H554      1.0  0.06543  0.72805  0.89933  1.0000
  C   C707      1.0  0.22565  0.67858  0.84057  1.0000
  S   S100      1.0  0.20424  0.65325  0.69205  1.0000
  H   H555      1.0  0.09903  0.76006  0.64560  1.0000
  C   C708      1.0  0.07837  0.72149  0.62069  1.0000
  C   C709      1.0  0.17146  0.97156  0.59550  1.0000
  H   H556      1.0  0.21198  0.66622  0.59502  1.0000
  C   C710      1.0  0.22061  0.98006  0.92777  1.0000
  C   C711      1.0  0.18490  0.89257  0.96688  1.0000
  C   C712      1.0  0.20835  0.96404  0.97906  1.0000
  C   C713      1.0  0.16190  0.84908  0.91204  1.0000
  H   H557      1.0  0.06094  0.70248  0.75843  1.0000
  C   C714      1.0  0.20400  0.76333  0.80256  1.0000
  C   C715      1.0  0.09204  0.76100  0.67147  1.0000
  C   C716      1.0  0.21515  0.66488  0.53961  1.0000
  C   C717      1.0  0.05394  0.72807  0.82218  1.0000
  C   C718      1.0  0.17891  0.97148  0.72974  1.0000
  C   C719      1.0  0.07837  0.73426  0.84719  1.0000
  C   C720      1.0  0.13692  0.72873  0.59638  1.0000
  H   H558      1.0  0.07778  0.78696  0.72758  1.0000
  H   H559      1.0  0.04445  0.72540  0.81308  1.0000
  H   H560      1.0  0.17854  0.92039  0.88174  1.0000
  C   C721      1.0  0.17108  0.75411  0.73488  1.0000
  H   H561      1.0  0.22383  0.90271  0.72459  1.0000
  C   C722      1.0  0.20523  0.86410  0.97754  1.0000
  C   C723      1.0  0.22022  0.74933  0.69245  1.0000
  C   C724      1.0  0.21849  0.74539  0.65277  1.0000
  C   C725      1.0  0.12535  0.72667  0.49264  1.0000
  H   H562      1.0  0.21072  0.93948  0.94452  1.0000
  C   C726      1.0  0.06660  0.73292  0.79799  1.0000
  C   C727      1.0  0.18424  0.69066  0.53130  1.0000
  H   H563      1.0  0.12808  0.81472  0.92127  1.0000
  H   H564      1.0  0.09953  0.87724  0.87476  1.0000
  C   C728      1.0  0.20796  0.97324  0.94550  1.0000
  C   C729      1.0  0.01023  0.80772  0.89447  1.0000
  H   H565      1.0  0.15665  0.69267  0.58720  1.0000
  C   C730      1.0  0.21689  0.70563  0.79305  1.0000
  C   C731      1.0  0.09894  0.78019  0.96350  1.0000
  C   C732      1.0  0.19144  0.82052  0.94772  1.0000
  C   C733      1.0  0.06570  0.72950  0.87112  1.0000
  H   H566      1.0  0.19173  0.75579  0.75111  1.0000
  C   C734      1.0  0.19141  0.88460  0.93858  1.0000
  H   H567      1.0  0.23070  0.69072  0.56249  1.0000
  C   C735      1.0  0.08936  0.77484  0.68456  1.0000
  C   C736      1.0  0.18048  0.76206  0.74560  1.0000
  H   H568      1.0  0.18198  0.68535  0.55881  1.0000
  C   C737      1.0  0.05348  0.72644  0.85861  1.0000
  C   C738      1.0  0.08571  0.74838  0.69177  1.0000
  C   C739      1.0  0.07700  0.74938  0.72576  1.0000
  H   H569      1.0  0.08768  0.73786  0.68097  1.0000
  H   H570      1.0  0.19333  0.97632  0.81742  1.0000
  C   C740      1.0  0.07887  0.73590  0.81079  1.0000
  H   H571      1.0  0.17396  0.73467  0.52728  1.0000
  P   P24       1.0  0.06812  0.73342  0.75124  1.0000
  H   H572      1.0  0.19511  0.70839  0.82901  1.0000
  C   C741      1.0  0.21944  0.77809  0.75464  1.0000
  C   C742      1.0  0.04928  0.73662  0.73890  1.0000
  H   H573      1.0  0.10176  0.72294  0.73371  1.0000
  H   H574      1.0  0.05613  0.72084  0.70122  1.0000
  C   C743      1.0  0.23015  0.84838  0.72128  1.0000
  C   C744      1.0  0.20484  0.77565  0.77376  1.0000
  C   C745      1.0  0.16391  0.97978  0.62280  1.0000
  C   C746      1.0  0.03711  0.74759  0.75323  1.0000
  C   C747      1.0  0.03206  0.73144  0.70465  1.0000
  C   C748      1.0  0.04678  0.72886  0.71376  1.0000
  H   H575      1.0  0.03893  0.75416  0.77157  1.0000
  H   H576      1.0  0.03005  0.72527  0.68571  1.0000
  H   H577      1.0  0.08896  0.73923  0.79274  1.0000
  C   C749      1.0  0.16348  0.73321  0.54630  1.0000
  H   H578      1.0  0.19178  0.95552  0.57658  1.0000
  C   C750      1.0  0.02241  0.75012  0.74416  1.0000
  C   C751      1.0  0.01985  0.74197  0.72009  1.0000
  H   H579      1.0  0.01296  0.75835  0.75602  1.0000
  C   C752      1.0  0.08005  0.71486  0.74418  1.0000
  C   C753      1.0  0.09626  0.71317  0.73608  1.0000
  C   C754      1.0  0.01022  0.75529  0.92658  1.0000
  C   C755      1.0  0.07335  0.70165  0.74998  1.0000
  H   H580      1.0  0.19283  0.76130  0.81766  1.0000
  H   H581      1.0  0.22054  0.78759  0.73259  1.0000
  C   C756      1.0  0.20382  0.91866  0.70805  1.0000
  H   H582      1.0  0.09923  0.82414  0.94414  1.0000
  H   H583      1.0  0.19828  0.90948  0.70576  1.0000
  C   C757      1.0  0.20380  0.93538  0.93047  1.0000
  P   P25       1.0  0.12118  0.83763  0.96865  1.0000
  Fe  Fe48      1.0  0.19433  0.67877  0.67766  1.0000
  C   C758      1.0  0.10558  0.69872  0.73178  1.0000
  H   H584      1.0  0.11811  0.69759  0.72558  1.0000
  C   C759      1.0  0.12948  0.71178  0.51226  1.0000
  H   H585      1.0  0.14372  0.74349  0.62448  1.0000
  H   H586      1.0  0.23377  0.78284  0.64739  1.0000
  H   H587      1.0  0.22973  0.88271  0.90496  1.0000
  C   C760      1.0  0.08269  0.68718  0.74564  1.0000
  H   H588      1.0  0.08302  0.83428  0.89797  1.0000
  H   H589      1.0  0.07747  0.67703  0.75017  1.0000
  H   H590      1.0  0.08300  0.86077  0.86326  1.0000
  H   H591      1.0  0.10609  0.67451  0.73346  1.0000
  C   C761      1.0  0.03985  0.81428  0.98491  1.0000
  C   C762      1.0  0.09029  0.84143  0.90285  1.0000
  H   H592      1.0  0.22531  0.81108  0.75336  1.0000
  C   C763      1.0  0.99418  0.78117  0.92109  1.0000
  H   H593      1.0  0.09346  0.97329  0.79554  1.0000
  C   C764      1.0  0.08781  0.79389  0.96298  1.0000
  C   C765      1.0  0.22404  0.83589  0.74304  1.0000
  H   H594      1.0  0.14508  0.65657  0.52583  1.0000
  C   C766      1.0  0.09967  0.83564  0.92875  1.0000
  C   C767      1.0  0.09954  0.86565  0.88984  1.0000
  H   H595      1.0  0.21131  0.78175  0.56227  1.0000
  C   C768      1.0  0.13599  0.69926  0.49417  1.0000
  H   H596      1.0  0.11446  0.68188  0.57209  1.0000
  C   C769      1.0  0.17901  0.93680  0.91399  1.0000
  H   H597      1.0  0.21583  0.66230  0.80147  1.0000
  C   C770      1.0  0.23062  0.75040  0.52421  1.0000
  H   H598      1.0  0.13738  0.78638  0.93091  1.0000
  H   H599      1.0  0.16616  0.97280  0.57246  1.0000
  H   H600      1.0  0.11622  0.86712  0.92009  1.0000
  H   H601      1.0  0.17719  0.90370  0.96248  1.0000
  C   C771      1.0  0.22879  0.73467  0.72306  1.0000
  H   H602      1.0  0.21682  0.74394  0.83388  1.0000
  C   C772      1.0  0.13503  0.68924  0.57742  1.0000
  C   C773      1.0  0.12567  0.67831  0.58045  1.0000
  C   C774      1.0  0.21098  0.68785  0.84772  1.0000
  H   H603      1.0  0.02152  0.74784  0.92672  1.0000
  P   P26       1.0  0.12830  0.70936  0.55967  1.0000
  H   H604      1.0  0.23282  0.94060  0.79411  1.0000
  H   H605      1.0  0.17231  0.67628  0.51358  1.0000
  C   C775      1.0  0.23542  0.71618  0.71378  1.0000
  C   C776      1.0  0.13022  0.80872  0.94732  1.0000
  H   H606      1.0  0.06668  0.72433  0.63510  1.0000
  H   H607      1.0  0.22991  0.73711  0.74798  1.0000
  H   H608      1.0  0.16707  0.74774  0.57974  1.0000
  C   C777      1.0  0.20233  0.64766  0.58703  1.0000
  C   C778      1.0  0.18589  0.96183  0.59784  1.0000
  C   C779      1.0  0.15425  0.65257  0.50519  1.0000
  C   C780      1.0  0.23363  0.97783  0.94359  1.0000
  C   C781      1.0  0.13577  0.79268  0.95249  1.0000
  C   C782      1.0  0.14505  0.85017  0.98026  1.0000
  C   C783      1.0  0.17900  0.68538  0.50557  1.0000
  H   H609      1.0  0.18538  0.93696  0.69235  1.0000
  C   C784      1.0  0.08054  0.74905  0.96865  1.0000
  H   H610      1.0  0.22663  0.94660  0.87265  1.0000
  H   H611      1.0  0.09229  0.74397  0.97292  1.0000
  H   H612      1.0  0.98696  0.79528  0.84945  1.0000
  C   C785      1.0  0.22156  0.90290  0.98295  1.0000
  H   H613      1.0  0.21327  0.85319  0.98163  1.0000
  H   H614      1.0  0.23530  0.69574  0.49701  1.0000
  H   H615      1.0  0.20398  0.95274  0.62885  1.0000
  C   C786      1.0  0.15919  0.85528  0.97025  1.0000
  H   H616      1.0  0.12101  0.73662  0.50588  1.0000
  C   C787      1.0  0.13067  0.66270  0.59450  1.0000
  H   H617      1.0  0.07546  0.97186  0.85310  1.0000
  C   C788      1.0  0.13875  0.78469  0.98576  1.0000
  H   H618      1.0  0.14015  0.68781  0.50812  1.0000
  H   H619      1.0  0.21119  0.91178  0.98250  1.0000
  C   C789      1.0  0.12727  0.81681  0.97570  1.0000
  P   P27       1.0  0.23072  0.91439  0.91087  1.0000
  H   H620      1.0  0.12333  0.65433  0.59713  1.0000
  H   H621      1.0  0.05369  0.79241  0.97438  1.0000
  H   H622      1.0  0.99803  0.82721  0.94414  1.0000
  H   H623      1.0  0.99829  0.73641  0.93205  1.0000
  C   C790      1.0  0.99716  0.74883  0.92970  1.0000
  H   H624      1.0  0.22880  0.66777  0.85821  1.0000
  C   C791      1.0  0.15380  0.98025  0.78262  1.0000
  H   H625      1.0  0.14245  0.77218  0.99018  1.0000
  C   C792      1.0  0.04346  0.79805  0.99031  1.0000
  H   H626      1.0  0.16379  0.85950  0.98895  1.0000
  C   C793      1.0  0.36047  0.15173  0.02903  1.0000
  C   C794      1.0  0.31916  0.07270  0.19745  1.0000
  Fe  Fe49      1.0  0.28567  0.09405  0.26205  1.0000
  S   S101      1.0  0.27166  0.10776  0.30385  1.0000
  S   S102      1.0  0.27605  0.08375  0.22404  1.0000
  Fe  Fe50      1.0  0.31575  0.10411  0.26727  1.0000
  S   S103      1.0  0.30375  0.11849  0.30887  1.0000
  S   S104      1.0  0.34193  0.10014  0.25056  1.0000
  Fe  Fe51      1.0  0.29147  0.09880  0.33437  1.0000
  S   S105      1.0  0.28447  0.09363  0.39481  1.0000
  Fe  Fe52      1.0  0.28515  0.12634  0.27575  1.0000
  S   S106      1.0  0.27420  0.15162  0.26729  1.0000
  S   S107      1.0  0.30471  0.08344  0.29464  1.0000
  S   S108      1.0  0.29800  0.11357  0.23197  1.0000
  Fe  Fe53      1.0  0.39090  0.16510  0.14360  1.0000
  S   S109      1.0  0.36970  0.17851  0.12223  1.0000
  S   S110      1.0  0.39288  0.13908  0.16092  1.0000
  Fe  Fe54      1.0  0.40399  0.19454  0.14106  1.0000
  S   S111      1.0  0.38345  0.20964  0.11879  1.0000
  S   S112      1.0  0.42132  0.20771  0.15146  1.0000
  Fe  Fe55      1.0  0.36968  0.19419  0.15957  1.0000
  S   S113      1.0  0.34962  0.20209  0.20030  1.0000
  Fe  Fe56      1.0  0.38599  0.19226  0.08282  1.0000
  S   S114      1.0  0.38264  0.20192  0.02489  1.0000
  S   S115      1.0  0.38984  0.17999  0.18348  1.0000
  S   S116      1.0  0.40762  0.17792  0.10229  1.0000
  Fe  Fe57      1.0  0.25470  0.28846  0.15683  1.0000
  S   S117      1.0  0.26258  0.26309  0.15718  1.0000
  H   H627      1.0  0.26259  0.18147  0.22739  1.0000
  Fe  Fe58      1.0  0.27161  0.28844  0.21771  1.0000
  S   S118      1.0  0.28053  0.26279  0.22080  1.0000
  Fe  Fe59      1.0  0.28539  0.26767  0.16162  1.0000
  S   S119      1.0  0.30603  0.25807  0.12371  1.0000
  Fe  Fe60      1.0  0.25677  0.26041  0.21651  1.0000
  H   H628      1.0  0.47777  0.25951  0.37902  1.0000
  S   S120      1.0  0.27807  0.29336  0.15816  1.0000
  C   C795      1.0  0.31308  0.09653  0.47723  1.0000
  S   S121      1.0  0.42294  0.26636  0.32874  1.0000
  S   S122      1.0  0.43294  0.30198  0.25547  1.0000
  H   H629      1.0  0.26749  0.06818  0.33606  1.0000
  Fe  Fe61      1.0  0.46822  0.25729  0.31531  1.0000
  C   C796      1.0  0.32050  0.09385  0.44310  1.0000
  H   H630      1.0  0.27583  0.09894  0.46678  1.0000
  H   H631      1.0  0.46757  0.28983  0.44395  1.0000
  C   C797      1.0  0.44993  0.21089  0.44595  1.0000
  C   C798      1.0  0.28942  0.29086  0.04171  1.0000
  H   H632      1.0  0.33055  0.27915  0.28031  1.0000
  H   H633      1.0  0.35849  0.31261  0.38655  1.0000
  C   C799      1.0  0.31958  0.13019  0.01618  1.0000
  C   C800      1.0  0.33741  0.01323  0.25763  1.0000
  C   C801      1.0  0.25527  0.18181  0.36458  1.0000
  C   C802      1.0  0.31886  0.00534  0.30936  1.0000
  H   H634      1.0  0.24620  0.20648  0.23950  1.0000
  C   C803      1.0  0.24631  0.20224  0.39981  1.0000
  C   C804      1.0  0.42229  0.21365  0.19156  1.0000
  C   C805      1.0  0.43130  0.22478  0.19034  1.0000
  C   C806      1.0  0.43260  0.22953  0.22155  1.0000
  C   C807      1.0  0.42508  0.22304  0.25464  1.0000
  C   C808      1.0  0.41470  0.20726  0.22460  1.0000
  H   H635      1.0  0.43735  0.22974  0.16504  1.0000
  H   H636      1.0  0.43959  0.23807  0.22000  1.0000
  C   C809      1.0  0.39956  0.30227  0.41140  1.0000
  H   H637      1.0  0.31352  0.08111  0.17766  1.0000
  H   H638      1.0  0.32984  0.12335  0.02613  1.0000
  H   H639      1.0  0.39305  0.16943  0.01479  1.0000
  C   C810      1.0  0.34495  0.13956  0.09514  1.0000
  C   C811      1.0  0.33731  0.21723  0.17883  1.0000
  C   C812      1.0  0.32592  0.22674  0.19881  1.0000
  C   C813      1.0  0.31651  0.23948  0.18178  1.0000
  C   C814      1.0  0.31818  0.24247  0.14491  1.0000
  C   C815      1.0  0.32953  0.23285  0.12488  1.0000
  C   C816      1.0  0.33916  0.22020  0.14186  1.0000
  H   H640      1.0  0.32464  0.22450  0.22737  1.0000
  H   H641      1.0  0.30827  0.24714  0.19723  1.0000
  H   H642      1.0  0.33087  0.23516  0.09634  1.0000
  H   H643      1.0  0.34798  0.21277  0.12635  1.0000
  C   C817      1.0  0.29573  0.09515  0.42568  1.0000
  C   C818      1.0  0.31189  0.09334  0.41736  1.0000
  C   C819      1.0  0.30211  0.19385  0.30926  1.0000
  H   H644      1.0  0.31779  0.09122  0.39132  1.0000
  C   C820      1.0  0.28505  0.14610  0.36327  1.0000
  H   H645      1.0  0.27879  0.02569  0.29445  1.0000
  H   H646      1.0  0.46272  0.24133  0.42123  1.0000
  C   C821      1.0  0.30472  0.28601  0.02527  1.0000
  H   H647      1.0  0.27421  0.30504  0.07770  1.0000
  H   H648      1.0  0.34066  0.02141  0.23403  1.0000
  H   H649      1.0  0.33301  0.09213  0.43653  1.0000
  H   H650      1.0  0.24902  0.17333  0.29947  1.0000
  C   C822      1.0  0.33451  0.25678  0.02292  1.0000
  C   C823      1.0  0.33532  0.30316  0.34675  1.0000
  C   C824      1.0  0.25138  0.18519  0.21912  1.0000
  C   C825      1.0  0.37784  0.12953  0.18671  1.0000
  C   C826      1.0  0.36197  0.13612  0.18885  1.0000
  C   C827      1.0  0.35058  0.12743  0.20843  1.0000
  C   C828      1.0  0.35511  0.11223  0.22619  1.0000
  C   C829      1.0  0.37094  0.10586  0.22403  1.0000
  C   C830      1.0  0.38216  0.11437  0.20438  1.0000
  H   H651      1.0  0.35856  0.14765  0.17445  1.0000
  H   H652      1.0  0.33839  0.13230  0.20921  1.0000
  H   H653      1.0  0.37461  0.09413  0.23737  1.0000
  H   H654      1.0  0.39433  0.10910  0.20271  1.0000
  C   C831      1.0  0.31922  0.14575  0.99966  1.0000
  H   H655      1.0  0.30761  0.00745  0.32617  1.0000
  C   C832      1.0  0.25397  0.06489  0.25411  1.0000
  C   C833      1.0  0.26334  0.07113  0.22351  1.0000
  H   H656      1.0  0.26725  0.26531  0.36225  1.0000
  C   C834      1.0  0.31852  0.18345  0.00136  1.0000
  H   H657      1.0  0.25409  0.06787  0.27928  1.0000
  H   H658      1.0  0.40830  0.29187  0.18879  1.0000
  C   C835      1.0  0.36019  0.14167  0.09146  1.0000
  C   C836      1.0  0.29106  0.13607  0.39161  1.0000
  H   H659      1.0  0.45217  0.28199  0.40827  1.0000
  C   C837      1.0  0.28520  0.17483  0.41510  1.0000
  C   C838      1.0  0.24827  0.14041  0.27088  1.0000
  C   C839      1.0  0.33871  0.13590  0.47301  1.0000
  C   C840      1.0  0.28830  0.09766  0.45994  1.0000
  H   H660      1.0  0.34966  0.20983  0.01821  1.0000
  H   H661      1.0  0.31819  0.03209  0.33889  1.0000
  C   C841      1.0  0.33284  0.05180  0.25099  1.0000
  H   H662      1.0  0.31114  0.03104  0.19605  1.0000
  C   C842      1.0  0.28195  0.22328  0.17046  1.0000
  C   C843      1.0  0.23664  0.24580  0.07933  1.0000
  C   C844      1.0  0.33289  0.07477  0.20545  1.0000
  H   H663      1.0  0.35008  0.06630  0.23910  1.0000
  C   C845      1.0  0.32305  0.01650  0.27992  1.0000
  S   S123      1.0  0.24071  0.30138  0.11391  1.0000
  C   C846      1.0  0.31233  0.06014  0.21600  1.0000
  H   H664      1.0  0.32122  0.18903  0.42626  1.0000
  C   C847      1.0  0.28393  0.19929  0.25678  1.0000
  C   C848      1.0  0.30008  0.19659  0.24773  1.0000
  H   H665      1.0  0.27688  0.20168  0.23639  1.0000
  H   H666      1.0  0.30566  0.19685  0.22040  1.0000
  Fe  Fe62      1.0  0.43986  0.28028  0.29384  1.0000
  P   P28       1.0  0.30954  0.03430  0.26944  1.0000
  C   C849      1.0  0.29480  0.31218  0.29274  1.0000
  H   H667      1.0  0.26431  0.20235  0.29826  1.0000
  H   H668      1.0  0.25317  0.16455  0.19803  1.0000
  C   C850      1.0  0.28607  0.30148  0.06486  1.0000
  H   H669      1.0  0.27523  0.17055  0.41265  1.0000
  C   C851      1.0  0.24610  0.17574  0.20221  1.0000
  H   H670      1.0  0.26747  0.01848  0.19940  1.0000
  C   C852      1.0  0.34819  0.15462  0.40883  1.0000
  C   C853      1.0  0.34037  0.14270  0.40899  1.0000
  P   P29       1.0  0.35269  0.29963  0.24277  1.0000
  P   P30       1.0  0.33737  0.13837  0.36812  1.0000
  C   C854      1.0  0.31674  0.14199  0.36676  1.0000
  C   C855      1.0  0.34700  0.14974  0.32924  1.0000
  C   C856      1.0  0.34297  0.16605  0.32348  1.0000
  C   C857      1.0  0.34957  0.17484  0.29238  1.0000
  C   C858      1.0  0.36015  0.16744  0.26677  1.0000
  C   C859      1.0  0.36433  0.15128  0.27224  1.0000
  C   C860      1.0  0.35782  0.14244  0.30332  1.0000
  C   C861      1.0  0.31054  0.15202  0.33819  1.0000
  C   C862      1.0  0.29477  0.15417  0.33673  1.0000
  C   C863      1.0  0.30679  0.13402  0.39335  1.0000
  C   C864      1.0  0.34521  0.11801  0.36722  1.0000
  C   C865      1.0  0.35661  0.10975  0.38740  1.0000
  C   C866      1.0  0.36277  0.09408  0.38584  1.0000
  C   C867      1.0  0.35782  0.08664  0.36371  1.0000
  C   C868      1.0  0.34679  0.09489  0.34292  1.0000
  C   C869      1.0  0.34057  0.11052  0.34456  1.0000
  H   H671      1.0  0.28365  0.12945  0.41173  1.0000
  C   C870      1.0  0.34767  0.99920  0.26549  1.0000
  H   H672      1.0  0.35259  0.16162  0.38441  1.0000
  H   H673      1.0  0.33449  0.17191  0.34275  1.0000
  H   H674      1.0  0.34653  0.18741  0.28776  1.0000
  H   H675      1.0  0.36513  0.17427  0.24260  1.0000
  H   H676      1.0  0.37254  0.14559  0.25211  1.0000
  H   H677      1.0  0.36118  0.12992  0.30648  1.0000
  H   H678      1.0  0.31776  0.15785  0.31622  1.0000
  H   H679      1.0  0.29019  0.16163  0.31420  1.0000
  H   H680      1.0  0.30941  0.19189  0.32890  1.0000
  H   H681      1.0  0.36263  0.07453  0.36237  1.0000
  H   H682      1.0  0.34313  0.08922  0.32526  1.0000
  H   H683      1.0  0.33242  0.11685  0.32752  1.0000
  H   H684      1.0  0.31114  0.12579  0.41496  1.0000
  C   C871      1.0  0.34479  0.18965  0.05610  1.0000
  H   H685      1.0  0.36609  0.13856  0.11411  1.0000
  H   H686      1.0  0.41040  0.20656  0.28114  1.0000
  C   C872      1.0  0.30011  0.02859  0.21105  1.0000
  C   C873      1.0  0.28198  0.02558  0.26632  1.0000
  C   C874      1.0  0.37288  0.29039  0.24134  1.0000
  C   C875      1.0  0.30686  0.03946  0.33844  1.0000
  H   H687      1.0  0.37964  0.14967  0.05584  1.0000
  H   H688      1.0  0.33899  0.13490  0.12094  1.0000
  H   H689      1.0  0.35714  0.16638  0.44028  1.0000
  C   C876      1.0  0.36788  0.14788  0.05849  1.0000
  H   H690      1.0  0.38043  0.30295  0.18914  1.0000
  H   H691      1.0  0.31791  0.29196  0.38297  1.0000
  H   H692      1.0  0.41124  0.29935  0.41727  1.0000
  H   H693      1.0  0.30724  0.11119  0.03180  1.0000
  C   C877      1.0  0.30745  0.17122  0.44351  1.0000
  H   H694      1.0  0.26853  0.22796  0.30950  1.0000
  H   H695      1.0  0.28458  0.23229  0.18146  1.0000
  S   S124      1.0  0.42649  0.22828  0.29525  1.0000
  C   C878      1.0  0.38451  0.18537  0.28112  1.0000
  C   C879      1.0  0.38271  0.17872  0.31697  1.0000
  C   C880      1.0  0.37427  0.18763  0.34236  1.0000
  C   C881      1.0  0.36785  0.20327  0.33188  1.0000
  C   C882      1.0  0.36975  0.21008  0.29586  1.0000
  C   C883      1.0  0.37781  0.20090  0.27047  1.0000
  P   P31       1.0  0.36288  0.23068  0.28310  1.0000
  C   C884      1.0  0.34215  0.23521  0.28378  1.0000
  C   C885      1.0  0.36784  0.23986  0.31476  1.0000
  C   C886      1.0  0.35672  0.25067  0.33240  1.0000
  C   C887      1.0  0.36063  0.25728  0.35772  1.0000
  C   C888      1.0  0.37562  0.25306  0.36572  1.0000
  C   C889      1.0  0.38667  0.24214  0.34865  1.0000
  C   C890      1.0  0.38277  0.23549  0.32350  1.0000
  C   C891      1.0  0.33554  0.24918  0.26389  1.0000
  C   C892      1.0  0.31950  0.25312  0.26488  1.0000
  C   C893      1.0  0.30992  0.24316  0.28573  1.0000
  C   C894      1.0  0.31636  0.22925  0.30566  1.0000
  C   C895      1.0  0.33243  0.22523  0.30466  1.0000
  C   C896      1.0  0.37253  0.23714  0.23868  1.0000
  C   C897      1.0  0.36677  0.23535  0.20956  1.0000
  C   C898      1.0  0.37452  0.23942  0.17509  1.0000
  C   C899      1.0  0.38810  0.24533  0.16930  1.0000
  C   C900      1.0  0.39379  0.24741  0.19803  1.0000
  C   C901      1.0  0.38611  0.24326  0.23259  1.0000
  H   H696      1.0  0.39116  0.17849  0.26144  1.0000
  H   H697      1.0  0.38795  0.16668  0.32496  1.0000
  H   H698      1.0  0.37308  0.18253  0.37018  1.0000
  H   H699      1.0  0.36178  0.21017  0.35193  1.0000
  H   H700      1.0  0.37938  0.20573  0.24247  1.0000
  H   H701      1.0  0.34506  0.25404  0.32671  1.0000
  H   H702      1.0  0.35206  0.26577  0.37093  1.0000
  H   H703      1.0  0.39837  0.23888  0.35449  1.0000
  H   H704      1.0  0.39152  0.22699  0.31068  1.0000
  H   H705      1.0  0.34279  0.25706  0.24758  1.0000
  H   H706      1.0  0.31443  0.26389  0.24942  1.0000
  H   H707      1.0  0.29751  0.24625  0.28620  1.0000
  H   H708      1.0  0.30882  0.22165  0.32173  1.0000
  H   H709      1.0  0.33720  0.21438  0.32010  1.0000
  H   H710      1.0  0.35650  0.23040  0.21349  1.0000
  H   H711      1.0  0.37016  0.23762  0.15291  1.0000
  H   H712      1.0  0.39445  0.24792  0.14265  1.0000
  H   H713      1.0  0.40450  0.25169  0.19362  1.0000
  H   H714      1.0  0.39118  0.24445  0.25415  1.0000
  H   H715      1.0  0.35878  0.99676  0.24830  1.0000
  C   C902      1.0  0.27828  0.05985  0.33711  1.0000
  C   C903      1.0  0.32773  0.29586  0.21562  1.0000
  C   C904      1.0  0.27513  0.19970  0.14346  1.0000
  C   C905      1.0  0.29057  0.19974  0.14504  1.0000
  C   C906      1.0  0.29391  0.21172  0.15823  1.0000
  P   P32       1.0  0.30623  0.18451  0.13154  1.0000
  C   C907      1.0  0.31454  0.17550  0.17072  1.0000
  C   C908      1.0  0.29951  0.17048  0.11461  1.0000
  C   C909      1.0  0.30233  0.15458  0.12922  1.0000
  C   C910      1.0  0.29680  0.14400  0.11604  1.0000
  C   C911      1.0  0.28880  0.14911  0.08758  1.0000
  C   C912      1.0  0.28633  0.16482  0.07223  1.0000
  C   C913      1.0  0.29169  0.17546  0.08562  1.0000
  C   C914      1.0  0.32936  0.17716  0.17329  1.0000
  C   C915      1.0  0.33579  0.16981  0.20340  1.0000
  C   C916      1.0  0.32740  0.16107  0.23151  1.0000
  C   C917      1.0  0.31242  0.15980  0.22974  1.0000
  C   C918      1.0  0.30589  0.16716  0.19970  1.0000
  C   C919      1.0  0.31994  0.19276  0.09574  1.0000
  C   C920      1.0  0.31644  0.20828  0.07868  1.0000
  C   C921      1.0  0.32712  0.21441  0.05084  1.0000
  C   C922      1.0  0.34131  0.20510  0.03964  1.0000
  C   C923      1.0  0.33413  0.18345  0.08392  1.0000
  S   S125      1.0  0.24972  0.23834  0.25103  1.0000
  H   H716      1.0  0.28045  0.05581  0.28418  1.0000
  H   H717      1.0  0.46789  0.19259  0.46471  1.0000
  H   H718      1.0  0.27208  0.19041  0.13457  1.0000
  H   H719      1.0  0.30577  0.21204  0.15947  1.0000
  H   H720      1.0  0.30890  0.15016  0.15054  1.0000
  H   H721      1.0  0.29885  0.13178  0.12784  1.0000
  H   H722      1.0  0.28462  0.14085  0.07731  1.0000
  H   H723      1.0  0.28031  0.16873  0.04983  1.0000
  H   H724      1.0  0.28979  0.18761  0.07338  1.0000
  H   H725      1.0  0.33600  0.18422  0.15241  1.0000
  H   H726      1.0  0.34744  0.17075  0.20463  1.0000
  H   H727      1.0  0.33260  0.15512  0.25442  1.0000
  H   H728      1.0  0.30594  0.15301  0.25161  1.0000
  H   H729      1.0  0.29418  0.16616  0.19898  1.0000
  H   H730      1.0  0.30558  0.21580  0.08675  1.0000
  H   H731      1.0  0.32445  0.22641  0.03801  1.0000
  H   H732      1.0  0.33711  0.17152  0.09674  1.0000
  C   C924      1.0  0.34573  0.27563  0.17104  1.0000
  C   C925      1.0  0.32966  0.27957  0.17252  1.0000
  C   C926      1.0  0.24444  0.16396  0.29484  1.0000
  H   H733      1.0  0.26069  0.01898  0.26353  1.0000
  C   C927      1.0  0.34388  0.29202  0.21434  1.0000
  C   C928      1.0  0.35284  0.28181  0.19182  1.0000
  H   H734      1.0  0.24591  0.23755  0.06733  1.0000
  C   C929      1.0  0.34227  0.29646  0.28782  1.0000
  H   H735      1.0  0.40500  0.30435  0.31160  1.0000
  C   C930      1.0  0.37782  0.27966  0.27028  1.0000
  C   C931      1.0  0.39359  0.27332  0.26966  1.0000
  C   C932      1.0  0.40455  0.27770  0.24030  1.0000
  C   C933      1.0  0.24438  0.29849  0.06911  1.0000
  C   C934      1.0  0.32914  0.99132  0.31713  1.0000
  C   C935      1.0  0.27277  0.24228  0.39260  1.0000
  H   H736      1.0  0.45378  0.20962  0.41840  1.0000
  C   C936      1.0  0.32499  0.29287  0.35680  1.0000
  H   H737      1.0  0.25572  0.13169  0.25651  1.0000
  H   H738      1.0  0.32561  0.14212  0.06917  1.0000
  C   C937      1.0  0.27563  0.02122  0.21280  1.0000
  C   C938      1.0  0.25785  0.19479  0.37538  1.0000
  C   C939      1.0  0.26662  0.22309  0.16906  1.0000
  H   H739      1.0  0.33796  0.04418  0.27257  1.0000
  C   C940      1.0  0.29604  0.02958  0.24720  1.0000
  C   C941      1.0  0.31321  0.30311  0.05439  1.0000
  H   H740      1.0  0.35265  0.26773  0.15381  1.0000
  H   H741      1.0  0.32415  0.27472  0.15653  1.0000
  H   H742      1.0  0.30438  0.20606  0.00645  1.0000
  H   H743      1.0  0.24596  0.10621  0.22410  1.0000
  H   H744      1.0  0.36527  0.27839  0.19048  1.0000
  H   H745      1.0  0.36958  0.27638  0.29351  1.0000
  H   H746      1.0  0.39741  0.26508  0.29202  1.0000
  H   H747      1.0  0.41681  0.27304  0.24025  1.0000
  H   H748      1.0  0.25349  0.27387  0.07791  1.0000
  H   H749      1.0  0.37604  0.28781  0.37478  1.0000
  C   C942      1.0  0.28212  0.24178  0.04964  1.0000
  H   H750      1.0  0.30529  0.04477  0.39032  1.0000
  H   H751      1.0  0.33615  0.31020  0.36520  1.0000
  C   C943      1.0  0.29962  0.04667  0.36760  1.0000
  H   H752      1.0  0.39776  0.30222  0.48682  1.0000
  H   H753      1.0  0.29164  0.15532  0.45544  1.0000
  H   H754      1.0  0.23825  0.21286  0.29893  1.0000
  C   C944      1.0  0.33214  0.28585  0.29850  1.0000
  C   C945      1.0  0.29378  0.13162  0.00493  1.0000
  H   H755      1.0  0.24900  0.98316  0.11066  1.0000
  H   H756      1.0  0.25846  0.12272  0.39069  1.0000
  H   H757      1.0  0.32050  0.30338  0.23336  1.0000
  H   H758      1.0  0.33800  0.08473  0.19178  1.0000
  C   C946      1.0  0.41612  0.21187  0.25584  1.0000
  C   C947      1.0  0.27178  0.02154  0.24906  1.0000
  S   S126      1.0  0.45309  0.24111  0.35083  1.0000
  C   C948      1.0  0.26326  0.21160  0.15458  1.0000
  H   H759      1.0  0.40811  0.19845  0.22601  1.0000
  H   H760      1.0  0.29500  0.25687  0.06141  1.0000
  C   C949      1.0  0.34536  0.14928  0.03216  1.0000
  C   C950      1.0  0.27683  0.19954  0.29203  1.0000
  C   C951      1.0  0.30916  0.19370  0.27392  1.0000
  H   H761      1.0  0.32168  0.19170  0.26637  1.0000
  H   H762      1.0  0.27993  0.06271  0.38918  1.0000
  C   C952      1.0  0.33748  0.14353  0.06567  1.0000
  Fe  Fe63      1.0  0.43888  0.24598  0.30707  1.0000
  C   C953      1.0  0.28584  0.19710  0.31854  1.0000
  H   H763      1.0  0.36085  0.11530  0.40426  1.0000
  C   C954      1.0  0.28556  0.05275  0.30788  1.0000
  C   C955      1.0  0.26772  0.24759  0.33267  1.0000
  H   H764      1.0  0.26985  0.07200  0.16707  1.0000
  S   S127      1.0  0.45528  0.26020  0.27006  1.0000
  H   H765      1.0  0.37873  0.25821  0.38511  1.0000
  Fe  Fe64      1.0  0.43847  0.26278  0.36896  1.0000
  S   S128      1.0  0.42859  0.26285  0.42744  1.0000
  H   H766      1.0  0.37141  0.08772  0.40178  1.0000
  C   C956      1.0  0.29972  0.04227  0.30857  1.0000
  S   S129      1.0  0.45409  0.27866  0.33556  1.0000
  H   H767      1.0  0.27299  0.14724  0.36124  1.0000
  C   C957      1.0  0.45046  0.27813  0.43657  1.0000
  H   H768      1.0  0.36651  0.15654  0.00363  1.0000
  H   H769      1.0  0.27052  0.22773  0.02984  1.0000
  C   C958      1.0  0.26918  0.25291  0.36245  1.0000
  C   C959      1.0  0.45928  0.28250  0.45694  1.0000
  C   C960      1.0  0.28531  0.05681  0.36698  1.0000
  H   H770      1.0  0.31527  0.27635  0.34024  1.0000
  H   H771      1.0  0.27738  0.21829  0.41683  1.0000
  H   H772      1.0  0.25280  0.05425  0.16385  1.0000
  H   H773      1.0  0.35594  0.18259  0.04758  1.0000
  C   C961      1.0  0.33973  0.06431  0.23218  1.0000
  C   C962      1.0  0.43949  0.26884  0.45280  1.0000
  C   C963      1.0  0.33578  0.13330  0.44148  1.0000
  H   H774      1.0  0.30486  0.20463  0.38305  1.0000
  P   P33       1.0  0.27669  0.20021  0.36288  1.0000
  C   C964      1.0  0.34622  0.14794  0.47265  1.0000
  C   C965      1.0  0.27507  0.22630  0.39286  1.0000
  C   C966      1.0  0.31919  0.04950  0.24268  1.0000
  H   H775      1.0  0.29279  0.02431  0.16574  1.0000
  H   H776      1.0  0.33061  0.12342  0.44263  1.0000
  C   C967      1.0  0.28891  0.31213  0.26227  1.0000
  C   C968      1.0  0.30188  0.19388  0.39858  1.0000
  H   H777      1.0  0.25135  0.21157  0.15343  1.0000
  C   C969      1.0  0.28876  0.18886  0.39448  1.0000
  H   H778      1.0  0.30141  0.05909  0.21022  1.0000
  C   C970      1.0  0.27399  0.22084  0.36268  1.0000
  C   C971      1.0  0.28983  0.02463  0.19384  1.0000
  C   C972      1.0  0.35097  0.15729  0.44056  1.0000
  C   C973      1.0  0.43707  0.22222  0.45531  1.0000
  C   C974      1.0  0.31119  0.18507  0.42297  1.0000
  C   C975      1.0  0.24451  0.05460  0.25224  1.0000
  C   C976      1.0  0.25427  0.15223  0.27788  1.0000
  C   C977      1.0  0.37977  0.29563  0.38726  1.0000
  C   C978      1.0  0.29798  0.30749  0.07149  1.0000
  H   H779      1.0  0.25698  0.12511  0.45284  1.0000
  H   H780      1.0  0.31451  0.16448  0.46275  1.0000
  C   C979      1.0  0.26269  0.06727  0.19097  1.0000
  S   S130      1.0  0.28077  0.29595  0.26059  1.0000
  C   C980      1.0  0.25008  0.28391  0.05852  1.0000
  C   C981      1.0  0.24151  0.17623  0.37845  1.0000
  C   C982      1.0  0.24116  0.30986  0.00834  1.0000
  H   H781      1.0  0.31083  0.17734  0.02160  1.0000
  C   C983      1.0  0.23724  0.24929  0.11193  1.0000
  C   C984      1.0  0.32351  0.28411  0.33277  1.0000
  H   H782      1.0  0.27869  0.23698  0.07729  1.0000
  C   C985      1.0  0.45787  0.20134  0.47203  1.0000
  C   C986      1.0  0.39973  0.28829  0.21126  1.0000
  H   H783      1.0  0.28004  0.28654  0.03640  1.0000
  H   H784      1.0  0.24706  0.24390  0.12492  1.0000
  H   H785      1.0  0.40226  0.28115  0.39134  1.0000
  H   H786      1.0  0.43103  0.22973  0.43494  1.0000
  C   C987      1.0  0.34894  0.24678  0.02268  1.0000
  H   H787      1.0  0.47148  0.22807  0.47759  1.0000
  C   C988      1.0  0.27007  0.23166  0.33276  1.0000
  H   H788      1.0  0.23777  0.04945  0.27627  1.0000
  C   C989      1.0  0.34401  0.30488  0.31248  1.0000
  C   C990      1.0  0.39453  0.29192  0.39643  1.0000
  C   C991      1.0  0.38395  0.29455  0.21163  1.0000
  C   C992      1.0  0.29450  0.16609  0.43950  1.0000
  H   H789      1.0  0.25728  0.23172  0.17973  1.0000
  C   C993      1.0  0.31655  0.29260  0.03088  1.0000
  H   H790      1.0  0.26401  0.17582  0.34600  1.0000
  C   C994      1.0  0.25299  0.05721  0.18901  1.0000
  S   S131      1.0  0.24713  0.28584  0.21672  1.0000
  H   H791      1.0  0.35425  0.24362  0.04622  1.0000
  H   H792      1.0  0.32867  0.26102  0.04716  1.0000
  C   C995      1.0  0.27750  0.23663  0.02306  1.0000
  C   C996      1.0  0.29128  0.25318  0.04061  1.0000
  C   C997      1.0  0.24390  0.05070  0.21974  1.0000
  C   C998      1.0  0.30683  0.12322  0.01915  1.0000
  C   C999      1.0  0.24677  0.12956  0.44057  1.0000
  C   C1000     1.0  0.24772  0.12836  0.40521  1.0000
  C   C1001     1.0  0.25117  0.28237  0.02269  1.0000
  C   C1002     1.0  0.36993  0.30958  0.39365  1.0000
  C   C1003     1.0  0.34356  0.98828  0.29529  1.0000
  H   H793      1.0  0.32832  0.28965  0.01716  1.0000
  H   H794      1.0  0.25542  0.27115  0.01470  1.0000
  C   C1004     1.0  0.32068  0.28971  0.19477  1.0000
  C   C1005     1.0  0.29568  0.25968  0.00499  1.0000
  H   H795      1.0  0.29412  0.30256  0.31455  1.0000
  H   H796      1.0  0.23964  0.16612  0.37036  1.0000
  P   P34       1.0  0.33623  0.15418  0.99333  1.0000
  H   H797      1.0  0.26456  0.25584  0.30952  1.0000
  H   H798      1.0  0.30818  0.29270  0.19628  1.0000
  H   H799      1.0  0.37215  0.28853  0.46975  1.0000
  H   H800      1.0  0.28405  0.12610  0.00665  1.0000
  C   C1006     1.0  0.24205  0.19925  0.22625  1.0000
  C   C1007     1.0  0.40737  0.30749  0.48738  1.0000
  C   C1008     1.0  0.24012  0.31137  0.04358  1.0000
  H   H801      1.0  0.27352  0.24647  0.41597  1.0000
  C   C1009     1.0  0.43714  0.26431  0.48982  1.0000
  C   C1010     1.0  0.29687  0.09857  0.48542  1.0000
  C   C1011     1.0  0.47312  0.24348  0.42750  1.0000
  H   H802      1.0  0.32587  0.98276  0.33995  1.0000
  C   C1012     1.0  0.31488  0.19967  0.99294  1.0000
  H   H803      1.0  0.35180  0.31307  0.30498  1.0000
  H   H804      1.0  0.32240  0.30793  0.05926  1.0000
  H   H805      1.0  0.24799  0.21218  0.40892  1.0000
  C   C1013     1.0  0.32762  0.26092  0.99245  1.0000
  H   H806      1.0  0.36759  0.23281  0.99248  1.0000
  C   C1014     1.0  0.35641  0.24057  0.99238  1.0000
  P   P35       1.0  0.30868  0.27326  0.99327  1.0000
  C   C1015     1.0  0.47801  0.23610  0.45940  1.0000
  C   C1016     1.0  0.48152  0.25384  0.40383  1.0000
  C   C1017     1.0  0.24656  0.29544  0.99748  1.0000
  H   H807      1.0  0.23649  0.20739  0.06148  1.0000
  C   C1018     1.0  0.38924  0.17624  0.99087  1.0000
  C   C1019     1.0  0.28240  0.04297  0.60338  1.0000
  C   C1020     1.0  0.42354  0.24608  0.58258  1.0000
  Fe  Fe65      1.0  0.46411  0.27869  0.57821  1.0000
  C   C1021     1.0  0.42390  0.17881  0.87833  1.0000
  Fe  Fe66      1.0  0.30150  0.09536  0.64244  1.0000
  S   S132      1.0  0.32626  0.09465  0.61310  1.0000
  S   S133      1.0  0.29524  0.07570  0.68765  1.0000
  Fe  Fe67      1.0  0.29078  0.12664  0.59943  1.0000
  S   S134      1.0  0.31427  0.12846  0.56819  1.0000
  S   S135      1.0  0.27127  0.14534  0.58300  1.0000
  Fe  Fe68      1.0  0.31560  0.10374  0.56347  1.0000
  S   S136      1.0  0.32460  0.09690  0.50867  1.0000
  Fe  Fe69      1.0  0.32275  0.11965  0.62030  1.0000
  S   S137      1.0  0.34015  0.13295  0.62969  1.0000
  S   S138      1.0  0.29148  0.10246  0.59233  1.0000
  S   S139      1.0  0.29879  0.11979  0.65203  1.0000
  Fe  Fe70      1.0  0.37914  0.17545  0.84001  1.0000
  S   S140      1.0  0.38733  0.19607  0.80373  1.0000
  S   S141      1.0  0.38302  0.16743  0.89767  1.0000
  Fe  Fe71      1.0  0.36756  0.16568  0.77950  1.0000
  S   S142      1.0  0.37524  0.18555  0.73919  1.0000
  S   S143      1.0  0.35295  0.14919  0.77125  1.0000
  Fe  Fe72      1.0  0.39663  0.18026  0.76381  1.0000
  S   S144      1.0  0.42042  0.18183  0.73135  1.0000
  Fe  Fe73      1.0  0.36538  0.19963  0.78223  1.0000
  S   S145      1.0  0.35103  0.22316  0.76774  1.0000
  S   S146      1.0  0.39003  0.15903  0.80120  1.0000
  S   S147      1.0  0.35614  0.18030  0.82149  1.0000
  H   H808      1.0  0.30944  0.26927  0.83560  1.0000
  C   C1022     1.0  0.25940  0.20860  0.64209  1.0000
  S   S148      1.0  0.27850  0.27873  0.87704  1.0000
  H   H809      1.0  0.25125  0.14209  0.77752  1.0000
  C   C1023     1.0  0.29961  0.99445  0.57121  1.0000
  S   S149      1.0  0.26801  0.25905  0.82685  1.0000
  C   C1024     1.0  0.25255  0.17090  0.79077  1.0000
  Fe  Fe74      1.0  0.27694  0.25408  0.87810  1.0000
  S   S150      1.0  0.29575  0.23425  0.89429  1.0000
  Fe  Fe75      1.0  0.26750  0.28417  0.82847  1.0000
  C   C1025     1.0  0.29067  0.15787  0.78112  1.0000
  S   S151      1.0  0.25355  0.25524  0.91262  1.0000
  C   C1026     1.0  0.37054  0.30775  0.61259  1.0000
  Fe  Fe76      1.0  0.45210  0.29542  0.64138  1.0000
  H   H810      1.0  0.24074  0.22710  0.65714  1.0000
  C   C1027     1.0  0.42868  0.25395  0.77024  1.0000
  C   C1028     1.0  0.35728  0.27917  0.55742  1.0000
  H   H811      1.0  0.32245  0.13806  0.81711  1.0000
  H   H812      1.0  0.28939  0.15727  0.62102  1.0000
  H   H813      1.0  0.36684  0.26575  0.51555  1.0000
  C   C1029     1.0  0.34509  0.15178  0.92206  1.0000
  H   H814      1.0  0.29451  0.25902  0.95070  1.0000
  H   H815      1.0  0.38891  0.27128  0.58422  1.0000
  C   C1030     1.0  0.29020  0.01880  0.68057  1.0000
  P   P36       1.0  0.43413  0.21664  0.56317  1.0000
  H   H816      1.0  0.43471  0.24501  0.58994  1.0000
  C   C1031     1.0  0.23682  0.15624  0.50498  1.0000
  H   H817      1.0  0.41530  0.15989  0.86848  1.0000
  H   H818      1.0  0.44957  0.22371  0.67644  1.0000
  S   S152      1.0  0.47536  0.29131  0.60637  1.0000
  H   H819      1.0  0.31487  0.16519  0.61129  1.0000
  H   H820      1.0  0.41512  0.26842  0.59841  1.0000
  S   S153      1.0  0.46990  0.25556  0.61295  1.0000
  C   C1032     1.0  0.28033  0.01025  0.74246  1.0000
  C   C1033     1.0  0.28968  0.31142  0.76490  1.0000
  C   C1034     1.0  0.47135  0.18842  0.77193  1.0000
  C   C1035     1.0  0.42224  0.20122  0.71371  1.0000
  C   C1036     1.0  0.40896  0.21282  0.71216  1.0000
  C   C1037     1.0  0.41032  0.22819  0.69725  1.0000
  C   C1038     1.0  0.44005  0.21457  0.51711  1.0000
  H   H821      1.0  0.38491  0.29973  0.76537  1.0000
  C   C1039     1.0  0.43693  0.20513  0.70059  1.0000
  H   H822      1.0  0.39760  0.20994  0.72207  1.0000
  H   H823      1.0  0.39996  0.23706  0.69603  1.0000
  C   C1040     1.0  0.28244  0.20506  0.66795  1.0000
  C   C1041     1.0  0.33558  0.22609  0.80267  1.0000
  C   C1042     1.0  0.33680  0.21791  0.83686  1.0000
  C   C1043     1.0  0.32439  0.22025  0.86479  1.0000
  C   C1044     1.0  0.31085  0.23090  0.85872  1.0000
  C   C1045     1.0  0.30959  0.23893  0.82447  1.0000
  C   C1046     1.0  0.32197  0.23658  0.79646  1.0000
  H   H824      1.0  0.34737  0.20996  0.84194  1.0000
  H   H825      1.0  0.32530  0.21389  0.89110  1.0000
  H   H826      1.0  0.29923  0.24718  0.81953  1.0000
  H   H827      1.0  0.32097  0.24294  0.77010  1.0000
  C   C1047     1.0  0.25644  0.14734  0.61940  1.0000
  C   C1048     1.0  0.25758  0.13719  0.65154  1.0000
  H   H828      1.0  0.32504  0.30277  0.87366  1.0000
  C   C1049     1.0  0.42164  0.16921  0.85697  1.0000
  C   C1050     1.0  0.42495  0.23221  0.68474  1.0000
  C   C1051     1.0  0.25826  0.09587  0.57229  1.0000
  H   H829      1.0  0.26710  0.12746  0.65345  1.0000
  C   C1052     1.0  0.28886  0.05118  0.62129  1.0000
  C   C1053     1.0  0.43458  0.22615  0.79168  1.0000
  H   H830      1.0  0.25494  0.23524  0.69483  1.0000
  C   C1054     1.0  0.34322  0.13755  0.66946  1.0000
  C   C1055     1.0  0.33632  0.13098  0.70311  1.0000
  C   C1056     1.0  0.33948  0.13465  0.73378  1.0000
  C   C1057     1.0  0.34932  0.14515  0.73142  1.0000
  C   C1058     1.0  0.35598  0.15195  0.69774  1.0000
  C   C1059     1.0  0.35305  0.14806  0.66706  1.0000
  H   H831      1.0  0.32886  0.12279  0.70549  1.0000
  H   H832      1.0  0.33450  0.12905  0.75952  1.0000
  H   H833      1.0  0.36362  0.15998  0.69533  1.0000
  H   H834      1.0  0.35850  0.15319  0.64124  1.0000
  H   H835      1.0  0.23638  0.19841  0.71097  1.0000
  H   H836      1.0  0.30420  0.01189  0.72157  1.0000
  H   H837      1.0  0.30119  0.01687  0.57917  1.0000
  H   H838      1.0  0.34860  0.14977  0.49724  1.0000
  H   H839      1.0  0.32427  0.17051  0.66150  1.0000
  H   H840      1.0  0.42531  0.16455  0.80394  1.0000
  H   H841      1.0  0.24369  0.21235  0.81454  1.0000
  C   C1060     1.0  0.38443  0.17758  0.93088  1.0000
  C   C1061     1.0  0.37976  0.19370  0.92808  1.0000
  C   C1062     1.0  0.37091  0.12820  0.93191  1.0000
  H   H842      1.0  0.37591  0.20048  0.90418  1.0000
  C   C1063     1.0  0.31062  0.19944  0.72601  1.0000
  H   H843      1.0  0.25863  0.21337  0.85992  1.0000
  H   H844      1.0  0.46018  0.22662  0.73706  1.0000
  H   H845      1.0  0.45837  0.23491  0.53559  1.0000
  H   H846      1.0  0.29094  0.10063  0.51152  1.0000
  H   H847      1.0  0.29320  0.06145  0.51886  1.0000
  H   H848      1.0  0.32928  0.25629  0.93969  1.0000
  C   C1064     1.0  0.26404  0.07656  0.68751  1.0000
  C   C1065     1.0  0.27721  0.06931  0.70251  1.0000
  C   C1066     1.0  0.27618  0.05644  0.73007  1.0000
  C   C1067     1.0  0.26220  0.05079  0.74240  1.0000
  H   H849      1.0  0.26461  0.08649  0.66640  1.0000
  H   H850      1.0  0.28629  0.05074  0.74187  1.0000
  H   H851      1.0  0.26160  0.04092  0.76361  1.0000
  C   C1068     1.0  0.25565  0.21384  0.80672  1.0000
  C   C1069     1.0  0.27551  0.21753  0.68592  1.0000
  C   C1070     1.0  0.36724  0.13372  0.89804  1.0000
  P   P37       1.0  0.28571  0.22366  0.71388  1.0000
  C   C1071     1.0  0.27752  0.21883  0.76025  1.0000
  C   C1072     1.0  0.28608  0.21890  0.78626  1.0000
  C   C1073     1.0  0.27935  0.21676  0.82210  1.0000
  H   H852      1.0  0.41684  0.21361  0.78982  1.0000
  C   C1074     1.0  0.44804  0.22332  0.86373  1.0000
  C   C1075     1.0  0.26229  0.21606  0.77084  1.0000
  C   C1076     1.0  0.28389  0.24452  0.70147  1.0000
  C   C1077     1.0  0.28127  0.25393  0.72731  1.0000
  C   C1078     1.0  0.27930  0.27006  0.71752  1.0000
  C   C1079     1.0  0.28457  0.25157  0.66569  1.0000
  C   C1080     1.0  0.45164  0.21678  0.57850  1.0000
  H   H853      1.0  0.30214  0.19342  0.74394  1.0000
  H   H854      1.0  0.29778  0.22121  0.77881  1.0000
  H   H855      1.0  0.28580  0.21745  0.84193  1.0000
  C   C1081     1.0  0.26408  0.21438  0.83229  1.0000
  C   C1082     1.0  0.24674  0.10698  0.51979  1.0000
  H   H856      1.0  0.29998  0.02096  0.65989  1.0000
  H   H857      1.0  0.28046  0.24898  0.75511  1.0000
  H   H858      1.0  0.32208  0.22028  0.96046  1.0000
  H   H859      1.0  0.24812  0.04768  0.66694  1.0000
  H   H860      1.0  0.27845  0.04108  0.55209  1.0000
  C   C1083     1.0  0.25483  0.18001  0.72750  1.0000
  H   H861      1.0  0.37567  0.21337  0.95443  1.0000
  H   H862      1.0  0.29429  0.10199  0.73162  1.0000
  H   H863      1.0  0.44440  0.26491  0.53860  1.0000
  C   C1084     1.0  0.29401  0.00813  0.58524  1.0000
  H   H864      1.0  0.33514  0.16090  0.91773  1.0000
  C   C1085     1.0  0.28883  0.17189  0.79344  1.0000
  P   P38       1.0  0.34373  0.29736  0.61009  1.0000
  C   C1086     1.0  0.47956  0.21659  0.59983  1.0000
  H   H865      1.0  0.31085  0.99285  0.55414  1.0000
  H   H866      1.0  0.40465  0.30205  0.71101  1.0000
  H   H867      1.0  0.35065  0.31123  0.77037  1.0000
  H   H868      1.0  0.27997  0.18175  0.78595  1.0000
  C   C1087     1.0  0.31300  0.16736  0.66568  1.0000
  C   C1088     1.0  0.45585  0.20664  0.60895  1.0000
  C   C1089     1.0  0.29911  0.06596  0.56537  1.0000
  H   H869      1.0  0.47277  0.19891  0.64345  1.0000
  H   H870      1.0  0.31246  0.26023  0.68786  1.0000
  C   C1090     1.0  0.32624  0.19215  0.72175  1.0000
  C   C1091     1.0  0.31721  0.22189  0.68372  1.0000
  C   C1092     1.0  0.45692  0.21363  0.84002  1.0000
  C   C1093     1.0  0.26085  0.17014  0.75630  1.0000
  H   H871      1.0  0.28741  0.04902  0.64989  1.0000
  H   H872      1.0  0.42235  0.23321  0.49685  1.0000
  H   H873      1.0  0.33957  0.30592  0.67995  1.0000
  C   C1094     1.0  0.24906  0.05795  0.72721  1.0000
  C   C1095     1.0  0.47547  0.22666  0.56938  1.0000
  H   H874      1.0  0.43676  0.30211  0.53346  1.0000
  H   H875      1.0  0.27696  0.27724  0.73769  1.0000
  C   C1096     1.0  0.36322  0.30487  0.50549  1.0000
  C   C1097     1.0  0.35566  0.30545  0.63018  1.0000
  C   C1098     1.0  0.30768  0.16440  0.63734  1.0000
  C   C1099     1.0  0.33735  0.19974  0.69848  1.0000
  H   H876      1.0  0.24709  0.19541  0.50985  1.0000
  C   C1100     1.0  0.27522  0.02146  0.67257  1.0000
  H   H877      1.0  0.29772  0.18456  0.82295  1.0000
  H   H878      1.0  0.32086  0.28499  0.72382  1.0000
  H   H879      1.0  0.31401  0.23335  0.66874  1.0000
  H   H880      1.0  0.24755  0.13214  0.70663  1.0000
  C   C1101     1.0  0.41689  0.30075  0.51265  1.0000
  H   H881      1.0  0.36459  0.12974  0.98695  1.0000
  H   H882      1.0  0.37453  0.12908  0.87545  1.0000
  H   H883      1.0  0.33576  0.27000  0.84276  1.0000
  C   C1102     1.0  0.34089  0.27947  0.63976  1.0000
  C   C1103     1.0  0.31104  0.16141  0.82280  1.0000
  H   H884      1.0  0.44845  0.19879  0.62472  1.0000
  C   C1104     1.0  0.31281  0.14737  0.81116  1.0000
  H   H885      1.0  0.26833  0.09583  0.75581  1.0000
  C   C1105     1.0  0.29895  0.17361  0.81427  1.0000
  C   C1106     1.0  0.28770  0.12554  0.74144  1.0000
  C   C1107     1.0  0.30031  0.30731  0.89008  1.0000
  C   C1108     1.0  0.32398  0.26266  0.67744  1.0000
  C   C1109     1.0  0.33676  0.25261  0.68989  1.0000
  C   C1110     1.0  0.35162  0.25588  0.67727  1.0000
  C   C1111     1.0  0.35370  0.26926  0.65231  1.0000
  C   C1112     1.0  0.36706  0.29003  0.49674  1.0000
  C   C1113     1.0  0.44613  0.26853  0.51021  1.0000
  C   C1114     1.0  0.48287  0.18417  0.74369  1.0000
  H   H886      1.0  0.24683  0.11587  0.77956  1.0000
  H   H887      1.0  0.44723  0.19617  0.70176  1.0000
  S   S154      1.0  0.45703  0.27368  0.68104  1.0000
  H   H888      1.0  0.44986  0.24211  0.78834  1.0000
  H   H889      1.0  0.27367  0.15397  0.68089  1.0000
  C   C1115     1.0  0.25205  0.15694  0.50687  1.0000
  C   C1116     1.0  0.28505  0.11070  0.74247  1.0000
  C   C1117     1.0  0.25451  0.11043  0.58248  1.0000
  H   H890      1.0  0.43595  0.22822  0.86231  1.0000
  H   H891      1.0  0.24423  0.13445  0.56976  1.0000
  C   C1118     1.0  0.25247  0.22103  0.65980  1.0000
  H   H892      1.0  0.33518  0.24236  0.70969  1.0000
  H   H893      1.0  0.36146  0.24810  0.68738  1.0000
  H   H894      1.0  0.36527  0.27179  0.64331  1.0000
  S   S155      1.0  0.46893  0.28302  0.51822  1.0000
  S   S156      1.0  0.42571  0.25185  0.66772  1.0000
  C   C1119     1.0  0.27569  0.13702  0.75454  1.0000
  H   H895      1.0  0.35491  0.23884  0.93939  1.0000
  P   P39       1.0  0.27235  0.02751  0.62704  1.0000
  C   C1120     1.0  0.35359  0.29405  0.56640  1.0000
  C   C1121     1.0  0.41234  0.25943  0.58770  1.0000
  C   C1122     1.0  0.42010  0.23426  0.56895  1.0000
  H   H896      1.0  0.34154  0.22044  0.66160  1.0000
  H   H897      1.0  0.26066  0.17953  0.70064  1.0000
  H   H898      1.0  0.35144  0.14956  0.86687  1.0000
  C   C1123     1.0  0.45733  0.27753  0.49373  1.0000
  H   H899      1.0  0.25137  0.01905  0.69454  1.0000
  C   C1124     1.0  0.33486  0.25405  0.96265  1.0000
  H   H900      1.0  0.24000  0.07658  0.68791  1.0000
  H   H901      1.0  0.26738  0.17138  0.51138  1.0000
  C   C1125     1.0  0.42927  0.30744  0.51412  1.0000
  C   C1126     1.0  0.28192  0.24299  0.98752  1.0000
  C   C1127     1.0  0.27091  0.99830  0.61636  1.0000
  C   C1128     1.0  0.37953  0.20096  0.95681  1.0000
  H   H902      1.0  0.28065  0.29088  0.96762  1.0000
  H   H903      1.0  0.30585  0.07462  0.55073  1.0000
  H   H904      1.0  0.24239  0.16692  0.59145  1.0000
  C   C1129     1.0  0.25007  0.07091  0.69984  1.0000
  H   H905      1.0  0.30287  0.06829  0.61619  1.0000
  C   C1130     1.0  0.46297  0.20375  0.77009  1.0000
  C   C1131     1.0  0.24136  0.07734  0.79307  1.0000
  C   C1132     1.0  0.39699  0.29381  0.71537  1.0000
  C   C1133     1.0  0.33866  0.19955  0.95017  1.0000
  C   C1134     1.0  0.26296  0.01771  0.69976  1.0000
  C   C1135     1.0  0.25575  0.17106  0.50839  1.0000
  C   C1136     1.0  0.32533  0.31009  0.60399  1.0000
  H   H906      1.0  0.39906  0.23689  0.76675  1.0000
  C   C1137     1.0  0.24432  0.18456  0.50771  1.0000
  H   H907      1.0  0.25305  0.20504  0.62561  1.0000
  C   C1138     1.0  0.24098  0.19073  0.73319  1.0000
  H   H908      1.0  0.24455  0.03378  0.96842  1.0000
  C   C1139     1.0  0.24647  0.13977  0.68162  1.0000
  Fe  Fe77      1.0  0.25426  0.28037  0.90827  1.0000
  C   C1140     1.0  0.24334  0.12174  0.52941  1.0000
  C   C1141     1.0  0.29102  0.25443  0.97846  1.0000
  C   C1142     1.0  0.41441  0.25249  0.76401  1.0000
  C   C1143     1.0  0.29746  0.06238  0.60224  1.0000
  C   C1144     1.0  0.23868  0.18162  0.79632  1.0000
  C   C1145     1.0  0.35281  0.30981  0.79708  1.0000
  H   H909      1.0  0.26416  0.08594  0.58874  1.0000
  H   H910      1.0  0.39056  0.26594  0.67690  1.0000
  C   C1146     1.0  0.28265  0.26774  0.65601  1.0000
  C   C1147     1.0  0.36166  0.13441  0.96095  1.0000
  C   C1148     1.0  0.31791  0.30883  0.57690  1.0000
  S   S157      1.0  0.24303  0.28744  0.85932  1.0000
  C   C1149     1.0  0.47248  0.20724  0.84287  1.0000
  C   C1150     1.0  0.36060  0.29349  0.85043  1.0000
  H   H911      1.0  0.26098  0.14655  0.50828  1.0000
  H   H912      1.0  0.27822  0.28954  0.67470  1.0000
  H   H913      1.0  0.31587  0.28386  0.64377  1.0000
  C   C1151     1.0  0.33194  0.17514  0.98331  1.0000
  C   C1152     1.0  0.30568  0.28597  0.95195  1.0000
  C   C1153     1.0  0.29341  0.15980  0.64290  1.0000
  C   C1154     1.0  0.28452  0.15795  0.67688  1.0000
  H   H914      1.0  0.30605  0.16564  0.96973  1.0000
  H   H915      1.0  0.42843  0.25745  0.50270  1.0000
  H   H916      1.0  0.43949  0.18584  0.77736  1.0000
  H   H917      1.0  0.39333  0.15654  0.96445  1.0000
  Fe  Fe78      1.0  0.44695  0.26272  0.64721  1.0000
  H   H918      1.0  0.30899  0.16702  0.72139  1.0000
  H   H919      1.0  0.41920  0.17692  0.90642  1.0000
  H   H920      1.0  0.35847  0.30527  0.89419  1.0000
  C   C1155     1.0  0.47804  0.21049  0.71157  1.0000
  C   C1156     1.0  0.42734  0.17178  0.82066  1.0000
  H   H921      1.0  0.28295  0.27314  0.62846  1.0000
  C   C1157     1.0  0.45462  0.22656  0.88986  1.0000
  C   C1158     1.0  0.31820  0.28965  0.92549  1.0000
  S   S158      1.0  0.27453  0.30050  0.77681  1.0000
  H   H922      1.0  0.46895  0.17974  0.79517  1.0000
  H   H923      1.0  0.34947  0.19411  0.69536  1.0000
  C   C1159     1.0  0.36408  0.27719  0.52266  1.0000
  C   C1160     1.0  0.28369  0.04697  0.56636  1.0000
  H   H924      1.0  0.33003  0.28469  0.92896  1.0000
  H   H925      1.0  0.34730  0.28584  0.73026  1.0000
  H   H926      1.0  0.32980  0.18065  0.73662  1.0000
  C   C1161     1.0  0.46153  0.22682  0.55884  1.0000
  H   H927      1.0  0.31927  0.16289  0.83777  1.0000
  C   C1162     1.0  0.39390  0.24904  0.56745  1.0000
  C   C1163     1.0  0.40511  0.23575  0.56200  1.0000
  C   C1164     1.0  0.42486  0.20090  0.58860  1.0000
  C   C1165     1.0  0.42507  0.18780  0.57419  1.0000
  C   C1166     1.0  0.41771  0.17582  0.59444  1.0000
  C   C1167     1.0  0.41004  0.17686  0.62904  1.0000
  C   C1168     1.0  0.40964  0.18992  0.64336  1.0000
  C   C1169     1.0  0.41702  0.20189  0.62328  1.0000
  H   H928      1.0  0.29905  0.12816  0.72937  1.0000
  H   H929      1.0  0.38237  0.24999  0.56223  1.0000
  H   H930      1.0  0.40207  0.22653  0.55257  1.0000
  H   H931      1.0  0.43084  0.18675  0.54744  1.0000
  H   H932      1.0  0.41797  0.16568  0.58339  1.0000
  H   H933      1.0  0.40445  0.16753  0.64491  1.0000
  H   H934      1.0  0.40378  0.19065  0.67029  1.0000
  H   H935      1.0  0.41674  0.21187  0.63497  1.0000
  C   C1170     1.0  0.28984  0.16074  0.70561  1.0000
  H   H936      1.0  0.35471  0.26917  0.57692  1.0000
  H   H937      1.0  0.25687  0.16324  0.81333  1.0000
  C   C1171     1.0  0.30421  0.16541  0.69975  1.0000
  H   H938      1.0  0.29401  0.19872  0.67063  1.0000
  C   C1172     1.0  0.39755  0.26096  0.58000  1.0000
  H   H939      1.0  0.24328  0.10526  0.49639  1.0000
  C   C1173     1.0  0.25221  0.03508  0.62387  1.0000
  H   H940      1.0  0.44768  0.23394  0.90827  1.0000
  S   S159      1.0  0.44052  0.28495  0.60995  1.0000
  C   C1174     1.0  0.30268  0.14558  0.79044  1.0000
  C   C1175     1.0  0.35881  0.29511  0.81506  1.0000
  C   C1176     1.0  0.30598  0.21440  0.70732  1.0000
  H   H941      1.0  0.28639  0.24458  0.64532  1.0000
  H   H942      1.0  0.27606  0.30953  0.91341  1.0000
  H   H943      1.0  0.25259  0.02499  0.57821  1.0000
  C   C1177     1.0  0.27443  0.20073  0.64587  1.0000
  H   H944      1.0  0.30208  0.27613  0.77610  1.0000
  H   H945      1.0  0.24318  0.98359  0.93024  1.0000
  C   C1178     1.0  0.29269  0.01348  0.71546  1.0000
  H   H946      1.0  0.28359  0.15333  0.97558  1.0000
  H   H947      1.0  0.30467  0.13477  0.78079  1.0000
  H   H948      1.0  0.27979  0.19118  0.63189  1.0000
  H   H949      1.0  0.27838  0.23905  0.96677  1.0000
  C   C1179     1.0  0.43829  0.22066  0.68630  1.0000
  C   C1180     1.0  0.23624  0.06775  0.82442  1.0000
  C   C1181     1.0  0.28786  0.30398  0.91667  1.0000
  H   H950      1.0  0.45928  0.19568  0.52737  1.0000
  C   C1182     1.0  0.38950  0.16899  0.96212  1.0000
  C   C1183     1.0  0.33285  0.21457  0.67943  1.0000
  H   H951      1.0  0.28223  0.00623  0.76954  1.0000
  C   C1184     1.0  0.43869  0.24085  0.78429  1.0000
  C   C1185     1.0  0.29203  0.05845  0.54745  1.0000
  C   C1186     1.0  0.26093  0.13339  0.76852  1.0000
  C   C1187     1.0  0.39853  0.28440  0.69027  1.0000
  C   C1188     1.0  0.47904  0.21053  0.86901  1.0000
  C   C1189     1.0  0.38893  0.27355  0.69593  1.0000
  C   C1190     1.0  0.37783  0.27201  0.72682  1.0000
  C   C1191     1.0  0.37594  0.28168  0.75179  1.0000
  H   H952      1.0  0.25367  0.07641  0.78311  1.0000
  P   P40       1.0  0.36267  0.27856  0.79310  1.0000
  C   C1192     1.0  0.37156  0.26078  0.81860  1.0000
  H   H953      1.0  0.37517  0.30515  0.58635  1.0000
  C   C1193     1.0  0.32493  0.20772  0.96721  1.0000
  H   H954      1.0  0.32280  0.30006  0.56043  1.0000
  C   C1194     1.0  0.35425  0.14538  0.89319  1.0000
  C   C1195     1.0  0.43541  0.18387  0.80567  1.0000
  H   H955      1.0  0.24458  0.05952  0.83876  1.0000
  C   C1196     1.0  0.36602  0.24697  0.82261  1.0000
  C   C1197     1.0  0.37326  0.23315  0.84150  1.0000
  C   C1198     1.0  0.38619  0.23293  0.85612  1.0000
  C   C1199     1.0  0.39199  0.24654  0.85156  1.0000
  C   C1200     1.0  0.38482  0.26038  0.83253  1.0000
  C   C1201     1.0  0.34375  0.27731  0.78680  1.0000
  C   C1202     1.0  0.33936  0.28175  0.75330  1.0000
  C   C1203     1.0  0.32438  0.28126  0.74947  1.0000
  C   C1204     1.0  0.31371  0.27645  0.77902  1.0000
  C   C1205     1.0  0.31784  0.27262  0.81259  1.0000
  C   C1206     1.0  0.33279  0.27301  0.81651  1.0000
  H   H956      1.0  0.35277  0.17722  0.94437  1.0000
  H   H957      1.0  0.37093  0.26308  0.73156  1.0000
  C   C1207     1.0  0.43796  0.19343  0.82695  1.0000
  P   P41       1.0  0.27904  0.15654  0.74990  1.0000
  C   C1208     1.0  0.27036  0.10721  0.75625  1.0000
  C   C1209     1.0  0.25833  0.11849  0.76955  1.0000
  H   H958      1.0  0.25592  0.00969  0.75543  1.0000
  C   C1210     1.0  0.35661  0.30686  0.54018  1.0000
  H   H959      1.0  0.35632  0.24668  0.81065  1.0000
  H   H960      1.0  0.36897  0.22254  0.84423  1.0000
  H   H961      1.0  0.39189  0.22214  0.87032  1.0000
  H   H962      1.0  0.40224  0.24627  0.86215  1.0000
  H   H963      1.0  0.38971  0.27072  0.82834  1.0000
  C   C1211     1.0  0.34929  0.24404  0.96251  1.0000
  C   C1212     1.0  0.32599  0.27606  0.65243  1.0000
  H   H964      1.0  0.36447  0.28223  0.86559  1.0000
  C   C1213     1.0  0.34215  0.18333  0.95809  1.0000
  S   S160      1.0  0.24687  0.29502  0.95217  1.0000
  C   C1214     1.0  0.35703  0.30654  0.86694  1.0000
  C   C1215     1.0  0.25443  0.09415  0.54087  1.0000
  H   H965      1.0  0.43354  0.19817  0.88055  1.0000
  C   C1216     1.0  0.38572  0.29250  0.74602  1.0000
  H   H966      1.0  0.43212  0.26517  0.76329  1.0000
  C   C1217     1.0  0.41009  0.23799  0.77192  1.0000
  C   C1218     1.0  0.43203  0.19088  0.86344  1.0000
  H   H967      1.0  0.25733  0.11184  0.60698  1.0000
  H   H968      1.0  0.33544  0.12828  0.49769  1.0000
  C   C1219     1.0  0.45297  0.20316  0.50746  1.0000
  C   C1220     1.0  0.42021  0.22480  0.78525  1.0000
  C   C1221     1.0  0.29050  0.29330  0.94736  1.0000
  C   C1222     1.0  0.26551  0.01223  0.73454  1.0000
  H   H969      1.0  0.34652  0.20577  0.93038  1.0000
  C   C1223     1.0  0.26051  0.22555  0.68141  1.0000
  C   C1224     1.0  0.29350  0.14697  0.98758  1.0000
  C   C1225     1.0  0.35068  0.30820  0.66509  1.0000
  H   H970      1.0  0.40687  0.26254  0.75237  1.0000
  P   P42       1.0  0.44819  0.20918  0.80695  1.0000
  H   H971      1.0  0.25526  0.21605  0.75171  1.0000
  C   C1226     1.0  0.27947  0.01026  0.60743  1.0000
  C   C1227     1.0  0.27998  0.27699  0.68195  1.0000
  C   C1228     1.0  0.47012  0.22017  0.89250  1.0000
  H   H972      1.0  0.38103  0.11919  0.93556  1.0000
  C   C1229     1.0  0.24353  0.15932  0.61657  1.0000
  C   C1230     1.0  0.34888  0.14652  0.95610  1.0000
  H   H973      1.0  0.29767  0.30468  0.81473  1.0000
  C   C1231     1.0  0.24718  0.12331  0.56109  1.0000
  H   H974      1.0  0.41484  0.29021  0.53083  1.0000
  C   C1232     1.0  0.46643  0.21475  0.73962  1.0000
  H   H975      1.0  0.40741  0.28527  0.66677  1.0000
  H   H976      1.0  0.25733  0.08285  0.53299  1.0000
  H   H977      1.0  0.25999  0.99945  0.63457  1.0000
  C   C1233     1.0  0.24564  0.03196  0.59739  1.0000
  H   H978      1.0  0.47518  0.22263  0.91289  1.0000
  Fe  Fe79      1.0  0.24450  0.26184  0.86092  1.0000
  C   C1234     1.0  0.31546  0.30009  0.89438  1.0000
  C   C1235     1.0  0.24311  0.04478  0.64715  1.0000
  H   H979      1.0  0.48063  0.21911  0.68826  1.0000
  H   H980      1.0  0.23885  0.25677  0.78182  1.0000
  C   C1236     1.0  0.30622  0.15398  0.98464  1.0000
  C   C1237     1.0  0.29943  0.31138  0.78832  1.0000
  C   C1238     1.0  0.37988  0.31337  0.62907  1.0000
  Fe  Fe80      1.0  0.47962  0.26868  0.64353  1.0000
  H   H981      1.0  0.47957  0.19967  0.82513  1.0000
  C   C1239     1.0  0.46974  0.20660  0.61960  1.0000
  H   H982      1.0  0.48287  0.23470  0.55454  1.0000
  C   C1240     1.0  0.27654  0.98462  0.60233  1.0000
  C   C1241     1.0  0.29086  0.98272  0.57964  1.0000
  C   C1242     1.0  0.38401  0.19226  0.98868  1.0000
  C   C1243     1.0  0.43215  0.22412  0.49068  1.0000
  H   H983      1.0  0.34551  0.44259  0.24061  1.0000
  Fe  Fe81      1.0  0.29512  0.61143  0.14166  1.0000
  S   S161      1.0  0.28584  0.59858  0.19457  1.0000
  S   S162      1.0  0.31606  0.62210  0.13312  1.0000
  Fe  Fe82      1.0  0.27215  0.60464  0.10308  1.0000
  S   S163      1.0  0.26092  0.59092  0.15299  1.0000
  C   C1244     1.0  0.28421  0.43225  0.30088  1.0000
  C   C1245     1.0  0.25899  0.56902  0.02847  1.0000
  Fe  Fe83      1.0  0.28513  0.58062  0.16334  1.0000
  S   S164      1.0  0.29524  0.55511  0.17780  1.0000
  H   H984      1.0  0.40843  0.64662  0.20338  1.0000
  S   S165      1.0  0.29623  0.59276  0.11101  1.0000
  C   C1246     1.0  0.47963  0.57899  0.44788  1.0000
  Fe  Fe84      1.0  0.42728  0.61745  0.39107  1.0000
  H   H985      1.0  0.37909  0.37964  0.48090  1.0000
  Fe  Fe85      1.0  0.42927  0.61684  0.31354  1.0000
  S   S166      1.0  0.44078  0.59165  0.31883  1.0000
  S   S167      1.0  0.42393  0.62904  0.25987  1.0000
  Fe  Fe86      1.0  0.42321  0.58848  0.36844  1.0000
  S   S168      1.0  0.40842  0.57008  0.38964  1.0000
  S   S169      1.0  0.41062  0.61321  0.36075  1.0000
  S   S170      1.0  0.44501  0.62339  0.34295  1.0000
  Fe  Fe87      1.0  0.33251  0.35395  0.38124  1.0000
  S   S171      1.0  0.34804  0.37145  0.36411  1.0000
  S   S172      1.0  0.33220  0.33927  0.43596  1.0000
  Fe  Fe88      1.0  0.32236  0.35935  0.30944  1.0000
  S   S173      1.0  0.33703  0.37778  0.28689  1.0000
  S   S174      1.0  0.30900  0.35412  0.27083  1.0000
  Fe  Fe89      1.0  0.35538  0.36128  0.31438  1.0000
  S   S175      1.0  0.38010  0.35994  0.28597  1.0000
  Fe  Fe90      1.0  0.32873  0.38677  0.33818  1.0000
  S   S176      1.0  0.32139  0.41232  0.34487  1.0000
  S   S177      1.0  0.34159  0.34236  0.33327  1.0000
  S   S178      1.0  0.31230  0.36983  0.35896  1.0000
  Fe  Fe91      1.0  0.33311  0.51545  0.34044  1.0000
  S   S179      1.0  0.35232  0.50994  0.29541  1.0000
  S   S180      1.0  0.30915  0.52899  0.33356  1.0000
  Fe  Fe92      1.0  0.35342  0.50045  0.39596  1.0000
  S   S181      1.0  0.37418  0.49413  0.35486  1.0000
  S   S182      1.0  0.35630  0.49083  0.45255  1.0000
  Fe  Fe93      1.0  0.36692  0.51808  0.32524  1.0000
  S   S183      1.0  0.38419  0.53361  0.29706  1.0000
  Fe  Fe94      1.0  0.35756  0.48641  0.32990  1.0000
  S   S184      1.0  0.36489  0.46284  0.31196  1.0000
  S   S185      1.0  0.34729  0.52505  0.36825  1.0000
  S   S186      1.0  0.33725  0.49142  0.37274  1.0000
  H   H986      1.0  0.29536  0.31561  0.08973  1.0000
  H   H987      1.0  0.34356  0.52397  0.45003  1.0000
  C   C1247     1.0  0.33965  0.45400  0.24613  1.0000
  C   C1248     1.0  0.43219  0.32084  0.49023  1.0000
  H   H988      1.0  0.24882  0.50682  0.00133  1.0000
  C   C1249     1.0  0.28977  0.32475  0.23441  1.0000
  C   C1250     1.0  0.39097  0.38107  0.47328  1.0000
  H   H989      1.0  0.46437  0.64658  0.33546  1.0000
  C   C1251     1.0  0.35603  0.40439  0.48070  1.0000
  H   H990      1.0  0.31545  0.37076  0.44080  1.0000
  C   C1252     1.0  0.31819  0.36511  0.46657  1.0000
  C   C1253     1.0  0.29727  0.49054  0.37932  1.0000
  C   C1254     1.0  0.33400  0.42584  0.33699  1.0000
  C   C1255     1.0  0.34947  0.42258  0.32022  1.0000
  C   C1256     1.0  0.35884  0.43393  0.31327  1.0000
  C   C1257     1.0  0.35289  0.44862  0.32301  1.0000
  C   C1258     1.0  0.33751  0.45175  0.34035  1.0000
  C   C1259     1.0  0.32815  0.44043  0.34730  1.0000
  H   H991      1.0  0.35415  0.41142  0.31210  1.0000
  H   H992      1.0  0.37067  0.43141  0.29965  1.0000
  H   H993      1.0  0.33269  0.46304  0.34761  1.0000
  H   H994      1.0  0.31624  0.44306  0.36035  1.0000
  C   C1260     1.0  0.40200  0.56006  0.36319  1.0000
  C   C1261     1.0  0.38998  0.55185  0.37864  1.0000
  C   C1262     1.0  0.38453  0.54362  0.35871  1.0000
  C   C1263     1.0  0.39110  0.54350  0.32308  1.0000
  C   C1264     1.0  0.40328  0.55155  0.30773  1.0000
  C   C1265     1.0  0.40866  0.55989  0.32763  1.0000
  H   H995      1.0  0.38483  0.55186  0.40618  1.0000
  H   H996      1.0  0.37527  0.53735  0.37100  1.0000
  H   H997      1.0  0.40877  0.55109  0.28058  1.0000
  H   H998      1.0  0.41814  0.56591  0.31566  1.0000
  C   C1266     1.0  0.47111  0.54982  0.40201  1.0000
  H   H999      1.0  0.46768  0.53508  0.48965  1.0000
  C   C1267     1.0  0.28569  0.56163  0.00077  1.0000
  H   H1000     1.0  0.36503  0.31491  0.48523  1.0000
  H   H1001     1.0  0.39719  0.42142  0.46499  1.0000
  C   C1268     1.0  0.44409  0.55081  0.42862  1.0000
  C   C1269     1.0  0.29926  0.54826  0.22108  1.0000
  C   C1270     1.0  0.29112  0.55571  0.24925  1.0000
  C   C1271     1.0  0.29413  0.54963  0.28374  1.0000
  C   C1272     1.0  0.30564  0.53639  0.29006  1.0000
  C   C1273     1.0  0.31402  0.52916  0.26173  1.0000
  C   C1274     1.0  0.31062  0.53489  0.22748  1.0000
  H   H1002     1.0  0.28224  0.56594  0.24462  1.0000
  H   H1003     1.0  0.28760  0.55527  0.30557  1.0000
  H   H1004     1.0  0.32301  0.51910  0.26630  1.0000
  H   H1005     1.0  0.31690  0.52902  0.20584  1.0000
  H   H1006     1.0  0.24034  0.64121  0.35889  1.0000
  H   H1007     1.0  0.43205  0.55414  0.42567  1.0000
  H   H1008     1.0  0.31110  0.62668  0.06182  1.0000
  C   C1275     1.0  0.32603  0.34968  0.47150  1.0000
  H   H1009     1.0  0.35010  0.45281  0.47079  1.0000
  H   H1010     1.0  0.29426  0.59682  0.03035  1.0000
  H   H1011     1.0  0.28531  0.32495  0.21081  1.0000
  H   H1012     1.0  0.47401  0.60568  0.25388  1.0000
  C   C1276     1.0  0.33810  0.45312  0.46969  1.0000
  S   S187      1.0  0.41810  0.63139  0.43513  1.0000
  C   C1277     1.0  0.40603  0.34444  0.25066  1.0000
  C   C1278     1.0  0.34833  0.51944  0.47405  1.0000
  Fe  Fe95      1.0  0.26257  0.61012  0.17986  1.0000
  C   C1279     1.0  0.31249  0.63881  0.15208  1.0000
  H   H1013     1.0  0.32919  0.35344  0.19373  1.0000
  H   H1014     1.0  0.33897  0.64143  0.21692  1.0000
  H   H1015     1.0  0.29928  0.44182  0.32196  1.0000
  C   C1280     1.0  0.40475  0.52544  0.45586  1.0000
  C   C1281     1.0  0.30135  0.32467  0.29554  1.0000
  C   C1282     1.0  0.30184  0.33749  0.26807  1.0000
  C   C1283     1.0  0.29609  0.33736  0.23745  1.0000
  H   H1016     1.0  0.41451  0.40368  0.41615  1.0000
  C   C1284     1.0  0.29352  0.47682  0.33561  1.0000
  C   C1285     1.0  0.42102  0.36042  0.33519  1.0000
  H   H1017     1.0  0.42924  0.52408  0.45077  1.0000
  H   H1018     1.0  0.30798  0.49422  0.32503  1.0000
  C   C1286     1.0  0.44817  0.54411  0.46190  1.0000
  S   S188      1.0  0.48104  0.58747  0.34547  1.0000
  S   S189      1.0  0.43859  0.59241  0.40264  1.0000
  H   H1019     1.0  0.41750  0.59961  0.47971  1.0000
  C   C1287     1.0  0.36087  0.40698  0.44384  1.0000
  H   H1020     1.0  0.40333  0.36202  0.42020  1.0000
  C   C1288     1.0  0.33978  0.32998  0.21331  1.0000
  H   H1021     1.0  0.37266  0.38539  0.39159  1.0000
  C   C1289     1.0  0.33402  0.41063  0.43637  1.0000
  C   C1290     1.0  0.34966  0.41044  0.42179  1.0000
  C   C1291     1.0  0.43121  0.62726  0.46481  1.0000
  H   H1022     1.0  0.36712  0.33081  0.41237  1.0000
  H   H1023     1.0  0.47988  0.55240  0.37904  1.0000
  C   C1292     1.0  0.40523  0.31552  0.29460  1.0000
  H   H1024     1.0  0.35288  0.41319  0.39331  1.0000
  H   H1025     1.0  0.36760  0.43713  0.38594  1.0000
  H   H1026     1.0  0.36874  0.46407  0.38650  1.0000
  C   C1293     1.0  0.41787  0.37110  0.47906  1.0000
  C   C1294     1.0  0.37451  0.43943  0.40302  1.0000
  H   H1027     1.0  0.42708  0.33306  0.22178  1.0000
  C   C1295     1.0  0.32555  0.64052  0.40007  1.0000
  C   C1296     1.0  0.31837  0.45528  0.43450  1.0000
  C   C1297     1.0  0.27636  0.52243  0.22762  1.0000
  C   C1298     1.0  0.37306  0.59397  0.41199  1.0000
  C   C1299     1.0  0.38045  0.59235  0.44083  1.0000
  C   C1300     1.0  0.38053  0.60541  0.45465  1.0000
  C   C1301     1.0  0.33353  0.63596  0.24236  1.0000
  H   H1028     1.0  0.31871  0.61168  0.01270  1.0000
  C   C1302     1.0  0.36593  0.60867  0.39657  1.0000
  C   C1303     1.0  0.41022  0.32097  0.46320  1.0000
  H   H1029     1.0  0.37313  0.58375  0.40135  1.0000
  H   H1030     1.0  0.38628  0.58096  0.45214  1.0000
  H   H1031     1.0  0.25062  0.57318  0.05033  1.0000
  C   C1304     1.0  0.36355  0.32715  0.23570  1.0000
  H   H1032     1.0  0.36021  0.60967  0.37435  1.0000
  C   C1305     1.0  0.39215  0.44598  0.44654  1.0000
  H   H1033     1.0  0.26589  0.63227  0.23229  1.0000
  C   C1306     1.0  0.41780  0.52325  0.07939  1.0000
  H   H1034     1.0  0.37167  0.34835  0.23173  1.0000
  C   C1307     1.0  0.39519  0.53562  0.05259  1.0000
  C   C1308     1.0  0.38743  0.54031  0.08456  1.0000
  C   C1309     1.0  0.39493  0.53668  0.11406  1.0000
  C   C1310     1.0  0.41008  0.52792  0.11139  1.0000
  P   P43       1.0  0.38509  0.54207  0.15606  1.0000
  C   C1311     1.0  0.36639  0.55428  0.15152  1.0000
  C   C1312     1.0  0.38336  0.52385  0.18568  1.0000
  C   C1313     1.0  0.37616  0.51332  0.17644  1.0000
  C   C1314     1.0  0.37518  0.49892  0.19822  1.0000
  C   C1315     1.0  0.38139  0.49489  0.22941  1.0000
  C   C1316     1.0  0.38881  0.50519  0.23848  1.0000
  C   C1317     1.0  0.38997  0.51953  0.21654  1.0000
  C   C1318     1.0  0.35253  0.54938  0.16906  1.0000
  C   C1319     1.0  0.33824  0.55895  0.16422  1.0000
  C   C1320     1.0  0.33763  0.57352  0.14260  1.0000
  C   C1321     1.0  0.35135  0.57855  0.12540  1.0000
  C   C1322     1.0  0.36569  0.56903  0.13000  1.0000
  C   C1323     1.0  0.39561  0.55376  0.17054  1.0000
  C   C1324     1.0  0.40804  0.55974  0.14770  1.0000
  C   C1325     1.0  0.41570  0.56923  0.15897  1.0000
  C   C1326     1.0  0.41089  0.57301  0.19284  1.0000
  C   C1327     1.0  0.39829  0.56746  0.21530  1.0000
  C   C1328     1.0  0.39064  0.55793  0.20418  1.0000
  C   C1329     1.0  0.39318  0.32839  0.30084  1.0000
  C   C1330     1.0  0.36648  0.62193  0.40944  1.0000
  C   C1331     1.0  0.25401  0.56635  0.99932  1.0000
  H   H1035     1.0  0.37557  0.54659  0.08610  1.0000
  H   H1036     1.0  0.41589  0.52467  0.13416  1.0000
  H   H1037     1.0  0.37128  0.51626  0.15236  1.0000
  H   H1038     1.0  0.36956  0.49088  0.19100  1.0000
  H   H1039     1.0  0.38040  0.48384  0.24673  1.0000
  H   H1040     1.0  0.39354  0.50216  0.26281  1.0000
  H   H1041     1.0  0.39606  0.52705  0.22403  1.0000
  H   H1042     1.0  0.35260  0.53834  0.18673  1.0000
  H   H1043     1.0  0.32757  0.55517  0.17763  1.0000
  H   H1044     1.0  0.32649  0.58097  0.13946  1.0000
  H   H1045     1.0  0.35078  0.58987  0.10862  1.0000
  H   H1046     1.0  0.37624  0.57312  0.11658  1.0000
  H   H1047     1.0  0.41179  0.55724  0.12112  1.0000
  H   H1048     1.0  0.42537  0.57369  0.14142  1.0000
  H   H1049     1.0  0.41692  0.58022  0.20172  1.0000
  H   H1050     1.0  0.39452  0.57041  0.24154  1.0000
  H   H1051     1.0  0.38097  0.55361  0.22204  1.0000
  C   C1332     1.0  0.37339  0.62013  0.43935  1.0000
  C   C1333     1.0  0.34049  0.48056  0.24755  1.0000
  C   C1334     1.0  0.34796  0.46600  0.23944  1.0000
  H   H1052     1.0  0.34693  0.48982  0.24307  1.0000
  H   H1053     1.0  0.36027  0.46385  0.22906  1.0000
  C   C1335     1.0  0.47537  0.54301  0.43486  1.0000
  H   H1054     1.0  0.35183  0.37405  0.43813  1.0000
  C   C1336     1.0  0.33867  0.59738  0.48764  1.0000
  H   H1055     1.0  0.38937  0.53847  0.02988  1.0000
  H   H1056     1.0  0.45002  0.61585  0.42962  1.0000
  C   C1337     1.0  0.32653  0.57804  0.23232  1.0000
  C   C1338     1.0  0.33442  0.56384  0.24813  1.0000
  C   C1339     1.0  0.34884  0.56287  0.25716  1.0000
  C   C1340     1.0  0.35536  0.57614  0.25073  1.0000
  C   C1341     1.0  0.34748  0.59052  0.23505  1.0000
  C   C1342     1.0  0.33301  0.59134  0.22578  1.0000
  P   P44       1.0  0.35451  0.60823  0.23149  1.0000
  C   C1343     1.0  0.35897  0.61795  0.18597  1.0000
  C   C1344     1.0  0.33867  0.62027  0.25612  1.0000
  H   H1057     1.0  0.36931  0.63506  0.19912  1.0000
  H   H1058     1.0  0.41213  0.32453  0.36128  1.0000
  C   C1345     1.0  0.36958  0.63862  0.14334  1.0000
  C   C1346     1.0  0.41753  0.31724  0.26599  1.0000
  C   C1347     1.0  0.33053  0.61358  0.28844  1.0000
  C   C1348     1.0  0.36622  0.63091  0.17820  1.0000
  H   H1059     1.0  0.47812  0.57962  0.42096  1.0000
  C   C1349     1.0  0.36578  0.63346  0.11581  1.0000
  C   C1350     1.0  0.35855  0.62062  0.12318  1.0000
  C   C1351     1.0  0.35513  0.61290  0.15808  1.0000
  C   C1352     1.0  0.37146  0.60410  0.25271  1.0000
  C   C1353     1.0  0.38621  0.60555  0.23264  1.0000
  C   C1354     1.0  0.39910  0.60283  0.24931  1.0000
  C   C1355     1.0  0.39758  0.59793  0.28587  1.0000
  C   C1356     1.0  0.38318  0.59572  0.30586  1.0000
  C   C1357     1.0  0.37014  0.59895  0.28952  1.0000
  H   H1060     1.0  0.31532  0.57871  0.22539  1.0000
  H   H1061     1.0  0.32933  0.55358  0.25353  1.0000
  H   H1062     1.0  0.35485  0.55184  0.26980  1.0000
  H   H1063     1.0  0.36633  0.57508  0.25890  1.0000
  H   H1064     1.0  0.32657  0.60234  0.21414  1.0000
  C   C1358     1.0  0.38980  0.31645  0.41741  1.0000
  C   C1359     1.0  0.33905  0.34603  0.20442  1.0000
  C   C1360     1.0  0.27257  0.60582  0.01182  1.0000
  C   C1361     1.0  0.41996  0.34531  0.33372  1.0000
  H   H1065     1.0  0.33364  0.60132  0.29881  1.0000
  H   H1066     1.0  0.24323  0.61589  0.39987  1.0000
  H   H1067     1.0  0.41588  0.37808  0.36759  1.0000
  H   H1068     1.0  0.35506  0.61700  0.10198  1.0000
  H   H1069     1.0  0.34924  0.60323  0.16308  1.0000
  H   H1070     1.0  0.38794  0.60874  0.20414  1.0000
  H   H1071     1.0  0.41032  0.60460  0.23396  1.0000
  H   H1072     1.0  0.40761  0.59573  0.29868  1.0000
  H   H1073     1.0  0.38224  0.59143  0.33407  1.0000
  H   H1074     1.0  0.35917  0.59711  0.30565  1.0000
  C   C1362     1.0  0.37032  0.63464  0.32218  1.0000
  C   C1363     1.0  0.25482  0.63843  0.24397  1.0000
  H   H1075     1.0  0.32814  0.63539  0.37636  1.0000
  C   C1364     1.0  0.35656  0.36331  0.49006  1.0000
  H   H1076     1.0  0.26424  0.52795  0.27819  1.0000
  H   H1077     1.0  0.43437  0.38407  0.44453  1.0000
  C   C1365     1.0  0.35544  0.50377  0.48105  1.0000
  H   H1078     1.0  0.37984  0.52844  0.46701  1.0000
  H   H1079     1.0  0.27865  0.56896  0.05161  1.0000
  H   H1080     1.0  0.32548  0.41316  0.41911  1.0000
  S   S190      1.0  0.24109  0.62038  0.21537  1.0000
  C   C1366     1.0  0.32941  0.40753  0.47306  1.0000
  H   H1081     1.0  0.40654  0.35560  0.23369  1.0000
  H   H1082     1.0  0.34706  0.59348  0.46560  1.0000
  C   C1367     1.0  0.28028  0.47189  0.39675  1.0000
  C   C1368     1.0  0.38102  0.34322  0.45574  1.0000
  C   C1369     1.0  0.32088  0.64485  0.26116  1.0000
  H   H1083     1.0  0.28469  0.48513  0.43207  1.0000
  S   S191      1.0  0.26164  0.60989  0.05304  1.0000
  H   H1084     1.0  0.38374  0.32719  0.32289  1.0000
  C   C1370     1.0  0.41517  0.36632  0.36658  1.0000
  H   H1085     1.0  0.42625  0.36757  0.31184  1.0000
  H   H1086     1.0  0.24169  0.56817  0.99922  1.0000
  C   C1371     1.0  0.38996  0.53129  0.47308  1.0000
  C   C1372     1.0  0.47783  0.61538  0.25945  1.0000
  C   C1373     1.0  0.35205  0.32035  0.22905  1.0000
  H   H1087     1.0  0.27369  0.50226  0.31160  1.0000
  C   C1374     1.0  0.28720  0.48270  0.40534  1.0000
  H   H1088     1.0  0.45395  0.64498  0.39909  1.0000
  H   H1089     1.0  0.41635  0.52347  0.02520  1.0000
  H   H1090     1.0  0.31144  0.61713  0.33143  1.0000
  H   H1091     1.0  0.37298  0.32020  0.24863  1.0000
  C   C1375     1.0  0.41770  0.33167  0.24396  1.0000
  C   C1376     1.0  0.37159  0.35513  0.43606  1.0000
  H   H1092     1.0  0.31511  0.45646  0.40894  1.0000
  C   C1377     1.0  0.32508  0.60795  0.48154  1.0000
  H   H1093     1.0  0.47657  0.61327  0.38292  1.0000
  C   C1378     1.0  0.41289  0.33613  0.36344  1.0000
  H   H1094     1.0  0.33047  0.32539  0.20866  1.0000
  H   H1095     1.0  0.39892  0.44863  0.46338  1.0000
  H   H1096     1.0  0.36815  0.63965  0.08890  1.0000
  H   H1097     1.0  0.27237  0.53389  0.21315  1.0000
  H   H1098     1.0  0.38448  0.47004  0.42481  1.0000
  H   H1099     1.0  0.42951  0.51653  0.07748  1.0000
  C   C1379     1.0  0.33380  0.45460  0.43674  1.0000
  C   C1380     1.0  0.35937  0.36510  0.45322  1.0000
  C   C1381     1.0  0.37522  0.45476  0.40308  1.0000
  C   C1382     1.0  0.24107  0.63485  0.23950  1.0000
  C   C1383     1.0  0.28765  0.49318  0.26542  1.0000
  H   H1100     1.0  0.31916  0.49451  0.26792  1.0000
  Fe  Fe96      1.0  0.45523  0.59786  0.35220  1.0000
  C   C1384     1.0  0.31301  0.63815  0.29338  1.0000
  C   C1385     1.0  0.44631  0.61933  0.45530  1.0000
  H   H1101     1.0  0.34970  0.36512  0.20508  1.0000
  H   H1102     1.0  0.30565  0.32457  0.31929  1.0000
  C   C1386     1.0  0.31283  0.62370  0.00807  1.0000
  H   H1103     1.0  0.39914  0.42206  0.35909  1.0000
  P   P45       1.0  0.39691  0.33055  0.43316  1.0000
  C   C1387     1.0  0.32477  0.48309  0.26254  1.0000
  H   H1104     1.0  0.29025  0.51403  0.18136  1.0000
  H   H1105     1.0  0.39522  0.39539  0.28395  1.0000
  P   P46       1.0  0.38096  0.40761  0.42493  1.0000
  C   C1388     1.0  0.32395  0.45646  0.26148  1.0000
  H   H1106     1.0  0.30012  0.48813  0.21425  1.0000
  C   C1389     1.0  0.40800  0.35720  0.39631  1.0000
  C   C1390     1.0  0.39465  0.41284  0.35336  1.0000
  C   C1391     1.0  0.38406  0.45807  0.42471  1.0000
  C   C1392     1.0  0.28677  0.45940  0.28569  1.0000
  H   H1107     1.0  0.40529  0.41652  0.29828  1.0000
  C   C1393     1.0  0.39827  0.40967  0.31884  1.0000
  C   C1394     1.0  0.38515  0.40429  0.37985  1.0000
  C   C1395     1.0  0.38258  0.42722  0.42486  1.0000
  C   C1396     1.0  0.31639  0.47101  0.27031  1.0000
  C   C1397     1.0  0.28648  0.51121  0.20971  1.0000
  H   H1108     1.0  0.31802  0.44682  0.26668  1.0000
  H   H1109     1.0  0.27233  0.46589  0.41685  1.0000
  C   C1398     1.0  0.30050  0.48758  0.34471  1.0000
  H   H1110     1.0  0.23579  0.32267  0.05118  1.0000
  C   C1399     1.0  0.45547  0.55356  0.39885  1.0000
  C   C1400     1.0  0.27482  0.56661  0.02925  1.0000
  C   C1401     1.0  0.42223  0.38328  0.45274  1.0000
  C   C1402     1.0  0.29209  0.49662  0.22847  1.0000
  C   C1403     1.0  0.39260  0.39784  0.31069  1.0000
  C   C1404     1.0  0.37979  0.39226  0.37156  1.0000
  C   C1405     1.0  0.38342  0.38914  0.33711  1.0000
  H   H1111     1.0  0.32305  0.61231  0.45469  1.0000
  H   H1112     1.0  0.26832  0.42570  0.27546  1.0000
  C   C1406     1.0  0.45679  0.61599  0.47881  1.0000
  C   C1407     1.0  0.35052  0.35264  0.21107  1.0000
  S   S192      1.0  0.27202  0.62458  0.12929  1.0000
  H   H1113     1.0  0.37907  0.37996  0.33086  1.0000
  H   H1114     1.0  0.27239  0.47368  0.24842  1.0000
  H   H1115     1.0  0.23658  0.63625  0.05728  1.0000
  P   P47       1.0  0.29600  0.47473  0.28968  1.0000
  H   H1116     1.0  0.37954  0.62660  0.33399  1.0000
  H   H1117     1.0  0.45212  0.55893  0.37342  1.0000
  H   H1118     1.0  0.34239  0.45539  0.41279  1.0000
  H   H1119     1.0  0.42440  0.34073  0.30931  1.0000
  C   C1408     1.0  0.27179  0.51908  0.26430  1.0000
  C   C1409     1.0  0.39518  0.39352  0.44732  1.0000
  C   C1410     1.0  0.39126  0.43057  0.44706  1.0000
  C   C1411     1.0  0.40670  0.34206  0.39495  1.0000
  C   C1412     1.0  0.31781  0.62250  0.30700  1.0000
  C   C1413     1.0  0.46739  0.57655  0.47574  1.0000
  H   H1120     1.0  0.30238  0.49921  0.38571  1.0000
  C   C1414     1.0  0.29081  0.44433  0.30464  1.0000
  C   C1415     1.0  0.41785  0.52892  0.46397  1.0000
  H   H1121     1.0  0.42237  0.57366  0.46366  1.0000
  H   H1122     1.0  0.28770  0.42061  0.31517  1.0000
  C   C1416     1.0  0.28328  0.46906  0.36201  1.0000
  C   C1417     1.0  0.26911  0.45011  0.25976  1.0000
  H   H1123     1.0  0.27725  0.46112  0.35590  1.0000
  C   C1418     1.0  0.37149  0.63735  0.28543  1.0000
  C   C1419     1.0  0.27580  0.46221  0.26328  1.0000
  H   H1124     1.0  0.40603  0.51820  0.43622  1.0000
  H   H1125     1.0  0.29637  0.34720  0.21604  1.0000
  C   C1420     1.0  0.27336  0.43513  0.27845  1.0000
  C   C1421     1.0  0.27731  0.50449  0.28317  1.0000
  C   C1422     1.0  0.36283  0.34318  0.22640  1.0000
  C   C1423     1.0  0.39374  0.34291  0.27892  1.0000
  H   H1126     1.0  0.46839  0.60984  0.47095  1.0000
  C   C1424     1.0  0.41095  0.39440  0.43681  1.0000
  H   H1127     1.0  0.37357  0.35658  0.40743  1.0000
  C   C1425     1.0  0.46398  0.54015  0.46468  1.0000
  C   C1426     1.0  0.41037  0.52714  0.04996  1.0000
  H   H1128     1.0  0.42501  0.33813  0.44701  1.0000
  P   P48       1.0  0.35718  0.64093  0.38985  1.0000
  C   C1427     1.0  0.42264  0.32767  0.46500  1.0000
  H   H1129     1.0  0.37360  0.63009  0.45051  1.0000
  C   C1428     1.0  0.30848  0.63212  0.03580  1.0000
  H   H1130     1.0  0.38149  0.63145  0.26938  1.0000
  H   H1131     1.0  0.23667  0.62510  0.12066  1.0000
  H   H1132     1.0  0.26070  0.45231  0.24235  1.0000
  H   H1133     1.0  0.45700  0.63170  0.24935  1.0000
  C   C1429     1.0  0.28840  0.59936  0.00785  1.0000
  H   H1134     1.0  0.29054  0.63526  0.18443  1.0000
  C   C1430     1.0  0.40225  0.36999  0.48923  1.0000
  C   C1431     1.0  0.46824  0.63003  0.25702  1.0000
  C   C1432     1.0  0.29903  0.64272  0.17657  1.0000
  C   C1433     1.0  0.40914  0.64570  0.25832  1.0000
  C   C1434     1.0  0.47289  0.64238  0.26572  1.0000
  H   H1135     1.0  0.30296  0.64504  0.30725  1.0000
  C   C1435     1.0  0.37492  0.31998  0.40850  1.0000
  H   H1136     1.0  0.45642  0.57549  0.47025  1.0000
  C   C1436     1.0  0.30713  0.45469  0.46516  1.0000
  H   H1137     1.0  0.31729  0.40766  0.48439  1.0000
  H   H1138     1.0  0.38636  0.60415  0.47687  1.0000
  H   H1139     1.0  0.29516  0.45521  0.46341  1.0000
  H   H1140     1.0  0.30102  0.64094  0.40704  1.0000
  H   H1141     1.0  0.38980  0.64094  0.39163  1.0000
  H   H1142     1.0  0.33370  0.64547  0.12316  1.0000
  C   C1437     1.0  0.33742  0.64420  0.41304  1.0000
  H   H1143     1.0  0.29796  0.56007  0.00115  1.0000
  C   C1438     1.0  0.35781  0.64290  0.34297  1.0000
  C   C1439     1.0  0.31017  0.64355  0.41754  1.0000
  C   C1440     1.0  0.41619  0.53852  0.48901  1.0000
  C   C1441     1.0  0.42343  0.57463  0.48999  1.0000
  Fe  Fe97      1.0  0.29004  0.60324  0.85394  1.0000
  S   S193      1.0  0.28325  0.62863  0.83345  1.0000
  Fe  Fe98      1.0  0.28616  0.59425  0.78624  1.0000
  S   S194      1.0  0.27867  0.61896  0.76043  1.0000
  S   S195      1.0  0.28713  0.57487  0.75706  1.0000
  Fe  Fe99      1.0  0.29792  0.62361  0.78204  1.0000
  S   S196      1.0  0.31481  0.63813  0.74859  1.0000
  Fe  Fe100     1.0  0.26441  0.62209  0.81354  1.0000
  S   S197      1.0  0.30656  0.59873  0.80382  1.0000
  S   S198      1.0  0.27009  0.59689  0.83794  1.0000
  S   S199      1.0  0.46389  0.59269  0.63508  1.0000
  H   H1144     1.0  0.30583  0.33558  0.69346  1.0000
  H   H1145     1.0  0.46431  0.51805  0.59511  1.0000
  Fe  Fe101     1.0  0.35928  0.51541  0.68891  1.0000
  S   S200      1.0  0.38234  0.49883  0.68666  1.0000
  S   S201      1.0  0.34747  0.52228  0.74183  1.0000
  Fe  Fe102     1.0  0.36196  0.52197  0.60905  1.0000
  S   S202      1.0  0.38533  0.50657  0.60120  1.0000
  S   S203      1.0  0.35103  0.53507  0.56183  1.0000
  Fe  Fe103     1.0  0.37458  0.48958  0.64546  1.0000
  S   S204      1.0  0.38034  0.46452  0.63508  1.0000
  Fe  Fe104     1.0  0.39065  0.51729  0.64277  1.0000
  S   S205      1.0  0.41373  0.52493  0.63564  1.0000
  S   S206      1.0  0.35081  0.50471  0.65142  1.0000
  S   S207      1.0  0.36810  0.53411  0.64702  1.0000
  Fe  Fe105     1.0  0.33542  0.35488  0.67705  1.0000
  S   S208      1.0  0.35671  0.36530  0.67033  1.0000
  H   H1146     1.0  0.36715  0.48598  0.51776  1.0000
  Fe  Fe106     1.0  0.32860  0.37205  0.60422  1.0000
  S   S209      1.0  0.34888  0.38409  0.59266  1.0000
  S   S210      1.0  0.31327  0.37745  0.56253  1.0000
  Fe  Fe107     1.0  0.36174  0.36071  0.61467  1.0000
  Fe  Fe108     1.0  0.34236  0.38806  0.64896  1.0000
  S   S211      1.0  0.34022  0.41087  0.66867  1.0000
  S   S212      1.0  0.34188  0.34837  0.62267  1.0000
  S   S213      1.0  0.32065  0.37793  0.65909  1.0000
  Fe  Fe109     1.0  0.44319  0.63249  0.66131  1.0000
  S   S214      1.0  0.44803  0.61093  0.70162  1.0000
  H   H1147     1.0  0.45285  0.34937  0.75767  1.0000
  Fe  Fe110     1.0  0.45806  0.61553  0.59929  1.0000
  S   S215      1.0  0.46607  0.61610  0.54055  1.0000
  Fe  Fe111     1.0  0.43987  0.59915  0.66556  1.0000
  S   S216      1.0  0.42007  0.58586  0.68511  1.0000
  H   H1148     1.0  0.24397  0.56388  0.87040  1.0000
  S   S217      1.0  0.43361  0.62111  0.62742  1.0000
  S   S218      1.0  0.46735  0.62905  0.62918  1.0000
  C   C1442     1.0  0.41516  0.54231  0.64808  1.0000
  C   C1443     1.0  0.42979  0.54639  0.64264  1.0000
  C   C1444     1.0  0.43143  0.55999  0.65270  1.0000
  C   C1445     1.0  0.41844  0.56951  0.66881  1.0000
  C   C1446     1.0  0.40379  0.56552  0.67394  1.0000
  C   C1447     1.0  0.40213  0.55201  0.66356  1.0000
  H   H1149     1.0  0.43993  0.53891  0.63090  1.0000
  H   H1150     1.0  0.44278  0.56289  0.64889  1.0000
  H   H1151     1.0  0.39370  0.57277  0.68655  1.0000
  H   H1152     1.0  0.39083  0.54894  0.66827  1.0000
  C   C1448     1.0  0.36863  0.45009  0.64363  1.0000
  C   C1449     1.0  0.37439  0.43655  0.62863  1.0000
  C   C1450     1.0  0.36577  0.42459  0.63538  1.0000
  C   C1451     1.0  0.35130  0.42592  0.65759  1.0000
  C   C1452     1.0  0.34552  0.43947  0.67257  1.0000
  C   C1453     1.0  0.35407  0.45151  0.66555  1.0000
  H   H1153     1.0  0.38564  0.43529  0.61174  1.0000
  H   H1154     1.0  0.37038  0.41431  0.62366  1.0000
  H   H1155     1.0  0.33436  0.44063  0.68990  1.0000
  H   H1156     1.0  0.34949  0.46178  0.67748  1.0000
  C   C1454     1.0  0.40128  0.54432  0.50625  1.0000
  C   C1455     1.0  0.45226  0.62027  0.51234  1.0000
  C   C1456     1.0  0.35296  0.52317  0.53033  1.0000
  C   C1457     1.0  0.36027  0.50762  0.53680  1.0000
  H   H1157     1.0  0.43348  0.63154  0.54785  1.0000
  C   C1458     1.0  0.37444  0.31693  0.66296  1.0000
  H   H1158     1.0  0.36457  0.50279  0.56123  1.0000
  H   H1159     1.0  0.39555  0.42051  0.54172  1.0000
  H   H1160     1.0  0.32841  0.34523  0.55895  1.0000
  H   H1161     1.0  0.23762  0.32004  0.98927  1.0000
  H   H1162     1.0  0.30200  0.62748  0.69449  1.0000
  H   H1163     1.0  0.42657  0.36245  0.49145  1.0000
  H   H1164     1.0  0.40928  0.60535  0.81695  1.0000
  S   S219      1.0  0.32986  0.33864  0.72991  1.0000
  H   H1165     1.0  0.33493  0.33042  0.50918  1.0000
  H   H1166     1.0  0.28944  0.55539  0.94964  1.0000
  P   P49       1.0  0.43307  0.54253  0.50077  1.0000
  P   P50       1.0  0.25805  0.55782  0.93345  1.0000
  C   C1459     1.0  0.40014  0.34305  0.60359  1.0000
  C   C1460     1.0  0.39922  0.34382  0.63918  1.0000
  H   H1167     1.0  0.43587  0.31997  0.58954  1.0000
  H   H1168     1.0  0.43030  0.55287  0.56952  1.0000
  C   C1461     1.0  0.24690  0.57519  0.91134  1.0000
  C   C1462     1.0  0.45572  0.51675  0.58097  1.0000
  H   H1169     1.0  0.38897  0.35026  0.65322  1.0000
  H   H1170     1.0  0.42306  0.63274  0.73533  1.0000
  H   H1171     1.0  0.39886  0.36043  0.50932  1.0000
  C   C1463     1.0  0.30436  0.56091  0.75104  1.0000
  C   C1464     1.0  0.30439  0.54808  0.73604  1.0000
  C   C1465     1.0  0.31769  0.53637  0.73241  1.0000
  C   C1466     1.0  0.33116  0.53754  0.74320  1.0000
  C   C1467     1.0  0.33111  0.55035  0.75833  1.0000
  C   C1468     1.0  0.31784  0.56210  0.76182  1.0000
  H   H1172     1.0  0.29396  0.54701  0.72794  1.0000
  H   H1173     1.0  0.31738  0.52622  0.72215  1.0000
  H   H1174     1.0  0.34127  0.55116  0.76777  1.0000
  H   H1175     1.0  0.31801  0.57188  0.77337  1.0000
  H   H1176     1.0  0.31738  0.48177  0.51493  1.0000
  H   H1177     1.0  0.24280  0.62137  0.76301  1.0000
  C   C1469     1.0  0.28599  0.53241  0.86025  1.0000
  H   H1178     1.0  0.39973  0.55142  0.52622  1.0000
  H   H1179     1.0  0.26750  0.60841  0.92665  1.0000
  C   C1470     1.0  0.28904  0.59895  0.94552  1.0000
  H   H1180     1.0  0.28649  0.52169  0.85124  1.0000
  H   H1181     1.0  0.47429  0.31482  0.50109  1.0000
  C   C1471     1.0  0.46924  0.57582  0.51049  1.0000
  C   C1472     1.0  0.40753  0.64529  0.77417  1.0000
  H   H1182     1.0  0.32387  0.32317  0.64549  1.0000
  C   C1473     1.0  0.30425  0.32870  0.71966  1.0000
  H   H1183     1.0  0.29817  0.31555  0.86623  1.0000
  H   H1184     1.0  0.26598  0.52966  0.90009  1.0000
  C   C1474     1.0  0.48111  0.32921  0.56846  1.0000
  H   H1185     1.0  0.30548  0.53849  0.82112  1.0000
  H   H1186     1.0  0.28765  0.33934  0.58404  1.0000
  C   C1475     1.0  0.25244  0.64612  0.95245  1.0000
  C   C1476     1.0  0.33428  0.64559  0.84765  1.0000
  C   C1477     1.0  0.25268  0.52914  0.97148  1.0000
  H   H1187     1.0  0.35507  0.53161  0.89028  1.0000
  H   H1188     1.0  0.34716  0.37109  0.50330  1.0000
  H   H1189     1.0  0.45622  0.53872  0.54655  1.0000
  C   C1478     1.0  0.24615  0.54337  0.95247  1.0000
  H   H1190     1.0  0.37607  0.64062  0.66611  1.0000
  C   C1479     1.0  0.29672  0.54187  0.84324  1.0000
  C   C1480     1.0  0.27333  0.60583  0.94921  1.0000
  H   H1191     1.0  0.30339  0.54936  0.58288  1.0000
  C   C1481     1.0  0.43736  0.50221  0.57386  1.0000
  H   H1192     1.0  0.43164  0.49231  0.58264  1.0000
  H   H1193     1.0  0.30536  0.43141  0.66443  1.0000
  H   H1194     1.0  0.41972  0.60232  0.53994  1.0000
  C   C1482     1.0  0.42476  0.32734  0.63903  1.0000
  C   C1483     1.0  0.37425  0.63228  0.75521  1.0000
  C   C1484     1.0  0.37642  0.62994  0.72031  1.0000
  H   H1195     1.0  0.35360  0.31848  0.54652  1.0000
  C   C1485     1.0  0.30499  0.33211  0.61754  1.0000
  C   C1486     1.0  0.37795  0.34140  0.49291  1.0000
  C   C1487     1.0  0.36570  0.35138  0.50990  1.0000
  C   C1488     1.0  0.28076  0.55915  0.97133  1.0000
  H   H1196     1.0  0.41483  0.63770  0.50575  1.0000
  H   H1197     1.0  0.29976  0.62624  0.89925  1.0000
  H   H1198     1.0  0.40655  0.63499  0.79402  1.0000
  H   H1199     1.0  0.28384  0.57139  0.89010  1.0000
  C   C1489     1.0  0.30632  0.41650  0.59133  1.0000
  C   C1490     1.0  0.45110  0.52843  0.55334  1.0000
  H   H1200     1.0  0.37571  0.62247  0.77653  1.0000
  H   H1201     1.0  0.37965  0.61826  0.71443  1.0000
  C   C1491     1.0  0.37456  0.64269  0.69290  1.0000
  H   H1202     1.0  0.45198  0.49488  0.61351  1.0000
  H   H1203     1.0  0.24453  0.64276  0.97647  1.0000
  C   C1492     1.0  0.29217  0.32015  0.73053  1.0000
  C   C1493     1.0  0.42569  0.32663  0.60339  1.0000
  C   C1494     1.0  0.30934  0.63063  0.97454  1.0000
  C   C1495     1.0  0.31859  0.32171  0.62458  1.0000
  C   C1496     1.0  0.36033  0.59490  0.60567  1.0000
  C   C1497     1.0  0.35361  0.58375  0.59732  1.0000
  C   C1498     1.0  0.36317  0.56982  0.58903  1.0000
  P   P51       1.0  0.33309  0.58744  0.59575  1.0000
  C   C1499     1.0  0.32623  0.56928  0.60769  1.0000
  C   C1500     1.0  0.32259  0.60016  0.62662  1.0000
  C   C1501     1.0  0.31490  0.59417  0.66017  1.0000
  C   C1502     1.0  0.30743  0.60404  0.68434  1.0000
  C   C1503     1.0  0.30753  0.61994  0.67535  1.0000
  H   H1204     1.0  0.31915  0.31951  0.79560  1.0000
  C   C1504     1.0  0.32248  0.61621  0.61763  1.0000
  C   C1505     1.0  0.31591  0.56616  0.58901  1.0000
  C   C1506     1.0  0.31106  0.55187  0.59782  1.0000
  C   C1507     1.0  0.31648  0.54060  0.62521  1.0000
  C   C1508     1.0  0.32667  0.54368  0.64394  1.0000
  C   C1509     1.0  0.33141  0.55798  0.63555  1.0000
  C   C1510     1.0  0.33026  0.59606  0.55109  1.0000
  C   C1511     1.0  0.34127  0.59143  0.52223  1.0000
  H   H1205     1.0  0.30874  0.59050  0.97212  1.0000
  H   H1206     1.0  0.31516  0.63835  0.63524  1.0000
  C   C1512     1.0  0.31399  0.61251  0.51012  1.0000
  C   C1513     1.0  0.31649  0.60651  0.54482  1.0000
  H   H1207     1.0  0.38124  0.60021  0.61490  1.0000
  C   C1514     1.0  0.31070  0.64607  0.89181  1.0000
  C   C1515     1.0  0.35130  0.32118  0.84858  1.0000
  H   H1208     1.0  0.35343  0.60584  0.61160  1.0000
  H   H1209     1.0  0.35841  0.56114  0.58177  1.0000
  H   H1210     1.0  0.31470  0.58190  0.66826  1.0000
  H   H1211     1.0  0.30172  0.59926  0.71032  1.0000
  H   H1212     1.0  0.30731  0.38503  0.49128  1.0000
  C   C1516     1.0  0.31500  0.62603  0.64195  1.0000
  H   H1213     1.0  0.32841  0.62107  0.59204  1.0000
  H   H1214     1.0  0.31177  0.57457  0.56730  1.0000
  S   S220      1.0  0.29944  0.59349  0.90514  1.0000
  H   H1215     1.0  0.31306  0.52938  0.63155  1.0000
  H   H1216     1.0  0.33119  0.53484  0.66453  1.0000
  H   H1217     1.0  0.33929  0.56007  0.65053  1.0000
  H   H1218     1.0  0.35170  0.58293  0.52630  1.0000
  H   H1219     1.0  0.23692  0.64583  0.91768  1.0000
  H   H1220     1.0  0.30247  0.40734  0.58351  1.0000
  H   H1221     1.0  0.30329  0.62042  0.50544  1.0000
  H   H1222     1.0  0.30753  0.60971  0.56669  1.0000
  H   H1223     1.0  0.34108  0.62597  0.82066  1.0000
  S   S221      1.0  0.44001  0.31750  0.66157  1.0000
  C   C1517     1.0  0.26486  0.56161  0.97027  1.0000
  C   C1518     1.0  0.29591  0.55587  0.85417  1.0000
  C   C1519     1.0  0.31769  0.36628  0.52840  1.0000
  C   C1520     1.0  0.43273  0.51384  0.54616  1.0000
  C   C1521     1.0  0.39361  0.58929  0.83791  1.0000
  H   H1224     1.0  0.42608  0.57886  0.58463  1.0000
  H   H1225     1.0  0.37516  0.40460  0.55348  1.0000
  C   C1522     1.0  0.38542  0.57774  0.60009  1.0000
  C   C1523     1.0  0.29792  0.33095  0.59010  1.0000
  H   H1226     1.0  0.42825  0.38499  0.64268  1.0000
  C   C1524     1.0  0.30775  0.43019  0.63682  1.0000
  H   H1227     1.0  0.37817  0.57307  0.85125  1.0000
  C   C1525     1.0  0.32541  0.35077  0.53342  1.0000
  C   C1526     1.0  0.29657  0.59582  0.97485  1.0000
  C   C1527     1.0  0.44299  0.35655  0.74657  1.0000
  C   C1528     1.0  0.37209  0.41711  0.54807  1.0000
  C   C1529     1.0  0.38356  0.42607  0.54111  1.0000
  H   H1228     1.0  0.30240  0.45326  0.52154  1.0000
  C   C1530     1.0  0.36401  0.44942  0.53318  1.0000
  C   C1531     1.0  0.35234  0.44051  0.54202  1.0000
  C   C1532     1.0  0.35651  0.42429  0.54904  1.0000
  P   P52       1.0  0.33224  0.44989  0.54359  1.0000
  C   C1533     1.0  0.33005  0.46853  0.55639  1.0000
  C   C1534     1.0  0.37950  0.44225  0.53374  1.0000
  C   C1535     1.0  0.32922  0.34242  0.50522  1.0000
  C   C1536     1.0  0.30932  0.63179  0.88493  1.0000
  H   H1229     1.0  0.39356  0.58977  0.86527  1.0000
  C   C1537     1.0  0.36153  0.49799  0.51226  1.0000
  H   H1230     1.0  0.34831  0.33124  0.86151  1.0000
  C   C1538     1.0  0.33697  0.46961  0.58438  1.0000
  C   C1539     1.0  0.33575  0.48396  0.59409  1.0000
  C   C1540     1.0  0.32779  0.49743  0.57564  1.0000
  C   C1541     1.0  0.32117  0.49653  0.54719  1.0000
  C   C1542     1.0  0.32226  0.48214  0.53758  1.0000
  C   C1543     1.0  0.32036  0.43788  0.57622  1.0000
  C   C1544     1.0  0.31518  0.42607  0.56628  1.0000
  C   C1545     1.0  0.24150  0.57461  0.88070  1.0000
  C   C1546     1.0  0.31660  0.43981  0.61184  1.0000
  H   H1231     1.0  0.30396  0.56339  0.84030  1.0000
  Fe  Fe112     1.0  0.47168  0.60668  0.66725  1.0000
  C   C1547     1.0  0.41152  0.33595  0.65689  1.0000
  H   H1232     1.0  0.34774  0.41718  0.55576  1.0000
  C   C1548     1.0  0.42041  0.38267  0.59650  1.0000
  H   H1233     1.0  0.41413  0.33388  0.55815  1.0000
  H   H1234     1.0  0.37166  0.34584  0.76535  1.0000
  H   H1235     1.0  0.31907  0.61355  0.85430  1.0000
  H   H1236     1.0  0.39132  0.31507  0.61539  1.0000
  H   H1237     1.0  0.34356  0.45937  0.59837  1.0000
  H   H1238     1.0  0.34138  0.48459  0.61533  1.0000
  H   H1239     1.0  0.32734  0.50862  0.58245  1.0000
  H   H1240     1.0  0.46027  0.32666  0.55340  1.0000
  C   C1549     1.0  0.42781  0.56129  0.51455  1.0000
  H   H1241     1.0  0.31805  0.42414  0.53922  1.0000
  H   H1242     1.0  0.43189  0.38156  0.58052  1.0000
  H   H1243     1.0  0.32069  0.44841  0.62088  1.0000
  C   C1550     1.0  0.37097  0.35806  0.75435  1.0000
  C   C1551     1.0  0.35652  0.36805  0.75583  1.0000
  C   C1552     1.0  0.35556  0.38372  0.74058  1.0000
  C   C1553     1.0  0.36901  0.38943  0.72382  1.0000
  C   C1554     1.0  0.38362  0.37956  0.72278  1.0000
  C   C1555     1.0  0.38448  0.36376  0.73777  1.0000
  P   P53       1.0  0.40088  0.38681  0.69925  1.0000
  C   C1556     1.0  0.41748  0.37515  0.71764  1.0000
  C   C1557     1.0  0.40350  0.38549  0.65302  1.0000
  C   C1558     1.0  0.41831  0.38452  0.63181  1.0000
  H   H1244     1.0  0.31562  0.50706  0.53189  1.0000
  C   C1559     1.0  0.40773  0.38192  0.58210  1.0000
  C   C1560     1.0  0.39295  0.38330  0.60282  1.0000
  C   C1561     1.0  0.39080  0.38518  0.63801  1.0000
  C   C1562     1.0  0.42259  0.37950  0.74479  1.0000
  C   C1563     1.0  0.43533  0.37024  0.75912  1.0000
  C   C1564     1.0  0.42525  0.36137  0.70528  1.0000
  C   C1565     1.0  0.39891  0.40682  0.70368  1.0000
  C   C1566     1.0  0.39089  0.41199  0.73517  1.0000
  C   C1567     1.0  0.38871  0.42764  0.73796  1.0000
  C   C1568     1.0  0.39473  0.43817  0.70958  1.0000
  C   C1569     1.0  0.40308  0.43304  0.67859  1.0000
  C   C1570     1.0  0.40512  0.41746  0.67551  1.0000
  C   C1571     1.0  0.30265  0.41852  0.62662  1.0000
  H   H1245     1.0  0.34600  0.36358  0.76766  1.0000
  H   H1246     1.0  0.34432  0.39138  0.74054  1.0000
  H   H1247     1.0  0.36789  0.40149  0.71093  1.0000
  H   H1248     1.0  0.39549  0.35576  0.73626  1.0000
  H   H1249     1.0  0.38493  0.33237  0.50902  1.0000
  H   H1250     1.0  0.40933  0.38004  0.55511  1.0000
  H   H1251     1.0  0.38316  0.38239  0.59204  1.0000
  H   H1252     1.0  0.37921  0.38623  0.65341  1.0000
  H   H1253     1.0  0.41679  0.39000  0.75500  1.0000
  H   H1254     1.0  0.43925  0.37366  0.78001  1.0000
  H   H1255     1.0  0.42153  0.35773  0.68447  1.0000
  H   H1256     1.0  0.38604  0.40401  0.75733  1.0000
  H   H1257     1.0  0.38211  0.43169  0.76183  1.0000
  H   H1258     1.0  0.39264  0.45041  0.71115  1.0000
  H   H1259     1.0  0.40744  0.44133  0.65638  1.0000
  H   H1260     1.0  0.41122  0.41392  0.65081  1.0000
  H   H1261     1.0  0.45964  0.57427  0.53208  1.0000
  C   C1572     1.0  0.44881  0.50367  0.59131  1.0000
  H   H1262     1.0  0.32927  0.54861  0.90313  1.0000
  C   C1573     1.0  0.43955  0.52711  0.53562  1.0000
  C   C1574     1.0  0.42539  0.57767  0.55813  1.0000
  H   H1263     1.0  0.42355  0.51252  0.53385  1.0000
  C   C1575     1.0  0.43793  0.35211  0.71967  1.0000
  C   C1576     1.0  0.27364  0.55097  0.89957  1.0000
  H   H1264     1.0  0.26476  0.52683  0.97441  1.0000
  H   H1265     1.0  0.31261  0.62374  0.95374  1.0000
  C   C1577     1.0  0.43706  0.62811  0.52212  1.0000
  C   C1578     1.0  0.33275  0.63144  0.84081  1.0000
  H   H1266     1.0  0.30013  0.34139  0.63270  1.0000
  H   H1267     1.0  0.36110  0.46193  0.52648  1.0000
  C   C1579     1.0  0.27442  0.53696  0.88817  1.0000
  C   C1580     1.0  0.31413  0.32847  0.74289  1.0000
  H   H1268     1.0  0.34420  0.33401  0.79964  1.0000
  C   C1581     1.0  0.47279  0.32518  0.54665  1.0000
  C   C1582     1.0  0.37615  0.59182  0.60738  1.0000
  C   C1583     1.0  0.40245  0.59810  0.81072  1.0000
  C   C1584     1.0  0.40254  0.59752  0.77542  1.0000
  C   C1585     1.0  0.39367  0.58827  0.76730  1.0000
  C   C1586     1.0  0.38482  0.57933  0.79439  1.0000
  C   C1587     1.0  0.38488  0.57985  0.82984  1.0000
  P   P54       1.0  0.37346  0.56752  0.78298  1.0000
  C   C1588     1.0  0.36306  0.57965  0.74923  1.0000
  C   C1589     1.0  0.38573  0.55054  0.76707  1.0000
  C   C1590     1.0  0.40185  0.54954  0.75676  1.0000
  C   C1591     1.0  0.41103  0.53668  0.74284  1.0000
  C   C1592     1.0  0.40423  0.52474  0.73904  1.0000
  C   C1593     1.0  0.38828  0.52548  0.74994  1.0000
  C   C1594     1.0  0.37909  0.53825  0.76409  1.0000
  C   C1595     1.0  0.36029  0.57349  0.72172  1.0000
  C   C1596     1.0  0.35194  0.58300  0.69631  1.0000
  C   C1597     1.0  0.34643  0.59873  0.69796  1.0000
  C   C1598     1.0  0.34909  0.60496  0.72524  1.0000
  C   C1599     1.0  0.35738  0.59548  0.75076  1.0000
  C   C1600     1.0  0.35942  0.56154  0.82105  1.0000
  C   C1601     1.0  0.36311  0.54736  0.84377  1.0000
  C   C1602     1.0  0.35224  0.54267  0.87316  1.0000
  C   C1603     1.0  0.33772  0.55220  0.88039  1.0000
  C   C1604     1.0  0.33407  0.56643  0.85828  1.0000
  C   C1605     1.0  0.34482  0.57109  0.82869  1.0000
  C   C1606     1.0  0.30152  0.64614  0.96845  1.0000
  H   H1269     1.0  0.36322  0.34989  0.53855  1.0000
  H   H1270     1.0  0.40951  0.60420  0.75420  1.0000
  H   H1271     1.0  0.39379  0.58799  0.73980  1.0000
  H   H1272     1.0  0.41062  0.33622  0.68466  1.0000
  H   H1273     1.0  0.40739  0.55882  0.75820  1.0000
  H   H1274     1.0  0.42334  0.53630  0.73352  1.0000
  H   H1275     1.0  0.41125  0.51511  0.72681  1.0000
  H   H1276     1.0  0.38292  0.51632  0.74676  1.0000
  H   H1277     1.0  0.36674  0.53863  0.77195  1.0000
  H   H1278     1.0  0.36443  0.56136  0.71975  1.0000
  H   H1279     1.0  0.34969  0.57807  0.67555  1.0000
  H   H1280     1.0  0.33999  0.60611  0.67834  1.0000
  H   H1281     1.0  0.34454  0.61711  0.72689  1.0000
  H   H1282     1.0  0.35915  0.60049  0.77197  1.0000
  H   H1283     1.0  0.37434  0.53987  0.83873  1.0000
  H   H1284     1.0  0.32287  0.57388  0.86408  1.0000
  H   H1285     1.0  0.34161  0.58213  0.81202  1.0000
  C   C1607     1.0  0.42808  0.56290  0.54921  1.0000
  C   C1608     1.0  0.32029  0.62453  0.85952  1.0000
  H   H1286     1.0  0.29610  0.41086  0.64619  1.0000
  C   C1609     1.0  0.42171  0.59090  0.53303  1.0000
  H   H1287     1.0  0.44380  0.34147  0.70989  1.0000
  C   C1610     1.0  0.37898  0.56679  0.59074  1.0000
  S   S222      1.0  0.38446  0.35158  0.58150  1.0000
  C   C1611     1.0  0.41346  0.33459  0.58560  1.0000
  C   C1612     1.0  0.28445  0.56040  0.88223  1.0000
  H   H1288     1.0  0.38617  0.55576  0.58570  1.0000
  C   C1613     1.0  0.34909  0.32278  0.81373  1.0000
  H   H1289     1.0  0.33679  0.40160  0.52361  1.0000
  C   C1614     1.0  0.32689  0.45230  0.50068  1.0000
  C   C1615     1.0  0.34706  0.52913  0.49879  1.0000
  C   C1616     1.0  0.24369  0.51780  0.98679  1.0000
  H   H1290     1.0  0.37674  0.54513  0.51175  1.0000
  C   C1617     1.0  0.48069  0.31855  0.51715  1.0000
  H   H1291     1.0  0.38827  0.44933  0.52870  1.0000
  H   H1292     1.0  0.39757  0.57520  0.60221  1.0000
  C   C1618     1.0  0.31131  0.45344  0.49807  1.0000
  C   C1619     1.0  0.38822  0.54074  0.49821  1.0000
  C   C1620     1.0  0.31369  0.37323  0.49517  1.0000
  H   H1293     1.0  0.35592  0.31662  0.70764  1.0000
  C   C1621     1.0  0.26507  0.60896  0.98243  1.0000
  H   H1294     1.0  0.27066  0.64453  0.69439  1.0000
  H   H1295     1.0  0.48427  0.57704  0.54455  1.0000
  H   H1296     1.0  0.38153  0.32167  0.67536  1.0000
  S   S223      1.0  0.24086  0.63780  0.82077  1.0000
  C   C1622     1.0  0.31166  0.31975  0.77728  1.0000
  C   C1623     1.0  0.41691  0.64400  0.74090  1.0000
  H   H1297     1.0  0.28463  0.32039  0.71226  1.0000
  C   C1624     1.0  0.48331  0.57759  0.51740  1.0000
  H   H1298     1.0  0.29898  0.31859  0.54817  1.0000
  H   H1299     1.0  0.47499  0.33370  0.59222  1.0000
  H   H1300     1.0  0.36428  0.40241  0.49829  1.0000
  H   H1301     1.0  0.27041  0.64624  0.98041  1.0000
  H   H1302     1.0  0.24848  0.59041  0.94600  1.0000
  C   C1625     1.0  0.42657  0.63170  0.49822  1.0000
  H   H1303     1.0  0.34140  0.54118  0.49362  1.0000
  C   C1626     1.0  0.24405  0.58942  0.92325  1.0000
  C   C1627     1.0  0.42049  0.58936  0.49913  1.0000
  C   C1628     1.0  0.34041  0.40430  0.49519  1.0000
  H   H1304     1.0  0.25278  0.61371  0.98545  1.0000
  C   C1629     1.0  0.30433  0.31926  0.56992  1.0000
  C   C1630     1.0  0.35998  0.31411  0.68116  1.0000
  C   C1631     1.0  0.23577  0.60278  0.90501  1.0000
  H   H1305     1.0  0.44192  0.32585  0.49124  1.0000
  C   C1632     1.0  0.36980  0.73510  0.06153  1.0000
  C   C1633     1.0  0.25393  0.74683  0.31659  1.0000
  H   H1306     1.0  0.28292  0.69965  0.13003  1.0000
  C   C1634     1.0  0.29016  0.80534  0.44100  1.0000
  S   S224      1.0  0.33398  0.70431  0.12958  1.0000
  C   C1635     1.0  0.28236  0.73190  0.22856  1.0000
  Fe  Fe113     1.0  0.35780  0.69338  0.20512  1.0000
  S   S225      1.0  0.36634  0.70697  0.15218  1.0000
  S   S226      1.0  0.36930  0.68770  0.25331  1.0000
  Fe  Fe114     1.0  0.34174  0.72013  0.15616  1.0000
  S   S227      1.0  0.33672  0.74573  0.13447  1.0000
  Fe  Fe115     1.0  0.35792  0.69025  0.12907  1.0000
  C   C1636     1.0  0.36709  0.65592  0.39228  1.0000
  S   S228      1.0  0.33379  0.70805  0.21093  1.0000
  C   C1637     1.0  0.25022  0.80635  0.42775  1.0000
  Fe  Fe116     1.0  0.30079  0.79199  0.28052  1.0000
  S   S229      1.0  0.30104  0.77088  0.32238  1.0000
  S   S230      1.0  0.32171  0.79433  0.23831  1.0000
  Fe  Fe117     1.0  0.26748  0.80564  0.30727  1.0000
  Fe  Fe118     1.0  0.28849  0.78701  0.36007  1.0000
  S   S231      1.0  0.29641  0.77826  0.41302  1.0000
  Fe  Fe119     1.0  0.27774  0.77094  0.31153  1.0000
  S   S232      1.0  0.29015  0.80854  0.31874  1.0000
  S   S233      1.0  0.27846  0.79072  0.26598  1.0000
  C   C1638     1.0  0.29462  0.78915  0.44648  1.0000
  H   H1307     1.0  0.28744  0.69840  0.46628  1.0000
  C   C1639     1.0  0.47725  0.69004  0.21186  1.0000
  C   C1640     1.0  0.24228  0.90471  0.06713  1.0000
  C   C1641     1.0  0.29678  0.65616  0.19146  1.0000
  H   H1308     1.0  0.26222  0.82034  0.22923  1.0000
  C   C1642     1.0  0.25149  0.82860  0.22740  1.0000
  S   S234      1.0  0.26491  0.78542  0.35225  1.0000
  H   H1309     1.0  0.32592  0.78702  0.37065  1.0000
  C   C1643     1.0  0.27677  0.71542  0.42613  1.0000
  C   C1644     1.0  0.36432  0.68937  0.03962  1.0000
  H   H1310     1.0  0.27243  0.74108  0.08575  1.0000
  H   H1311     1.0  0.34901  0.70875  0.06033  1.0000
  H   H1312     1.0  0.24615  0.79347  0.26943  1.0000
  C   C1645     1.0  0.32570  0.78045  0.21039  1.0000
  C   C1646     1.0  0.33588  0.78273  0.17822  1.0000
  C   C1647     1.0  0.33904  0.77206  0.15511  1.0000
  C   C1648     1.0  0.33261  0.75864  0.16469  1.0000
  C   C1649     1.0  0.32266  0.75611  0.19725  1.0000
  C   C1650     1.0  0.31889  0.76723  0.21970  1.0000
  H   H1313     1.0  0.34110  0.79295  0.17082  1.0000
  H   H1314     1.0  0.34667  0.77410  0.12994  1.0000
  H   H1315     1.0  0.31756  0.74583  0.20462  1.0000
  H   H1316     1.0  0.31073  0.76559  0.24413  1.0000
  C   C1651     1.0  0.27888  0.71737  0.24487  1.0000
  C   C1652     1.0  0.26644  0.76593  0.08173  1.0000
  C   C1653     1.0  0.28391  0.67614  0.09819  1.0000
  S   S235      1.0  0.30572  0.68219  0.20062  1.0000
  C   C1654     1.0  0.37788  0.72234  0.04590  1.0000
  H   H1317     1.0  0.25234  0.88166  0.25786  1.0000
  H   H1318     1.0  0.40316  0.66154  0.39382  1.0000
  C   C1655     1.0  0.31431  0.68681  0.04414  1.0000
  H   H1319     1.0  0.29399  0.73396  0.22606  1.0000
  H   H1320     1.0  0.28785  0.70813  0.25458  1.0000
  H   H1321     1.0  0.26106  0.70357  0.26185  1.0000
  C   C1656     1.0  0.23650  0.80840  0.41464  1.0000
  C   C1657     1.0  0.39073  0.66578  0.28626  1.0000
  H   H1322     1.0  0.25408  0.66143  0.38173  1.0000
  H   H1323     1.0  0.25879  0.73579  0.14739  1.0000
  H   H1324     1.0  0.27539  0.65647  0.13165  1.0000
  H   H1325     1.0  0.25648  0.74542  0.43408  1.0000
  H   H1326     1.0  0.24060  0.72453  0.24021  1.0000
  H   H1327     1.0  0.25973  0.81169  0.41203  1.0000
  H   H1328     1.0  0.29468  0.65225  0.46198  1.0000
  H   H1329     1.0  0.30172  0.76875  0.48384  1.0000
  H   H1330     1.0  0.40808  0.76456  0.45698  1.0000
  C   C1658     1.0  0.37003  0.68253  0.00918  1.0000
  C   C1659     1.0  0.33494  0.76245  0.37441  1.0000
  C   C1660     1.0  0.30660  0.64990  0.44850  1.0000
  C   C1661     1.0  0.29775  0.78116  0.47975  1.0000
  C   C1662     1.0  0.25419  0.64983  0.26422  1.0000
  H   H1331     1.0  0.35360  0.72997  0.22872  1.0000
  H   H1332     1.0  0.29666  0.73685  0.35628  1.0000
  H   H1333     1.0  0.27391  0.75481  0.20199  1.0000
  C   C1663     1.0  0.40169  0.70834  0.33360  1.0000
  H   H1334     1.0  0.40307  0.69567  0.29174  1.0000
  C   C1664     1.0  0.47092  0.70271  0.22916  1.0000
  H   H1335     1.0  0.24734  0.84891  0.34948  1.0000
  H   H1336     1.0  0.46498  0.65346  0.26496  1.0000
  H   H1337     1.0  0.38303  0.77910  0.48351  1.0000
  C   C1665     1.0  0.29465  0.72852  0.38047  1.0000
  H   H1338     1.0  0.25461  0.83137  0.17046  1.0000
  C   C1666     1.0  0.30702  0.72038  0.39735  1.0000
  H   H1339     1.0  0.26284  0.89141  0.04060  1.0000
  C   C1667     1.0  0.34682  0.65425  0.32633  1.0000
  C   C1668     1.0  0.26763  0.76007  0.47996  1.0000
  H   H1340     1.0  0.38100  0.75857  0.15058  1.0000
  C   C1669     1.0  0.28969  0.70868  0.12087  1.0000
  C   C1670     1.0  0.36089  0.73861  0.22253  1.0000
  H   H1341     1.0  0.32153  0.68608  0.09362  1.0000
  C   C1671     1.0  0.25302  0.69844  0.39075  1.0000
  C   C1672     1.0  0.25060  0.76004  0.15174  1.0000
  C   C1673     1.0  0.24969  0.73272  0.31762  1.0000
  C   C1674     1.0  0.25845  0.74771  0.13398  1.0000
  C   C1675     1.0  0.29919  0.72953  0.13452  1.0000
  H   H1342     1.0  0.38080  0.71111  0.06238  1.0000
  H   H1343     1.0  0.25143  0.71007  0.37562  1.0000
  C   C1676     1.0  0.25824  0.68055  0.44437  1.0000
  C   C1677     1.0  0.24707  0.88252  0.23504  1.0000
  H   H1344     1.0  0.37949  0.71173  0.27152  1.0000
  H   H1345     1.0  0.38746  0.76922  0.19779  1.0000
  H   H1346     1.0  0.26176  0.76554  0.45783  1.0000
  C   C1678     1.0  0.27400  0.66545  0.10859  1.0000
  C   C1679     1.0  0.28240  0.68774  0.06809  1.0000
  H   H1347     1.0  0.24262  0.93999  0.09232  1.0000
  H   H1348     1.0  0.35873  0.76285  0.48902  1.0000
  H   H1349     1.0  0.28524  0.82589  0.46488  1.0000
  C   C1680     1.0  0.25011  0.87926  0.17417  1.0000
  C   C1681     1.0  0.29758  0.71138  0.08581  1.0000
  C   C1682     1.0  0.27128  0.68793  0.04762  1.0000
  C   C1683     1.0  0.23983  0.65790  0.27940  1.0000
  C   C1684     1.0  0.32409  0.68146  0.06934  1.0000
  C   C1685     1.0  0.30437  0.70953  0.42831  1.0000
  H   H1350     1.0  0.39735  0.72321  0.37239  1.0000
  H   H1351     1.0  0.27029  0.73204  0.38037  1.0000
  C   C1686     1.0  0.27963  0.72590  0.39446  1.0000
  H   H1352     1.0  0.26874  0.87325  0.20406  1.0000
  C   C1687     1.0  0.24379  0.97687  0.09723  1.0000
  C   C1688     1.0  0.34810  0.65698  0.28955  1.0000
  H   H1353     1.0  0.28512  0.71495  0.17245  1.0000
  C   C1689     1.0  0.26137  0.67718  0.05814  1.0000
  Fe  Fe120     1.0  0.32818  0.69097  0.18391  1.0000
  S   S236      1.0  0.37096  0.68047  0.07994  1.0000
  H   H1354     1.0  0.26087  0.67816  0.47086  1.0000
  H   H1355     1.0  0.36436  0.73883  0.16646  1.0000
  H   H1356     1.0  0.27053  0.69597  0.02298  1.0000
  C   C1690     1.0  0.38012  0.76061  0.20473  1.0000
  H   H1357     1.0  0.27278  0.76819  0.05496  1.0000
  C   C1691     1.0  0.24799  0.68759  0.20366  1.0000
  H   H1358     1.0  0.38568  0.67101  0.30951  1.0000
  C   C1692     1.0  0.27089  0.74374  0.21530  1.0000
  H   H1359     1.0  0.25522  0.65748  0.09654  1.0000
  H   H1360     1.0  0.33994  0.66609  0.27656  1.0000
  H   H1361     1.0  0.34291  0.65261  0.45565  1.0000
  C   C1693     1.0  0.24286  0.72881  0.43187  1.0000
  C   C1694     1.0  0.36685  0.68315  0.39119  1.0000
  C   C1695     1.0  0.26382  0.71476  0.24858  1.0000
  H   H1362     1.0  0.25857  0.72250  0.31451  1.0000
  C   C1696     1.0  0.25880  0.77828  0.09925  1.0000
  C   C1697     1.0  0.28931  0.70697  0.44255  1.0000
  P   P55       1.0  0.29643  0.70036  0.05327  1.0000
  C   C1698     1.0  0.39082  0.66434  0.39316  1.0000
  C   C1699     1.0  0.39322  0.72054  0.35084  1.0000
  C   C1700     1.0  0.24135  0.86093  0.34774  1.0000
  C   C1701     1.0  0.25091  0.77538  0.13411  1.0000
  C   C1702     1.0  0.24693  0.92885  0.01000  1.0000
  C   C1703     1.0  0.33382  0.65017  0.44466  1.0000
  C   C1704     1.0  0.29069  0.71759  0.14515  1.0000
  H   H1363     1.0  0.38869  0.68863  0.39356  1.0000
  C   C1705     1.0  0.27818  0.72429  0.01370  1.0000
  H   H1364     1.0  0.46635  0.71107  0.27857  1.0000
  S   S237      1.0  0.27359  0.74776  0.30826  1.0000
  H   H1365     1.0  0.33038  0.75991  0.40246  1.0000
  C   C1706     1.0  0.35908  0.67137  0.39082  1.0000
  C   C1707     1.0  0.36710  0.74348  0.18711  1.0000
  C   C1708     1.0  0.24714  0.83488  0.19405  1.0000
  C   C1709     1.0  0.47772  0.68701  0.28408  1.0000
  C   C1710     1.0  0.33315  0.70247  0.31161  1.0000
  C   C1711     1.0  0.31880  0.71039  0.30289  1.0000
  C   C1712     1.0  0.31615  0.72651  0.29255  1.0000
  C   C1713     1.0  0.32783  0.73470  0.29089  1.0000
  C   C1714     1.0  0.34229  0.72686  0.29943  1.0000
  C   C1715     1.0  0.34485  0.71066  0.31010  1.0000
  P   P56       1.0  0.35721  0.73792  0.29538  1.0000
  C   C1716     1.0  0.34816  0.75370  0.31927  1.0000
  C   C1717     1.0  0.37424  0.72614  0.31180  1.0000
  C   C1718     1.0  0.38304  0.71410  0.29418  1.0000
  C   C1719     1.0  0.24691  0.96067  0.10368  1.0000
  C   C1720     1.0  0.25560  0.69584  0.42568  1.0000
  H   H1366     1.0  0.25730  0.87533  0.15066  1.0000
  C   C1721     1.0  0.37957  0.72947  0.33993  1.0000
  C   C1722     1.0  0.34273  0.75043  0.35588  1.0000
  H   H1367     1.0  0.25698  0.69054  0.21399  1.0000
  C   C1723     1.0  0.33235  0.77777  0.35647  1.0000
  C   C1724     1.0  0.33731  0.78106  0.31992  1.0000
  C   C1725     1.0  0.34501  0.76908  0.30128  1.0000
  C   C1726     1.0  0.36424  0.74478  0.24935  1.0000
  C   C1727     1.0  0.34752  0.70968  0.00608  1.0000
  C   C1728     1.0  0.36583  0.74952  0.04037  1.0000
  H   H1368     1.0  0.32965  0.66918  0.14847  1.0000
  H   H1369     1.0  0.41228  0.70143  0.34194  1.0000
  H   H1370     1.0  0.31700  0.65692  0.25039  1.0000
  H   H1371     1.0  0.33545  0.68994  0.31841  1.0000
  H   H1372     1.0  0.30980  0.70405  0.30351  1.0000
  H   H1373     1.0  0.30509  0.73269  0.28544  1.0000
  H   H1374     1.0  0.32567  0.74718  0.28262  1.0000
  H   H1375     1.0  0.35592  0.70419  0.31633  1.0000
  P   P57       1.0  0.25734  0.71201  0.44407  1.0000
  H   H1376     1.0  0.24573  0.77094  0.32078  1.0000
  H   H1377     1.0  0.47709  0.69120  0.18388  1.0000
  H   H1378     1.0  0.37349  0.73913  0.35295  1.0000
  H   H1379     1.0  0.31277  0.72540  0.04885  1.0000
  H   H1380     1.0  0.25459  0.76889  0.24603  1.0000
  H   H1381     1.0  0.33462  0.79284  0.30565  1.0000
  H   H1382     1.0  0.34787  0.77192  0.27273  1.0000
  C   C1729     1.0  0.25223  0.72671  0.23615  1.0000
  C   C1730     1.0  0.23997  0.86893  0.37541  1.0000
  C   C1731     1.0  0.38174  0.72387  0.00901  1.0000
  H   H1383     1.0  0.37721  0.76016  0.26063  1.0000
  H   H1384     1.0  0.26483  0.65247  0.26786  1.0000
  C   C1732     1.0  0.33185  0.79488  0.46684  1.0000
  H   H1385     1.0  0.31388  0.74139  0.09172  1.0000
  H   H1386     1.0  0.25442  0.95446  0.12239  1.0000
  C   C1733     1.0  0.30626  0.72330  0.07545  1.0000
  C   C1734     1.0  0.37653  0.75460  0.17815  1.0000
  C   C1735     1.0  0.35314  0.70305  0.03770  1.0000
  H   H1387     1.0  0.25030  0.68824  0.34814  1.0000
  P   P58       1.0  0.24155  0.75589  0.19768  1.0000
  C   C1736     1.0  0.25720  0.91454  0.01116  1.0000
  H   H1388     1.0  0.35094  0.65469  0.02816  1.0000
  C   C1737     1.0  0.24447  0.77699  0.23830  1.0000
  C   C1738     1.0  0.25460  0.67094  0.39411  1.0000
  H   H1389     1.0  0.34427  0.73857  0.36992  1.0000
  H   H1390     1.0  0.32440  0.79986  0.44726  1.0000
  H   H1391     1.0  0.28798  0.81163  0.41525  1.0000
  C   C1739     1.0  0.39655  0.70509  0.30535  1.0000
  H   H1392     1.0  0.46821  0.65222  0.43852  1.0000
  H   H1393     1.0  0.33754  0.66136  0.34153  1.0000
  C   C1740     1.0  0.24006  0.95252  0.08669  1.0000
  H   H1394     1.0  0.34689  0.67434  0.38882  1.0000
  C   C1741     1.0  0.26622  0.75066  0.09906  1.0000
  C   C1742     1.0  0.33718  0.66985  0.06361  1.0000
  C   C1743     1.0  0.29285  0.71469  0.01442  1.0000
  C   C1744     1.0  0.40244  0.76004  0.48323  1.0000
  H   H1395     1.0  0.33901  0.72036  0.00494  1.0000
  S   S238      1.0  0.35161  0.67531  0.18205  1.0000
  H   H1396     1.0  0.29305  0.67503  0.11320  1.0000
  C   C1745     1.0  0.39139  0.66494  0.22471  1.0000
  H   H1397     1.0  0.25929  0.79012  0.08609  1.0000
  H   H1398     1.0  0.29731  0.65393  0.05173  1.0000
  C   C1746     1.0  0.37418  0.75556  0.24025  1.0000
  C   C1747     1.0  0.25490  0.90250  0.03973  1.0000
  H   H1399     1.0  0.38701  0.66959  0.20020  1.0000
  C   C1748     1.0  0.37001  0.75120  0.00351  1.0000
  H   H1400     1.0  0.37872  0.67198  0.01034  1.0000
  C   C1749     1.0  0.38494  0.67185  0.25459  1.0000
  C   C1750     1.0  0.38267  0.67958  0.39286  1.0000
  H   H1401     1.0  0.34485  0.66597  0.08293  1.0000
  H   H1402     1.0  0.29072  0.66633  0.99283  1.0000
  H   H1403     1.0  0.30025  0.73623  0.15347  1.0000
  C   C1751     1.0  0.34061  0.66349  0.03274  1.0000
  H   H1404     1.0  0.35944  0.75934  0.05273  1.0000
  C   C1752     1.0  0.48400  0.67420  0.26692  1.0000
  C   C1753     1.0  0.31845  0.65306  0.46226  1.0000
  C   C1754     1.0  0.28859  0.81337  0.46910  1.0000
  C   C1755     1.0  0.46473  0.64910  0.38819  1.0000
  C   C1756     1.0  0.29705  0.65449  0.99661  1.0000
  C   C1757     1.0  0.33089  0.66871  0.00754  1.0000
  C   C1758     1.0  0.26269  0.66600  0.08870  1.0000
  C   C1759     1.0  0.25119  0.67431  0.18832  1.0000
  C   C1760     1.0  0.25750  0.66816  0.42875  1.0000
  C   C1761     1.0  0.24249  0.76003  0.32132  1.0000
  H   H1405     1.0  0.26261  0.66701  0.18701  1.0000
  C   C1762     1.0  0.30687  0.73245  0.09959  1.0000
  C   C1763     1.0  0.30790  0.66569  0.18153  1.0000
  C   C1764     1.0  0.25186  0.79712  0.46078  1.0000
  H   H1406     1.0  0.26869  0.72253  0.03544  1.0000
  C   C1765     1.0  0.24559  0.74380  0.42946  1.0000
  H   H1407     1.0  0.28662  0.65899  0.21110  1.0000
  C   C1766     1.0  0.31768  0.68022  0.01339  1.0000
  C   C1767     1.0  0.25246  0.68607  0.37509  1.0000
  C   C1768     1.0  0.28151  0.74943  0.47401  1.0000
  C   C1769     1.0  0.34186  0.78059  0.46488  1.0000
  C   C1770     1.0  0.38312  0.65258  0.39238  1.0000
  H   H1408     1.0  0.36646  0.73380  0.09005  1.0000
  C   C1771     1.0  0.25650  0.87797  0.20433  1.0000
  H   H1409     1.0  0.31864  0.72243  0.38610  1.0000
  C   C1772     1.0  0.47074  0.64993  0.35205  1.0000
  C   C1773     1.0  0.25571  0.74126  0.21906  1.0000
  H   H1410     1.0  0.31573  0.65773  0.48658  1.0000
  H   H1411     1.0  0.40702  0.64788  0.31281  1.0000
  H   H1412     1.0  0.25291  0.67724  0.04218  1.0000
  H   H1413     1.0  0.26263  0.79543  0.47044  1.0000
  H   H1414     1.0  0.24044  0.89533  0.08916  1.0000
  H   H1415     1.0  0.34219  0.77453  0.44359  1.0000
  H   H1416     1.0  0.36067  0.69506  0.38981  1.0000
  C   C1774     1.0  0.32115  0.66181  0.15678  1.0000
  H   H1417     1.0  0.28628  0.74706  0.44748  1.0000
  C   C1775     1.0  0.47275  0.65326  0.41037  1.0000
  H   H1418     1.0  0.24228  0.65936  0.16570  1.0000
  H   H1419     1.0  0.36179  0.65117  0.24066  1.0000
  C   C1776     1.0  0.24198  0.83310  0.25811  1.0000
  H   H1420     1.0  0.31400  0.70309  0.44117  1.0000
  C   C1777     1.0  0.32345  0.64839  0.14231  1.0000
  H   H1421     1.0  0.24547  0.78516  0.14731  1.0000
  S   S239      1.0  0.24663  0.82520  0.30083  1.0000
  C   C1778     1.0  0.23952  0.67000  0.17627  1.0000
  C   C1779     1.0  0.47118  0.70121  0.26522  1.0000
  C   C1780     1.0  0.40351  0.65195  0.22655  1.0000
  C   C1781     1.0  0.40276  0.65266  0.28821  1.0000
  C   C1782     1.0  0.23977  0.79090  0.25168  1.0000
  H   H1422     1.0  0.47788  0.68610  0.31194  1.0000
  C   C1783     1.0  0.48490  0.65484  0.33775  1.0000
  C   C1784     1.0  0.30061  0.64750  0.03008  1.0000
  H   H1423     1.0  0.25918  0.65639  0.44339  1.0000
  H   H1424     1.0  0.46585  0.71371  0.21457  1.0000
  S   S240      1.0  0.23925  0.67207  0.30493  1.0000
  C   C1785     1.0  0.48382  0.67584  0.23061  1.0000
  H   H1425     1.0  0.24494  0.86314  0.39877  1.0000
  C   C1786     1.0  0.36041  0.64850  0.26917  1.0000
  H   H1426     1.0  0.38759  0.71367  0.99760  1.0000
  C   C1787     1.0  0.23984  0.78975  0.48095  1.0000
  H   H1427     1.0  0.35151  0.97740  0.30126  1.0000
  H   H1428     1.0  0.31005  0.68394  0.99412  1.0000
  H   H1429     1.0  0.23681  0.76839  0.41714  1.0000
  H   H1430     1.0  0.23682  0.87193  0.04027  1.0000
  H   H1431     1.0  0.23736  0.91635  0.23511  1.0000
  C   C1788     1.0  0.23590  0.88023  0.01592  1.0000
  C   C1789     1.0  0.23596  0.77366  0.21574  1.0000
  H   H1432     1.0  0.23621  0.86195  0.29649  1.0000
  H   H1433     1.0  0.37497  0.64874  0.13759  1.0000
  C   C1790     1.0  0.39013  0.71147  0.92136  1.0000
  C   C1791     1.0  0.40227  0.74038  0.53617  1.0000
  C   C1792     1.0  0.25580  0.92649  0.91716  1.0000
  C   C1793     1.0  0.26264  0.70808  0.78914  1.0000
  C   C1794     1.0  0.24177  0.92953  0.90444  1.0000
  Fe  Fe121     1.0  0.36038  0.71740  0.80557  1.0000
  S   S241      1.0  0.33808  0.71917  0.84401  1.0000
  S   S242      1.0  0.36901  0.73755  0.76782  1.0000
  Fe  Fe122     1.0  0.37013  0.68297  0.83109  1.0000
  Fe  Fe123     1.0  0.33623  0.69702  0.82932  1.0000
  Fe  Fe124     1.0  0.35205  0.70388  0.88397  1.0000
  S   S243      1.0  0.34490  0.71147  0.93750  1.0000
  S   S244      1.0  0.35750  0.69640  0.78739  1.0000
  S   S245      1.0  0.37478  0.70397  0.84654  1.0000
  Fe  Fe125     1.0  0.27299  0.79347  0.66492  1.0000
  S   S246      1.0  0.28939  0.80982  0.64025  1.0000
  C   C1795     1.0  0.24545  0.91018  0.84229  1.0000
  Fe  Fe126     1.0  0.29413  0.76692  0.63098  1.0000
  S   S247      1.0  0.31212  0.78109  0.60298  1.0000
  S   S248      1.0  0.29469  0.74268  0.62381  1.0000
  Fe  Fe127     1.0  0.30798  0.78931  0.65508  1.0000
  S   S249      1.0  0.32806  0.79221  0.67711  1.0000
  Fe  Fe128     1.0  0.29192  0.80004  0.59067  1.0000
  S   S250      1.0  0.28985  0.81537  0.53732  1.0000
  S   S251      1.0  0.29143  0.77373  0.68393  1.0000
  S   S252      1.0  0.27431  0.78508  0.61433  1.0000
  C   C1796     1.0  0.35682  0.75219  0.74333  1.0000
  C   C1797     1.0  0.36318  0.76468  0.72246  1.0000
  C   C1798     1.0  0.35417  0.77673  0.70239  1.0000
  C   C1799     1.0  0.33873  0.77634  0.70230  1.0000
  C   C1800     1.0  0.33226  0.76373  0.72278  1.0000
  C   C1801     1.0  0.34130  0.75168  0.74360  1.0000
  H   H1434     1.0  0.37513  0.76515  0.72214  1.0000
  H   H1435     1.0  0.35922  0.78643  0.68684  1.0000
  H   H1436     1.0  0.32029  0.76342  0.72305  1.0000
  H   H1437     1.0  0.33629  0.74206  0.75970  1.0000
  H   H1438     1.0  0.27761  0.72288  0.60691  1.0000
  H   H1439     1.0  0.35602  0.72112  0.72057  1.0000
  H   H1440     1.0  0.31959  0.70043  0.92225  1.0000
  H   H1441     1.0  0.39431  0.68434  0.76146  1.0000
  C   C1802     1.0  0.26571  0.74869  0.66173  1.0000
  S   S253      1.0  0.31276  0.69470  0.82204  1.0000
  H   H1442     1.0  0.31249  0.73237  0.93784  1.0000
  C   C1803     1.0  0.35287  0.70266  0.97601  1.0000
  C   C1804     1.0  0.36422  0.68908  0.97749  1.0000
  C   C1805     1.0  0.26998  0.72950  0.62599  1.0000
  H   H1443     1.0  0.36844  0.68360  0.95437  1.0000
  C   C1806     1.0  0.37920  0.71797  0.69082  1.0000
  C   C1807     1.0  0.27533  0.66277  0.71604  1.0000
  H   H1444     1.0  0.31515  0.66309  0.68429  1.0000
  H   H1445     1.0  0.37384  0.82091  0.61314  1.0000
  C   C1808     1.0  0.33817  0.73910  0.63898  1.0000
  H   H1446     1.0  0.26991  0.75712  0.67120  1.0000
  H   H1447     1.0  0.33211  0.73140  0.65967  1.0000
  H   H1448     1.0  0.41837  0.77323  0.95594  1.0000
  C   C1809     1.0  0.39932  0.65982  0.78181  1.0000
  C   C1810     1.0  0.29963  0.67413  0.80198  1.0000
  H   H1449     1.0  0.38281  0.74393  0.57787  1.0000
  H   H1450     1.0  0.29827  0.71964  0.89791  1.0000
  H   H1451     1.0  0.28733  0.65733  0.71719  1.0000
  C   C1811     1.0  0.38062  0.66940  0.62469  1.0000
  H   H1452     1.0  0.24533  0.70139  0.59486  1.0000
  H   H1453     1.0  0.28948  0.65722  0.78808  1.0000
  C   C1812     1.0  0.37541  0.67354  0.59206  1.0000
  H   H1454     1.0  0.36361  0.67948  0.59044  1.0000
  C   C1813     1.0  0.26595  0.65552  0.70338  1.0000
  H   H1455     1.0  0.24420  0.77031  0.74929  1.0000
  C   C1814     1.0  0.24772  0.70338  0.56617  1.0000
  C   C1815     1.0  0.25116  0.90150  0.81501  1.0000
  C   C1816     1.0  0.38055  0.79357  0.56064  1.0000
  C   C1817     1.0  0.28478  0.70253  0.89892  1.0000
  S   S254      1.0  0.24975  0.79862  0.70080  1.0000
  H   H1456     1.0  0.36701  0.76250  0.98744  1.0000
  C   C1818     1.0  0.33102  0.80255  0.49476  1.0000
  H   H1457     1.0  0.32741  0.73574  0.59797  1.0000
  H   H1458     1.0  0.32438  0.66418  0.87622  1.0000
  H   H1459     1.0  0.35010  0.69767  0.70755  1.0000
  C   C1819     1.0  0.25032  0.66220  0.70341  1.0000
  C   C1820     1.0  0.25978  0.95260  0.89105  1.0000
  C   C1821     1.0  0.26914  0.67683  0.72818  1.0000
  H   H1460     1.0  0.26560  0.75952  0.56801  1.0000
  H   H1461     1.0  0.30051  0.73450  0.49704  1.0000
  H   H1462     1.0  0.29529  0.97207  0.56900  1.0000
  C   C1822     1.0  0.24943  0.88604  0.82046  1.0000
  H   H1463     1.0  0.24692  0.92211  0.83756  1.0000
  H   H1464     1.0  0.40193  0.71145  0.66083  1.0000
  H   H1465     1.0  0.24234  0.96677  0.86164  1.0000
  C   C1823     1.0  0.32710  0.67286  0.78014  1.0000
  C   C1824     1.0  0.32526  0.69770  0.64358  1.0000
  C   C1825     1.0  0.39606  0.66182  0.62580  1.0000
  H   H1466     1.0  0.27456  0.68316  0.89968  1.0000
  C   C1826     1.0  0.34784  0.67875  0.65980  1.0000
  H   H1467     1.0  0.26992  0.72204  0.49643  1.0000
  H   H1468     1.0  0.32007  0.70944  0.63272  1.0000
  H   H1469     1.0  0.34038  0.75390  0.55135  1.0000
  H   H1470     1.0  0.32286  0.81340  0.49690  1.0000
  C   C1827     1.0  0.29586  0.78909  0.50791  1.0000
  C   C1828     1.0  0.28804  0.73925  0.95758  1.0000
  C   C1829     1.0  0.34149  0.75181  0.88245  1.0000
  C   C1830     1.0  0.30000  0.66146  0.78604  1.0000
  H   H1471     1.0  0.40776  0.72964  0.55097  1.0000
  C   C1831     1.0  0.25866  0.71234  0.54745  1.0000
  C   C1832     1.0  0.24466  0.80229  0.54947  1.0000
  C   C1833     1.0  0.39309  0.76678  0.89374  1.0000
  H   H1472     1.0  0.39417  0.80925  0.56762  1.0000
  H   H1473     1.0  0.38180  0.72809  0.69756  1.0000
  C   C1834     1.0  0.40055  0.67308  0.75587  1.0000
  H   H1474     1.0  0.46588  0.68361  0.66951  1.0000
  H   H1475     1.0  0.41759  0.73041  0.92996  1.0000
  H   H1476     1.0  0.24707  0.85514  0.67597  1.0000
  C   C1835     1.0  0.32244  0.67160  0.67253  1.0000
  C   C1836     1.0  0.30521  0.71795  0.98715  1.0000
  C   C1837     1.0  0.25375  0.70836  0.49184  1.0000
  C   C1838     1.0  0.33553  0.74155  0.60425  1.0000
  C   C1839     1.0  0.23708  0.94410  0.88404  1.0000
  C   C1840     1.0  0.30909  0.68081  0.92519  1.0000
  H   H1477     1.0  0.24259  0.74848  0.79984  1.0000
  H   H1478     1.0  0.38616  0.76526  0.87586  1.0000
  C   C1841     1.0  0.41591  0.69604  0.90951  1.0000
  H   H1479     1.0  0.24509  0.75385  0.69399  1.0000
  H   H1480     1.0  0.25997  0.91518  0.93166  1.0000
  H   H1481     1.0  0.26990  0.97540  0.60944  1.0000
  C   C1842     1.0  0.31396  0.65441  0.76737  1.0000
  C   C1843     1.0  0.38806  0.74853  0.55132  1.0000
  H   H1482     1.0  0.24822  0.80786  0.52259  1.0000
  H   H1483     1.0  0.41155  0.68214  0.70342  1.0000
  H   H1484     1.0  0.35827  0.74642  0.83656  1.0000
  C   C1844     1.0  0.27768  0.65202  0.92353  1.0000
  C   C1845     1.0  0.33836  0.66762  0.67329  1.0000
  H   H1485     1.0  0.24144  0.74598  0.50822  1.0000
  H   H1486     1.0  0.26435  0.74363  0.98441  1.0000
  H   H1487     1.0  0.28621  0.74863  0.93546  1.0000
  C   C1846     1.0  0.25462  0.72742  0.63763  1.0000
  H   H1488     1.0  0.29580  0.72275  0.77131  1.0000
  C   C1847     1.0  0.26035  0.70907  0.75439  1.0000
  C   C1848     1.0  0.35647  0.74730  0.86431  1.0000
  C   C1849     1.0  0.36912  0.74373  0.88196  1.0000
  H   H1489     1.0  0.40042  0.65866  0.65064  1.0000
  C   C1850     1.0  0.28578  0.71919  0.76656  1.0000
  C   C1851     1.0  0.24328  0.73475  0.66578  1.0000
  C   C1852     1.0  0.40316  0.75920  0.94873  1.0000
  C   C1853     1.0  0.41034  0.78134  0.90607  1.0000
  C   C1854     1.0  0.39634  0.72343  0.92758  1.0000
  P   P59       1.0  0.36804  0.67435  0.66480  1.0000
  C   C1855     1.0  0.31324  0.67966  0.79960  1.0000
  H   H1490     1.0  0.24903  0.93807  0.98790  1.0000
  P   P60       1.0  0.36266  0.77327  0.55195  1.0000
  C   C1856     1.0  0.28431  0.68670  0.90552  1.0000
  C   C1857     1.0  0.26159  0.76377  0.51389  1.0000
  H   H1491     1.0  0.31682  0.71132  0.98797  1.0000
  C   C1858     1.0  0.41248  0.72148  0.92498  1.0000
  H   H1492     1.0  0.27548  0.93566  0.92077  1.0000
  C   C1859     1.0  0.26980  0.75676  0.54167  1.0000
  C   C1860     1.0  0.28954  0.74242  0.50183  1.0000
  C   C1861     1.0  0.38724  0.69534  0.66230  1.0000
  H   H1493     1.0  0.26965  0.71552  0.69902  1.0000
  H   H1494     1.0  0.27662  0.68201  0.73843  1.0000
  H   H1495     1.0  0.43465  0.70640  0.91375  1.0000
  H   H1496     1.0  0.29156  0.72506  0.70975  1.0000
  H   H1497     1.0  0.37775  0.71266  0.92339  1.0000
  C   C1862     1.0  0.38322  0.80529  0.57571  1.0000
  C   C1863     1.0  0.28348  0.72035  0.73196  1.0000
  S   S255      1.0  0.34845  0.68175  0.87215  1.0000
  H   H1498     1.0  0.36354  0.76320  0.62811  1.0000
  H   H1499     1.0  0.29821  0.78275  0.53352  1.0000
  H   H1500     1.0  0.24299  0.65649  0.69408  1.0000
  C   C1864     1.0  0.35578  0.75724  0.62092  1.0000
  H   H1501     1.0  0.34827  0.70253  0.63353  1.0000
  C   C1865     1.0  0.36893  0.66012  0.73522  1.0000
  C   C1866     1.0  0.30959  0.69662  0.91824  1.0000
  H   H1502     1.0  0.28887  0.67943  0.81679  1.0000
  C   C1867     1.0  0.41130  0.77144  0.93858  1.0000
  H   H1503     1.0  0.25686  0.90678  0.78957  1.0000
  C   C1868     1.0  0.38549  0.67000  0.56111  1.0000
  C   C1869     1.0  0.28375  0.74617  0.53551  1.0000
  H   H1504     1.0  0.26474  0.71749  0.56154  1.0000
  C   C1870     1.0  0.27573  0.73637  0.98509  1.0000
  H   H1505     1.0  0.33763  0.67705  0.77819  1.0000
  C   C1871     1.0  0.34288  0.75195  0.57785  1.0000
  H   H1506     1.0  0.29026  0.74111  0.55673  1.0000
  H   H1507     1.0  0.25487  0.88789  0.93134  1.0000
  C   C1872     1.0  0.32743  0.66029  0.76394  1.0000
  C   C1873     1.0  0.24229  0.69996  0.51078  1.0000
  C   C1874     1.0  0.36135  0.70072  0.69632  1.0000
  C   C1875     1.0  0.36692  0.74488  0.91791  1.0000
  C   C1876     1.0  0.47964  0.66539  0.64217  1.0000
  C   C1877     1.0  0.29656  0.67568  0.91840  1.0000
  P   P61       1.0  0.38354  0.74085  0.93988  1.0000
  H   H1508     1.0  0.34875  0.81189  0.63163  1.0000
  H   H1509     1.0  0.31875  0.67251  0.93463  1.0000
  H   H1510     1.0  0.27555  0.71095  0.88800  1.0000
  H   H1511     1.0  0.47125  0.65780  0.65215  1.0000
  C   C1878     1.0  0.37178  0.81189  0.60130  1.0000
  H   H1512     1.0  0.30345  0.68985  0.65841  1.0000
  C   C1879     1.0  0.41024  0.67181  0.72289  1.0000
  C   C1880     1.0  0.26469  0.93804  0.91079  1.0000
  C   C1881     1.0  0.25342  0.68370  0.72798  1.0000
  C   C1882     1.0  0.35496  0.79511  0.59678  1.0000
  H   H1513     1.0  0.39633  0.68817  0.64685  1.0000
  C   C1883     1.0  0.25060  0.74630  0.67494  1.0000
  H   H1514     1.0  0.26668  0.96154  0.88586  1.0000
  S   S256      1.0  0.38769  0.66094  0.82402  1.0000
  C   C1884     1.0  0.35296  0.75999  0.58606  1.0000
  H   H1515     1.0  0.25491  0.70315  0.81162  1.0000
  C   C1885     1.0  0.24596  0.88934  0.95444  1.0000
  H   H1516     1.0  0.36894  0.64915  0.78962  1.0000
  C   C1886     1.0  0.35178  0.74919  0.93612  1.0000
  C   C1887     1.0  0.40125  0.77900  0.88368  1.0000
  H   H1517     1.0  0.38062  0.74007  0.86744  1.0000
  H   H1518     1.0  0.33362  0.66380  0.98356  1.0000
  C   C1888     1.0  0.27554  0.74000  0.63827  1.0000
  H   H1519     1.0  0.40413  0.75158  0.97394  1.0000
  C   C1889     1.0  0.47660  0.67997  0.65201  1.0000
  C   C1890     1.0  0.27092  0.71515  0.72593  1.0000
  C   C1891     1.0  0.39988  0.69785  0.91235  1.0000
  H   H1520     1.0  0.38958  0.78867  0.54091  1.0000
  H   H1521     1.0  0.32750  0.75584  0.93263  1.0000
  C   C1892     1.0  0.24849  0.83032  0.68668  1.0000
  C   C1893     1.0  0.33914  0.75270  0.91836  1.0000
  H   H1522     1.0  0.40052  0.78666  0.85842  1.0000
  H   H1523     1.0  0.25229  0.71912  0.62428  1.0000
  C   C1894     1.0  0.39396  0.75677  0.92640  1.0000
  H   H1524     1.0  0.39496  0.68872  0.90745  1.0000
  C   C1895     1.0  0.27538  0.71306  0.79510  1.0000
  C   C1896     1.0  0.39050  0.70862  0.67012  1.0000
  H   H1525     1.0  0.27755  0.71177  0.82175  1.0000
  H   H1526     1.0  0.24706  0.67514  0.80389  1.0000
  H   H1527     1.0  0.34958  0.74957  0.96407  1.0000
  H   H1528     1.0  0.33172  0.75434  0.86871  1.0000
  C   C1897     1.0  0.40085  0.66250  0.56249  1.0000
  C   C1898     1.0  0.37788  0.73835  0.98751  1.0000
  H   H1529     1.0  0.33823  0.65474  0.74987  1.0000
  H   H1530     1.0  0.34391  0.79134  0.60525  1.0000
  H   H1531     1.0  0.33916  0.80214  0.54222  1.0000
  C   C1899     1.0  0.40613  0.65847  0.59482  1.0000
  H   H1532     1.0  0.34305  0.65598  0.68549  1.0000
  H   H1533     1.0  0.35042  0.74506  0.67404  1.0000
  H   H1534     1.0  0.42343  0.68549  0.90235  1.0000
  C   C1900     1.0  0.36463  0.71404  0.70378  1.0000
  C   C1901     1.0  0.35063  0.78181  0.51854  1.0000
  C   C1902     1.0  0.37260  0.69129  0.67526  1.0000
  C   C1903     1.0  0.34839  0.74685  0.64717  1.0000
  H   H1535     1.0  0.38145  0.67313  0.53599  1.0000
  H   H1536     1.0  0.41666  0.79082  0.89820  1.0000
  C   C1904     1.0  0.29135  0.80523  0.50266  1.0000
  C   C1905     1.0  0.34120  0.69375  0.64421  1.0000
  C   C1906     1.0  0.35765  0.80683  0.61171  1.0000
  H   H1537     1.0  0.25788  0.82830  0.66484  1.0000
  C   C1907     1.0  0.30280  0.73011  0.95882  1.0000
  S   S257      1.0  0.43067  0.65620  0.67361  1.0000
  C   C1908     1.0  0.29752  0.70747  0.90478  1.0000
  C   C1909     1.0  0.26164  0.71485  0.51045  1.0000
  H   H1538     1.0  0.36624  0.67166  0.74163  1.0000
  C   C1910     1.0  0.41845  0.65728  0.71523  1.0000
  P   P62       1.0  0.29661  0.65511  0.92543  1.0000
  H   H1539     1.0  0.25368  0.87935  0.79923  1.0000
  C   C1911     1.0  0.36642  0.78829  0.57132  1.0000
  C   C1912     1.0  0.42221  0.70784  0.91587  1.0000
  C   C1913     1.0  0.37088  0.65791  0.70014  1.0000
  C   C1914     1.0  0.24604  0.95558  0.87751  1.0000
  C   C1915     1.0  0.24397  0.67599  0.71660  1.0000
  P   P63       1.0  0.24497  0.70140  0.74536  1.0000
  C   C1916     1.0  0.38087  0.76247  0.53239  1.0000
  C   C1917     1.0  0.34032  0.79606  0.52058  1.0000
  C   C1918     1.0  0.31586  0.68666  0.65801  1.0000
  C   C1919     1.0  0.23784  0.90345  0.87515  1.0000
  C   C1920     1.0  0.24306  0.81054  0.57689  1.0000
  H   H1540     1.0  0.24565  0.82214  0.57096  1.0000
  H   H1541     1.0  0.40873  0.65986  0.53855  1.0000
  C   C1921     1.0  0.25848  0.65192  0.88852  1.0000
  C   C1922     1.0  0.23954  0.69723  0.54784  1.0000
  H   H1542     1.0  0.28106  0.65722  0.86632  1.0000
  H   H1543     1.0  0.23669  0.92358  0.73001  1.0000
  P   P64       1.0  0.24295  0.77653  0.52177  1.0000
  H   H1544     1.0  0.24015  0.86743  0.85713  1.0000
  C   C1923     1.0  0.24243  0.81783  0.70845  1.0000
  H   H1545     1.0  0.48494  0.70113  0.64677  1.0000
  C   C1924     1.0  0.24185  0.87930  0.85309  1.0000
  C   C1925     1.0  0.24231  0.84554  0.69298  1.0000
  C   C1926     1.0  0.32320  0.65297  0.87265  1.0000
  H   H1546     1.0  0.25529  0.65301  0.86286  1.0000
  H   H1547     1.0  0.34383  0.65110  0.83295  1.0000
  H   H1548     1.0  0.41809  0.65284  0.59598  1.0000
  C   C1927     1.0  0.27314  0.65412  0.89055  1.0000
  H   H1549     1.0  0.23716  0.70065  0.66827  1.0000
  C   C1928     1.0  0.23812  0.78001  0.59262  1.0000
  C   C1929     1.0  0.24185  0.78706  0.55704  1.0000
  C   C1930     1.0  0.24737  0.87875  0.98594  1.0000
  C   C1931     1.0  0.40945  0.74611  0.50214  1.0000
  C   C1932     1.0  0.38822  0.76821  0.49829  1.0000
  C   C1933     1.0  0.23869  0.80368  0.61205  1.0000
  H   H1550     1.0  0.25725  0.86925  0.98698  1.0000
  H   H1551     1.0  0.24425  0.96711  0.98903  1.0000
  H   H1552     1.0  0.23784  0.80997  0.63331  1.0000
  C   C1934     1.0  0.24815  0.64785  0.91943  1.0000
  C   C1935     1.0  0.26719  0.64811  0.95458  1.0000
  C   C1936     1.0  0.35121  0.77404  0.49064  1.0000
  H   H1553     1.0  0.23667  0.76802  0.59933  1.0000
  H   H1554     1.0  0.42051  0.73982  0.49055  1.0000
  C   C1937     1.0  0.23635  0.78836  0.61994  1.0000
  C   C1938     1.0  0.23591  0.88802  0.88016  1.0000
  C   C1939     1.0  0.37043  0.64734  0.76262  1.0000
  C   C1940     1.0  0.23593  0.68275  0.80956  1.0000
  H   H1555     1.0  0.26706  0.91281  0.99013  1.0000
  S   S258      1.0  0.57356  0.26434  0.37304  1.0000
  H   H1556     1.0  0.64132  0.25536  0.34472  1.0000
  Fe  Fe129     1.0  0.59739  0.26022  0.33990  1.0000
  S   S259      1.0  0.61031  0.23599  0.33277  1.0000
  C   C1941     1.0  0.67569  0.29766  0.16690  1.0000
  H   H1557     1.0  0.58623  0.26191  0.07315  1.0000
  C   C1942     1.0  0.69423  0.13761  0.33113  1.0000
  S   S260      1.0  0.59133  0.27934  0.29488  1.0000
  H   H1558     1.0  0.56105  0.28005  0.08411  1.0000
  H   H1559     1.0  0.65532  0.26569  0.28609  1.0000
  H   H1560     1.0  0.71819  0.28079  0.25200  1.0000
  H   H1561     1.0  0.53813  0.29384  0.47313  1.0000
  C   C1943     1.0  0.52820  0.22030  0.18125  1.0000
  C   C1944     1.0  0.53436  0.24002  0.20685  1.0000
  Fe  Fe130     1.0  0.69749  0.18352  0.18970  1.0000
  S   S261      1.0  0.70737  0.18060  0.13345  1.0000
  S   S262      1.0  0.70998  0.17466  0.23626  1.0000
  Fe  Fe131     1.0  0.67137  0.21072  0.16874  1.0000
  S   S263      1.0  0.67907  0.20976  0.11071  1.0000
  S   S264      1.0  0.65319  0.23157  0.18286  1.0000
  Fe  Fe132     1.0  0.68243  0.18395  0.12729  1.0000
  S   S265      1.0  0.67426  0.16823  0.10022  1.0000
  Fe  Fe133     1.0  0.70314  0.20659  0.12146  1.0000
  S   S266      1.0  0.72083  0.21993  0.08717  1.0000
  S   S267      1.0  0.67261  0.18499  0.18518  1.0000
  S   S268      1.0  0.69532  0.20928  0.17801  1.0000
  C   C1945     1.0  0.67425  0.16981  0.05435  1.0000
  C   C1946     1.0  0.68181  0.18002  0.02736  1.0000
  H   H1562     1.0  0.50107  0.22845  0.25333  1.0000
  C   C1947     1.0  0.66603  0.16025  0.04509  1.0000
  H   H1563     1.0  0.68823  0.18745  0.03416  1.0000
  P   P65       1.0  0.54654  0.25345  0.20713  1.0000
  H   H1564     1.0  0.66023  0.15229  0.06553  1.0000
  H   H1565     1.0  0.64616  0.15916  0.35274  1.0000
  C   C1948     1.0  0.71854  0.15509  0.24817  1.0000
  H   H1566     1.0  0.67746  0.10685  0.33352  1.0000
  H   H1567     1.0  0.70575  0.14574  0.22006  1.0000
  H   H1568     1.0  0.65608  0.12824  0.37834  1.0000
  C   C1949     1.0  0.65316  0.16630  0.33300  1.0000
  H   H1569     1.0  0.67313  0.22070  0.25318  1.0000
  Fe  Fe134     1.0  0.60001  0.29414  0.32340  1.0000
  C   C1950     1.0  0.71418  0.14306  0.23748  1.0000
  H   H1570     1.0  0.63273  0.11767  0.40899  1.0000
  C   C1951     1.0  0.66400  0.16000  0.30579  1.0000
  C   C1952     1.0  0.53386  0.24201  0.43314  1.0000
  C   C1953     1.0  0.65134  0.18200  0.33507  1.0000
  H   H1571     1.0  0.69526  0.11345  0.20265  1.0000
  C   C1954     1.0  0.62258  0.23461  0.29153  1.0000
  C   C1955     1.0  0.62447  0.24794  0.26641  1.0000
  C   C1956     1.0  0.63364  0.24671  0.23309  1.0000
  C   C1957     1.0  0.64162  0.23221  0.22503  1.0000
  C   C1958     1.0  0.64003  0.21882  0.25033  1.0000
  C   C1959     1.0  0.63035  0.22003  0.28339  1.0000
  H   H1572     1.0  0.61876  0.25923  0.27245  1.0000
  H   H1573     1.0  0.63450  0.25707  0.21351  1.0000
  H   H1574     1.0  0.64596  0.20757  0.24411  1.0000
  H   H1575     1.0  0.62876  0.20965  0.30259  1.0000
  C   C1960     1.0  0.50376  0.28523  0.43996  1.0000
  H   H1576     1.0  0.49291  0.28186  0.45353  1.0000
  Fe  Fe135     1.0  0.56803  0.28451  0.33010  1.0000
  C   C1961     1.0  0.52995  0.27948  0.31874  1.0000
  C   C1962     1.0  0.51428  0.28644  0.31808  1.0000
  C   C1963     1.0  0.50327  0.27766  0.31677  1.0000
  C   C1964     1.0  0.50782  0.26175  0.31595  1.0000
  C   C1965     1.0  0.52344  0.25474  0.31723  1.0000
  C   C1966     1.0  0.53443  0.26349  0.31881  1.0000
  H   H1577     1.0  0.73301  0.16085  0.27852  1.0000
  S   S269      1.0  0.57613  0.30149  0.35368  1.0000
  H   H1578     1.0  0.52709  0.24245  0.31667  1.0000
  H   H1579     1.0  0.54644  0.25796  0.31898  1.0000
  H   H1580     1.0  0.62543  0.28557  0.43363  1.0000
  H   H1581     1.0  0.54381  0.27657  0.14201  1.0000
  C   C1967     1.0  0.55924  0.25642  0.16491  1.0000
  H   H1582     1.0  0.72843  0.24235  0.02747  1.0000
  P   P66       1.0  0.72749  0.22246  0.25701  1.0000
  C   C1968     1.0  0.70986  0.29132  0.25629  1.0000
  C   C1969     1.0  0.49959  0.24981  0.44437  1.0000
  H   H1583     1.0  0.71833  0.26882  0.04027  1.0000
  S   S270      1.0  0.54365  0.29152  0.31588  1.0000
  S   S271      1.0  0.49462  0.25019  0.31254  1.0000
  C   C1970     1.0  0.65584  0.27018  0.30918  1.0000
  C   C1971     1.0  0.51749  0.27404  0.43766  1.0000
  C   C1972     1.0  0.53147  0.27869  0.42018  1.0000
  H   H1584     1.0  0.68847  0.26090  0.08279  1.0000
  C   C1973     1.0  0.56139  0.23072  0.42787  1.0000
  H   H1585     1.0  0.68481  0.26595  0.22832  1.0000
  H   H1586     1.0  0.67152  0.23590  0.47064  1.0000
  H   H1587     1.0  0.64114  0.28309  0.23319  1.0000
  C   C1974     1.0  0.53957  0.28231  0.22945  1.0000
  C   C1975     1.0  0.71846  0.20092  0.31662  1.0000
  H   H1588     1.0  0.50110  0.26499  0.39321  1.0000
  H   H1589     1.0  0.69932  0.09312  0.36423  1.0000
  C   C1976     1.0  0.51782  0.30518  0.40630  1.0000
  H   H1590     1.0  0.71953  0.29487  0.29879  1.0000
  H   H1591     1.0  0.54226  0.27040  0.41775  1.0000
  C   C1977     1.0  0.66405  0.14793  0.23266  1.0000
  H   H1592     1.0  0.64087  0.13395  0.27837  1.0000
  C   C1978     1.0  0.70758  0.23082  0.25244  1.0000
  C   C1979     1.0  0.72048  0.12750  0.25032  1.0000
  H   H1593     1.0  0.69620  0.23651  0.13311  1.0000
  H   H1594     1.0  0.60539  0.26735  0.45195  1.0000
  C   C1980     1.0  0.54785  0.23864  0.44625  1.0000
  H   H1595     1.0  0.64703  0.23901  0.05705  1.0000
  C   C1981     1.0  0.63934  0.30346  0.41537  1.0000
  C   C1982     1.0  0.66579  0.24770  0.47317  1.0000
  P   P67       1.0  0.65730  0.28971  0.40769  1.0000
  C   C1983     1.0  0.64278  0.20180  0.99553  1.0000
  C   C1984     1.0  0.65673  0.28209  0.36908  1.0000
  H   H1596     1.0  0.51067  0.29880  0.31779  1.0000
  C   C1985     1.0  0.53162  0.29422  0.40480  1.0000
  C   C1986     1.0  0.66400  0.28208  0.30581  1.0000
  C   C1987     1.0  0.66413  0.28829  0.33545  1.0000
  C   C1988     1.0  0.51549  0.30079  0.22487  1.0000
  H   H1597     1.0  0.65349  0.27021  0.18113  1.0000
  C   C1989     1.0  0.67493  0.29715  0.40240  1.0000
  C   C1990     1.0  0.67530  0.30946  0.41885  1.0000
  C   C1991     1.0  0.71685  0.20884  0.00794  1.0000
  C   C1992     1.0  0.51491  0.21954  0.20723  1.0000
  C   C1993     1.0  0.70248  0.29560  0.37862  1.0000
  C   C1994     1.0  0.68881  0.28990  0.38332  1.0000
  C   C1995     1.0  0.68798  0.25354  0.23704  1.0000
  C   C1996     1.0  0.70623  0.24182  0.12829  1.0000
  H   H1598     1.0  0.54812  0.23091  0.16066  1.0000
  H   H1599     1.0  0.67001  0.28670  0.28015  1.0000
  H   H1600     1.0  0.66991  0.29799  0.33195  1.0000
  C   C1997     1.0  0.65994  0.29859  0.06051  1.0000
  H   H1601     1.0  0.71170  0.25438  0.23610  1.0000
  C   C1998     1.0  0.73177  0.24465  0.09597  1.0000
  H   H1602     1.0  0.53421  0.30451  0.24629  1.0000
  C   C1999     1.0  0.73115  0.12403  0.27361  1.0000
  H   H1603     1.0  0.71310  0.29005  0.36374  1.0000
  H   H1604     1.0  0.68908  0.27983  0.37205  1.0000
  Fe  Fe136     1.0  0.58273  0.28087  0.39494  1.0000
  C   C2000     1.0  0.67713  0.24405  0.24155  1.0000
  H   H1605     1.0  0.67134  0.25651  0.41756  1.0000
  C   C2001     1.0  0.56452  0.27057  0.10486  1.0000
  H   H1606     1.0  0.61763  0.12346  0.30945  1.0000
  C   C2002     1.0  0.58528  0.27865  0.48415  1.0000
  C   C2003     1.0  0.65405  0.24924  0.09398  1.0000
  C   C2004     1.0  0.71947  0.23665  0.10471  1.0000
  H   H1607     1.0  0.54685  0.22585  0.35876  1.0000
  C   C2005     1.0  0.56107  0.22610  0.39630  1.0000
  C   C2006     1.0  0.57339  0.24605  0.15829  1.0000
  H   H1608     1.0  0.58644  0.22692  0.30841  1.0000
  C   C2007     1.0  0.71052  0.29918  0.28282  1.0000
  S   S272      1.0  0.60707  0.27464  0.36672  1.0000
  H   H1609     1.0  0.71195  0.18441  0.36315  1.0000
  H   H1610     1.0  0.71697  0.11814  0.24266  1.0000
  C   C2008     1.0  0.67064  0.24289  0.03950  1.0000
  H   H1611     1.0  0.65902  0.20360  0.31185  1.0000
  H   H1612     1.0  0.66548  0.24905  0.23652  1.0000
  S   S273      1.0  0.57382  0.28493  0.45084  1.0000
  C   C2009     1.0  0.68539  0.11340  0.33793  1.0000
  C   C2010     1.0  0.49470  0.25699  0.41211  1.0000
  C   C2011     1.0  0.53022  0.29672  0.23415  1.0000
  H   H1613     1.0  0.65541  0.15773  0.24043  1.0000
  S   S274      1.0  0.71904  0.27470  0.16470  1.0000
  H   H1614     1.0  0.64204  0.26572  0.39758  1.0000
  C   C2012     1.0  0.65634  0.24336  0.06267  1.0000
  C   C2013     1.0  0.58134  0.24538  0.26511  1.0000
  C   C2014     1.0  0.68281  0.12448  0.24686  1.0000
  C   C2015     1.0  0.54716  0.22923  0.38338  1.0000
  C   C2016     1.0  0.53793  0.23050  0.18102  1.0000
  P   P68       1.0  0.51681  0.25378  0.45459  1.0000
  C   C2017     1.0  0.51022  0.29060  0.21003  1.0000
  C   C2018     1.0  0.53362  0.23717  0.40161  1.0000
  C   C2019     1.0  0.66765  0.14636  0.19699  1.0000
  H   H1615     1.0  0.69792  0.22000  0.04268  1.0000
  C   C2020     1.0  0.68146  0.22799  0.25115  1.0000
  H   H1616     1.0  0.66192  0.15490  0.17745  1.0000
  H   H1617     1.0  0.69288  0.25004  0.02826  1.0000
  C   C2021     1.0  0.73129  0.25701  0.11291  1.0000
  C   C2022     1.0  0.66870  0.30516  0.19596  1.0000
  H   H1618     1.0  0.57225  0.22857  0.43751  1.0000
  H   H1619     1.0  0.68140  0.16496  0.25981  1.0000
  H   H1620     1.0  0.57167  0.22037  0.38156  1.0000
  H   H1621     1.0  0.67819  0.19247  0.26355  1.0000
  H   H1622     1.0  0.70773  0.20919  0.32128  1.0000
  C   C2023     1.0  0.51138  0.22892  0.23311  1.0000
  C   C2024     1.0  0.67011  0.28522  0.16150  1.0000
  C   C2025     1.0  0.67112  0.18526  0.28299  1.0000
  C   C2026     1.0  0.67892  0.13399  0.18615  1.0000
  C   C2027     1.0  0.65087  0.27811  0.47996  1.0000
  H   H1623     1.0  0.49313  0.30913  0.42504  1.0000
  H   H1624     1.0  0.68578  0.30101  0.14887  1.0000
  C   C2028     1.0  0.68035  0.28973  0.01390  1.0000
  C   C2029     1.0  0.60049  0.27038  0.47779  1.0000
  H   H1625     1.0  0.64337  0.24876  0.11291  1.0000
  H   H1626     1.0  0.69345  0.14991  0.32112  1.0000
  C   C2030     1.0  0.68202  0.24966  0.04652  1.0000
  H   H1627     1.0  0.52312  0.23982  0.39046  1.0000
  C   C2031     1.0  0.67174  0.13710  0.25787  1.0000
  H   H1628     1.0  0.61346  0.11522  0.37473  1.0000
  S   S275      1.0  0.61931  0.30756  0.29595  1.0000
  H   H1629     1.0  0.67574  0.27942  0.13929  1.0000
  C   C2032     1.0  0.70214  0.21800  0.01583  1.0000
  H   H1630     1.0  0.69579  0.25753  0.16475  1.0000
  C   C2033     1.0  0.55854  0.24559  0.24085  1.0000
  C   C2034     1.0  0.66545  0.28964  0.03375  1.0000
  C   C2035     1.0  0.66497  0.16099  0.00972  1.0000
  C   C2036     1.0  0.57863  0.23213  0.28971  1.0000
  C   C2037     1.0  0.56598  0.22551  0.28991  1.0000
  C   C2038     1.0  0.55591  0.23225  0.26579  1.0000
  H   H1631     1.0  0.71242  0.28960  0.06997  1.0000
  C   C2039     1.0  0.68643  0.12300  0.21110  1.0000
  C   C2040     1.0  0.67289  0.16963  0.28078  1.0000
  H   H1632     1.0  0.64292  0.18688  0.35595  1.0000
  H   H1633     1.0  0.54242  0.29764  0.39076  1.0000
  H   H1634     1.0  0.51538  0.26873  0.19257  1.0000
  C   C2041     1.0  0.66040  0.19145  0.31022  1.0000
  H   H1635     1.0  0.72375  0.20403  0.02863  1.0000
  H   H1636     1.0  0.54858  0.26607  0.48507  1.0000
  C   C2042     1.0  0.70639  0.12976  0.34910  1.0000
  C   C2043     1.0  0.72002  0.26695  0.01334  1.0000
  C   C2044     1.0  0.65623  0.21269  0.02860  1.0000
  C   C2045     1.0  0.64696  0.20230  0.02748  1.0000
  C   C2046     1.0  0.69666  0.22133  0.25639  1.0000
  C   C2047     1.0  0.65763  0.28000  0.18520  1.0000
  H   H1637     1.0  0.72541  0.26196  0.32910  1.0000
  H   H1638     1.0  0.53093  0.21300  0.16121  1.0000
  C   C2048     1.0  0.72954  0.15156  0.27051  1.0000
  H   H1639     1.0  0.56406  0.21508  0.30862  1.0000
  H   H1640     1.0  0.54622  0.22686  0.26655  1.0000
  C   C2049     1.0  0.63458  0.12120  0.38045  1.0000
  C   C2050     1.0  0.62372  0.11983  0.36117  1.0000
  C   C2051     1.0  0.62608  0.12446  0.32440  1.0000
  C   C2052     1.0  0.63933  0.13039  0.30682  1.0000
  C   C2053     1.0  0.65040  0.13161  0.32596  1.0000
  C   C2054     1.0  0.64784  0.12713  0.36297  1.0000
  P   P69       1.0  0.66738  0.13958  0.30374  1.0000
  C   C2055     1.0  0.68353  0.12950  0.32569  1.0000
  C   C2056     1.0  0.67956  0.25584  0.07743  1.0000
  C   C2057     1.0  0.64799  0.26432  0.34232  1.0000
  C   C2058     1.0  0.72573  0.25186  0.00632  1.0000
  H   H1641     1.0  0.71790  0.10764  0.37404  1.0000
  C   C2059     1.0  0.50388  0.30070  0.42400  1.0000
  H   H1642     1.0  0.50732  0.21172  0.20731  1.0000
  H   H1643     1.0  0.71390  0.24561  0.30312  1.0000
  H   H1644     1.0  0.71479  0.13599  0.35258  1.0000
  H   H1645     1.0  0.59407  0.24011  0.12057  1.0000
  H   H1646     1.0  0.68895  0.11596  0.26554  1.0000
  C   C2060     1.0  0.65786  0.27462  0.44628  1.0000
  C   C2061     1.0  0.68986  0.29877  0.02072  1.0000
  H   H1647     1.0  0.65830  0.28238  0.02879  1.0000
  H   H1648     1.0  0.68189  0.13306  0.15831  1.0000
  H   H1649     1.0  0.70000  0.20880  0.26225  1.0000
  C   C2062     1.0  0.69769  0.10558  0.35550  1.0000
  C   C2063     1.0  0.66092  0.22306  0.99798  1.0000
  C   C2064     1.0  0.70322  0.24693  0.24176  1.0000
  H   H1650     1.0  0.59127  0.25037  0.26486  1.0000
  C   C2065     1.0  0.70814  0.11377  0.36120  1.0000
  C   C2066     1.0  0.66573  0.25527  0.10158  1.0000
  H   H1651     1.0  0.71293  0.31323  0.38875  1.0000
  C   C2067     1.0  0.58311  0.24808  0.12536  1.0000
  C   C2068     1.0  0.68400  0.30822  0.04670  1.0000
  C   C2069     1.0  0.70584  0.25402  0.14558  1.0000
  H   H1652     1.0  0.66411  0.25928  0.12642  1.0000
  H   H1653     1.0  0.64381  0.19399  0.05096  1.0000
  C   C2070     1.0  0.65641  0.29958  0.22015  1.0000
  C   C2071     1.0  0.72132  0.30356  0.02056  1.0000
  C   C2072     1.0  0.57869  0.26036  0.09867  1.0000
  C   C2073     1.0  0.71867  0.26114  0.13907  1.0000
  C   C2074     1.0  0.72635  0.24485  0.29739  1.0000
  H   H1654     1.0  0.57397  0.26210  0.22119  1.0000
  H   H1655     1.0  0.69895  0.29151  0.21280  1.0000
  C   C2075     1.0  0.49126  0.23916  0.46777  1.0000
  C   C2076     1.0  0.55478  0.26859  0.13780  1.0000
  C   C2077     1.0  0.51967  0.27633  0.20454  1.0000
  C   C2078     1.0  0.64840  0.27025  0.37220  1.0000
  H   H1656     1.0  0.66020  0.21214  0.05306  1.0000
  H   H1657     1.0  0.57693  0.23638  0.17856  1.0000
  P   P70       1.0  0.67384  0.23568  0.99861  1.0000
  C   C2079     1.0  0.65077  0.28718  0.21452  1.0000
  H   H1658     1.0  0.49135  0.28328  0.31569  1.0000
  C   C2080     1.0  0.62543  0.29790  0.42842  1.0000
  C   C2081     1.0  0.66558  0.25938  0.44316  1.0000
  H   H1659     1.0  0.55066  0.27934  0.23808  1.0000
  C   C2082     1.0  0.57142  0.25204  0.24060  1.0000
  C   C2083     1.0  0.69896  0.29747  0.23392  1.0000
  C   C2084     1.0  0.52108  0.23907  0.23295  1.0000
  H   H1660     1.0  0.51818  0.24630  0.25309  1.0000
  C   C2085     1.0  0.70245  0.30855  0.39296  1.0000
  C   C2086     1.0  0.72090  0.18699  0.34067  1.0000
  C   C2087     1.0  0.72030  0.29739  0.05688  1.0000
  H   H1661     1.0  0.65838  0.15360  0.00333  1.0000
  C   C2088     1.0  0.53436  0.27193  0.21472  1.0000
  H   H1662     1.0  0.49873  0.29368  0.20314  1.0000
  H   H1663     1.0  0.64506  0.28982  0.48324  1.0000
  H   H1664     1.0  0.72544  0.20004  0.21609  1.0000
  H   H1665     1.0  0.54843  0.24246  0.47014  1.0000
  H   H1666     1.0  0.64849  0.29830  0.07628  1.0000
  C   C2089     1.0  0.73354  0.20709  0.20011  1.0000
  H   H1667     1.0  0.65125  0.30460  0.24370  1.0000
  H   H1668     1.0  0.60065  0.30385  0.44440  1.0000
  C   C2090     1.0  0.69986  0.31286  0.28786  1.0000
  P   P71       1.0  0.70906  0.29884  0.99483  1.0000
  C   C2091     1.0  0.66918  0.30794  0.06685  1.0000
  H   H1669     1.0  0.72873  0.29633  0.10476  1.0000
  C   C2092     1.0  0.61134  0.30822  0.43476  1.0000
  C   C2093     1.0  0.72947  0.30128  0.07695  1.0000
  C   C2094     1.0  0.68882  0.31169  0.23736  1.0000
  C   C2095     1.0  0.72982  0.20406  0.28679  1.0000
  C   C2096     1.0  0.73284  0.25400  0.31262  1.0000
  H   H1670     1.0  0.63635  0.19315  0.99427  1.0000
  H   H1671     1.0  0.50290  0.31055  0.48689  1.0000
  H   H1672     1.0  0.68449  0.28261  0.99350  1.0000
  H   H1673     1.0  0.55674  0.31318  0.47564  1.0000
  H   H1674     1.0  0.50809  0.31175  0.22967  1.0000
  C   C2097     1.0  0.73488  0.17636  0.33569  1.0000
  C   C2098     1.0  0.73175  0.31367  0.00492  1.0000
  C   C2099     1.0  0.68077  0.18074  0.99140  1.0000
  H   H1675     1.0  0.49019  0.21676  0.60838  1.0000
  H   H1676     1.0  0.71755  0.20913  0.92090  1.0000
  S   S276      1.0  0.50310  0.25867  0.66056  1.0000
  C   C2100     1.0  0.65606  0.26063  0.96066  1.0000
  C   C2101     1.0  0.64776  0.21178  0.96473  1.0000
  C   C2102     1.0  0.72043  0.15785  0.76497  1.0000
  C   C2103     1.0  0.73287  0.16116  0.77622  1.0000
  C   C2104     1.0  0.72320  0.14750  0.74099  1.0000
  C   C2105     1.0  0.69677  0.27366  0.72706  1.0000
  Fe  Fe137     1.0  0.60354  0.28081  0.69350  1.0000
  H   H1677     1.0  0.65969  0.27650  0.74671  1.0000
  S   S277      1.0  0.61188  0.27176  0.74598  1.0000
  Fe  Fe138     1.0  0.60444  0.27889  0.61654  1.0000
  H   H1678     1.0  0.70065  0.14317  0.84529  1.0000
  Fe  Fe139     1.0  0.57552  0.29584  0.65770  1.0000
  C   C2106     1.0  0.72095  0.14174  0.91001  1.0000
  H   H1679     1.0  0.51730  0.30918  0.65535  1.0000
  S   S278      1.0  0.58866  0.27131  0.66705  1.0000
  Fe  Fe140     1.0  0.67285  0.20168  0.81272  1.0000
  S   S279      1.0  0.68375  0.17741  0.83585  1.0000
  S   S280      1.0  0.65808  0.20699  0.76994  1.0000
  Fe  Fe141     1.0  0.68866  0.21639  0.85314  1.0000
  S   S281      1.0  0.70138  0.19379  0.87909  1.0000
  S   S282      1.0  0.68979  0.23873  0.86808  1.0000
  Fe  Fe142     1.0  0.70574  0.18670  0.82563  1.0000
  C   C2107     1.0  0.66706  0.29049  0.80265  1.0000
  Fe  Fe143     1.0  0.67871  0.18620  0.88769  1.0000
  S   S283      1.0  0.66943  0.17159  0.93899  1.0000
  S   S284      1.0  0.69528  0.21032  0.79877  1.0000
  S   S285      1.0  0.66550  0.20940  0.86551  1.0000
  C   C2108     1.0  0.65211  0.29480  0.79396  1.0000
  H   H1680     1.0  0.67626  0.29647  0.78785  1.0000
  C   C2109     1.0  0.60313  0.27018  0.53843  1.0000
  H   H1681     1.0  0.70869  0.16335  0.77448  1.0000
  C   C2110     1.0  0.70919  0.29657  0.80630  1.0000
  C   C2111     1.0  0.60942  0.26613  0.50498  1.0000
  S   S286      1.0  0.73005  0.17425  0.80584  1.0000
  C   C2112     1.0  0.62558  0.25427  0.75085  1.0000
  C   C2113     1.0  0.62929  0.24451  0.72569  1.0000
  C   C2114     1.0  0.63950  0.23015  0.73148  1.0000
  C   C2115     1.0  0.64631  0.22562  0.76207  1.0000
  C   C2116     1.0  0.64298  0.23564  0.78664  1.0000
  C   C2117     1.0  0.63253  0.24984  0.78119  1.0000
  H   H1682     1.0  0.62408  0.24792  0.70211  1.0000
  H   H1683     1.0  0.64202  0.22245  0.71241  1.0000
  H   H1684     1.0  0.64812  0.23225  0.81031  1.0000
  H   H1685     1.0  0.62967  0.25734  0.80073  1.0000
  C   C2118     1.0  0.51576  0.27108  0.66157  1.0000
  C   C2119     1.0  0.51088  0.28721  0.65747  1.0000
  C   C2120     1.0  0.52126  0.29673  0.65808  1.0000
  C   C2121     1.0  0.53674  0.29032  0.66184  1.0000
  C   C2122     1.0  0.54170  0.27419  0.66548  1.0000
  C   C2123     1.0  0.53115  0.26461  0.66618  1.0000
  H   H1686     1.0  0.49905  0.29235  0.65416  1.0000
  C   C2124     1.0  0.51563  0.24975  0.50213  1.0000
  H   H1687     1.0  0.55357  0.26911  0.66848  1.0000
  H   H1688     1.0  0.53503  0.25216  0.66944  1.0000
  C   C2125     1.0  0.58781  0.27815  0.54486  1.0000
  C   C2126     1.0  0.71379  0.25340  0.86123  1.0000
  H   H1689     1.0  0.58272  0.28094  0.57080  1.0000
  S   S287      1.0  0.54921  0.30286  0.66309  1.0000
  C   C2127     1.0  0.71878  0.27624  0.95125  1.0000
  H   H1690     1.0  0.72009  0.14695  0.93299  1.0000
  H   H1691     1.0  0.66147  0.26000  0.86933  1.0000
  C   C2128     1.0  0.50746  0.25800  0.55940  1.0000
  H   H1692     1.0  0.51231  0.24056  0.60467  1.0000
  C   C2129     1.0  0.64059  0.28645  0.81291  1.0000
  H   H1693     1.0  0.64610  0.25573  0.97511  1.0000
  C   C2130     1.0  0.53789  0.28809  0.50033  1.0000
  H   H1694     1.0  0.63511  0.26745  0.85431  1.0000
  C   C2131     1.0  0.57894  0.28238  0.51779  1.0000
  C   C2132     1.0  0.71102  0.27662  0.70681  1.0000
  H   H1695     1.0  0.56714  0.28863  0.52298  1.0000
  S   S288      1.0  0.62050  0.28592  0.64386  1.0000
  H   H1696     1.0  0.64222  0.28044  0.93281  1.0000
  C   C2133     1.0  0.70422  0.24664  0.72029  1.0000
  H   H1697     1.0  0.68204  0.27441  0.83593  1.0000
  H   H1698     1.0  0.60249  0.30719  0.52410  1.0000
  H   H1699     1.0  0.73360  0.20026  0.87019  1.0000
  H   H1700     1.0  0.69141  0.27887  0.90931  1.0000
  C   C2134     1.0  0.73519  0.12409  0.86976  1.0000
  H   H1701     1.0  0.66109  0.22955  0.94139  1.0000
  H   H1702     1.0  0.70168  0.23502  0.72601  1.0000
  C   C2135     1.0  0.53762  0.27240  0.56984  1.0000
  H   H1703     1.0  0.64546  0.26914  0.53571  1.0000
  C   C2136     1.0  0.71136  0.30242  0.74214  1.0000
  H   H1704     1.0  0.73279  0.23734  0.96651  1.0000
  C   C2137     1.0  0.69866  0.22063  0.95538  1.0000
  H   H1705     1.0  0.71357  0.27933  0.77351  1.0000
  H   H1706     1.0  0.73071  0.24617  0.76553  1.0000
  C   C2138     1.0  0.65613  0.28445  0.66023  1.0000
  H   H1707     1.0  0.65844  0.24216  0.52974  1.0000
  H   H1708     1.0  0.59286  0.31282  0.75507  1.0000
  H   H1709     1.0  0.69865  0.15451  0.89874  1.0000
  C   C2139     1.0  0.71340  0.21166  0.94738  1.0000
  H   H1710     1.0  0.66483  0.29209  0.89999  1.0000
  H   H1711     1.0  0.66347  0.26347  0.69585  1.0000
  C   C2140     1.0  0.70884  0.14605  0.89067  1.0000
  C   C2141     1.0  0.71672  0.27936  0.98570  1.0000
  C   C2142     1.0  0.70713  0.31234  0.80738  1.0000
  C   C2143     1.0  0.72475  0.26121  0.94442  1.0000
  C   C2144     1.0  0.65116  0.26643  0.50987  1.0000
  C   C2145     1.0  0.64806  0.30790  0.68571  1.0000
  C   C2146     1.0  0.65200  0.29961  0.71810  1.0000
  H   H1712     1.0  0.72354  0.12408  0.82666  1.0000
  H   H1713     1.0  0.69543  0.25414  0.95140  1.0000
  H   H1714     1.0  0.68270  0.25628  0.75077  1.0000
  S   S289      1.0  0.59058  0.30292  0.60563  1.0000
  H   H1715     1.0  0.50229  0.26708  0.57500  1.0000
  C   C2147     1.0  0.72817  0.24900  0.97188  1.0000
  H   H1716     1.0  0.52723  0.29452  0.58529  1.0000
  H   H1717     1.0  0.52622  0.22543  0.50409  1.0000
  C   C2148     1.0  0.65745  0.28347  0.72160  1.0000
  C   C2149     1.0  0.67218  0.17124  0.98262  1.0000
  C   C2150     1.0  0.65958  0.27597  0.69272  1.0000
  S   S290      1.0  0.58913  0.30498  0.68808  1.0000
  H   H1718     1.0  0.68633  0.18878  0.97071  1.0000
  H   H1719     1.0  0.65746  0.27858  0.63806  1.0000
  C   C2151     1.0  0.72253  0.20575  0.97366  1.0000
  C   C2152     1.0  0.65020  0.30039  0.65685  1.0000
  H   H1720     1.0  0.62049  0.30078  0.74478  1.0000
  H   H1721     1.0  0.55030  0.30767  0.56560  1.0000
  H   H1722     1.0  0.50407  0.27304  0.51037  1.0000
  C   C2153     1.0  0.65849  0.25121  0.50648  1.0000
  H   H1723     1.0  0.72968  0.21330  0.80991  1.0000
  C   C2154     1.0  0.68153  0.27382  0.92378  1.0000
  H   H1724     1.0  0.71353  0.14506  0.73222  1.0000
  H   H1725     1.0  0.70676  0.23690  0.79766  1.0000
  C   C2155     1.0  0.54372  0.26431  0.54177  1.0000
  C   C2156     1.0  0.55541  0.19251  0.74954  1.0000
  C   C2157     1.0  0.54459  0.19340  0.78082  1.0000
  C   C2158     1.0  0.54363  0.20505  0.80019  1.0000
  C   C2159     1.0  0.55340  0.21588  0.78817  1.0000
  C   C2160     1.0  0.56401  0.21529  0.75633  1.0000
  C   C2161     1.0  0.56519  0.20333  0.73746  1.0000
  P   P72       1.0  0.57719  0.22870  0.74213  1.0000
  C   C2162     1.0  0.56741  0.24793  0.74959  1.0000
  C   C2163     1.0  0.59305  0.22068  0.76628  1.0000
  C   C2164     1.0  0.59341  0.22589  0.79731  1.0000
  C   C2165     1.0  0.60571  0.21958  0.81586  1.0000
  C   C2166     1.0  0.61750  0.20777  0.80412  1.0000
  C   C2167     1.0  0.61698  0.20219  0.77392  1.0000
  C   C2168     1.0  0.60472  0.20848  0.75527  1.0000
  C   C2169     1.0  0.57596  0.25851  0.75350  1.0000
  C   C2170     1.0  0.56883  0.27390  0.75574  1.0000
  C   C2171     1.0  0.55312  0.27892  0.75345  1.0000
  C   C2172     1.0  0.54450  0.26848  0.74950  1.0000
  C   C2173     1.0  0.55162  0.25306  0.74732  1.0000
  C   C2174     1.0  0.58334  0.23113  0.69472  1.0000
  C   C2175     1.0  0.57219  0.23398  0.67275  1.0000
  C   C2176     1.0  0.57652  0.23713  0.63592  1.0000
  C   C2177     1.0  0.59202  0.23745  0.62076  1.0000
  C   C2178     1.0  0.60317  0.23472  0.64242  1.0000
  C   C2179     1.0  0.59885  0.23172  0.67928  1.0000
  H   H1726     1.0  0.55634  0.18332  0.73483  1.0000
  H   H1727     1.0  0.53709  0.18494  0.79027  1.0000
  H   H1728     1.0  0.53542  0.20561  0.82472  1.0000
  H   H1729     1.0  0.55276  0.22468  0.80378  1.0000
  H   H1730     1.0  0.57374  0.20228  0.71360  1.0000
  H   H1731     1.0  0.58431  0.23488  0.80720  1.0000
  H   H1732     1.0  0.60626  0.22399  0.83906  1.0000
  H   H1733     1.0  0.62725  0.20313  0.81796  1.0000
  H   H1734     1.0  0.62635  0.19321  0.76463  1.0000
  H   H1735     1.0  0.60448  0.20394  0.73202  1.0000
  H   H1736     1.0  0.58831  0.25503  0.75341  1.0000
  H   H1737     1.0  0.57567  0.28204  0.75796  1.0000
  H   H1738     1.0  0.54776  0.29102  0.75358  1.0000
  H   H1739     1.0  0.53246  0.27253  0.74648  1.0000
  H   H1740     1.0  0.54491  0.24537  0.74251  1.0000
  H   H1741     1.0  0.56007  0.23417  0.68411  1.0000
  H   H1742     1.0  0.56783  0.23972  0.61910  1.0000
  H   H1743     1.0  0.59536  0.24028  0.59225  1.0000
  H   H1744     1.0  0.61507  0.23559  0.63055  1.0000
  H   H1745     1.0  0.60754  0.23048  0.69547  1.0000
  C   C2180     1.0  0.72729  0.25874  0.84305  1.0000
  C   C2181     1.0  0.65382  0.27469  0.93701  1.0000
  H   H1746     1.0  0.62915  0.28908  0.80593  1.0000
  H   H1747     1.0  0.48917  0.17229  0.74520  1.0000
  C   C2182     1.0  0.70510  0.30948  0.66816  1.0000
  H   H1748     1.0  0.70958  0.28814  0.83048  1.0000
  H   H1749     1.0  0.62122  0.25983  0.49999  1.0000
  C   C2183     1.0  0.51315  0.24304  0.57614  1.0000
  C   C2184     1.0  0.51995  0.23136  0.55607  1.0000
  Fe  Fe144     1.0  0.60550  0.30957  0.63691  1.0000
  C   C2185     1.0  0.72178  0.26442  0.69306  1.0000
  C   C2186     1.0  0.66655  0.28129  0.91860  1.0000
  P   P73       1.0  0.71556  0.29581  0.70004  1.0000
  C   C2187     1.0  0.53255  0.29646  0.52831  1.0000
  C   C2188     1.0  0.68380  0.25975  0.94738  1.0000
  C   C2189     1.0  0.52112  0.23467  0.51922  1.0000
  H   H1750     1.0  0.52432  0.21976  0.56909  1.0000
  C   C2190     1.0  0.70991  0.13958  0.86071  1.0000
  H   H1751     1.0  0.68837  0.28289  0.73796  1.0000
  H   H1752     1.0  0.64685  0.30690  0.63211  1.0000
  C   C2191     1.0  0.53188  0.28840  0.56324  1.0000
  S   S291      1.0  0.61446  0.26531  0.57201  1.0000
  H   H1753     1.0  0.70900  0.25535  0.88783  1.0000
  H   H1754     1.0  0.69147  0.22459  0.93526  1.0000
  C   C2192     1.0  0.64394  0.27407  0.84027  1.0000
  C   C2193     1.0  0.72607  0.24805  0.79237  1.0000
  C   C2194     1.0  0.70652  0.24535  0.84503  1.0000
  C   C2195     1.0  0.69347  0.25869  0.73411  1.0000
  P   P74       1.0  0.64839  0.30941  0.75564  1.0000
  C   C2196     1.0  0.67040  0.27801  0.82985  1.0000
  C   C2197     1.0  0.65682  0.22236  0.96586  1.0000
  C   C2198     1.0  0.72301  0.12868  0.85022  1.0000
  H   H1755     1.0  0.54839  0.25198  0.54692  1.0000
  H   H1756     1.0  0.64509  0.21085  0.93973  1.0000
  C   C2199     1.0  0.71258  0.24275  0.81056  1.0000
  C   C2200     1.0  0.65883  0.26982  0.84862  1.0000
  H   H1757     1.0  0.68830  0.29539  0.66906  1.0000
  H   H1758     1.0  0.72694  0.25912  0.91766  1.0000
  H   H1759     1.0  0.49490  0.23325  0.49245  1.0000
  C   C2201     1.0  0.50863  0.26136  0.52258  1.0000
  C   C2202     1.0  0.67110  0.25299  0.96569  1.0000
  C   C2203     1.0  0.71139  0.29162  0.77386  1.0000
  C   C2204     1.0  0.69242  0.30610  0.65763  1.0000
  C   C2205     1.0  0.61705  0.31165  0.75464  1.0000
  H   H1760     1.0  0.71611  0.28533  0.92928  1.0000
  H   H1761     1.0  0.73220  0.30516  0.93114  1.0000
  H   H1762     1.0  0.53742  0.26625  0.59669  1.0000
  H   H1763     1.0  0.49521  0.19192  0.69175  1.0000
  C   C2206     1.0  0.71834  0.24951  0.69970  1.0000
  H   H1764     1.0  0.49103  0.20553  0.87120  1.0000
  H   H1765     1.0  0.73387  0.19859  0.96764  1.0000
  C   C2207     1.0  0.73332  0.25613  0.80858  1.0000
  H   H1766     1.0  0.72677  0.24009  0.68950  1.0000
  C   C2208     1.0  0.54366  0.27215  0.50705  1.0000
  C   C2209     1.0  0.48624  0.19521  0.71356  1.0000
  C   C2210     1.0  0.70816  0.31278  0.95407  1.0000
  H   H1767     1.0  0.73296  0.26621  0.67782  1.0000
  C   C2211     1.0  0.73411  0.13087  0.89954  1.0000
  H   H1768     1.0  0.73336  0.29683  0.62807  1.0000
  H   H1769     1.0  0.73293  0.26506  0.85528  1.0000
  C   C2212     1.0  0.72142  0.31323  0.92763  1.0000
  C   C2213     1.0  0.69304  0.22420  0.98934  1.0000
  Fe  Fe145     1.0  0.67150  0.39922  0.33686  1.0000
  S   S292      1.0  0.69503  0.38385  0.33488  1.0000
  S   S293      1.0  0.66595  0.42557  0.33429  1.0000
  Fe  Fe146     1.0  0.65526  0.37125  0.34450  1.0000
  S   S294      1.0  0.67754  0.35388  0.34454  1.0000
  S   S295      1.0  0.63163  0.36498  0.35007  1.0000
  Fe  Fe147     1.0  0.68328  0.36793  0.37931  1.0000
  S   S296      1.0  0.69381  0.35666  0.42792  1.0000
  Fe  Fe148     1.0  0.68721  0.37125  0.30016  1.0000
  S   S297      1.0  0.69992  0.36415  0.24822  1.0000
  S   S298      1.0  0.66006  0.38388  0.38359  1.0000
  S   S299      1.0  0.66451  0.38801  0.29803  1.0000
  Fe  Fe149     1.0  0.71135  0.52866  0.33835  1.0000
  S   S300      1.0  0.70045  0.51838  0.30448  1.0000
  H   H1770     1.0  0.65617  0.48262  0.40499  1.0000
  Fe  Fe150     1.0  0.69050  0.51636  0.40647  1.0000
  S   S301      1.0  0.67783  0.50528  0.37830  1.0000
  C   C2214     1.0  0.53905  0.57912  0.44143  1.0000
  Fe  Fe151     1.0  0.70138  0.49709  0.34773  1.0000
  S   S302      1.0  0.70985  0.47187  0.33906  1.0000
  Fe  Fe152     1.0  0.67767  0.52710  0.33774  1.0000
  S   S303      1.0  0.65706  0.54088  0.31315  1.0000
  S   S304      1.0  0.71421  0.50681  0.37921  1.0000
  S   S305      1.0  0.68832  0.53876  0.36837  1.0000
  C   C2215     1.0  0.66301  0.33743  0.21638  1.0000
  H   H1771     1.0  0.62459  0.34211  0.41035  1.0000
  C   C2216     1.0  0.54881  0.32096  0.45953  1.0000
  S   S306      1.0  0.56555  0.60736  0.43088  1.0000
  H   H1772     1.0  0.52098  0.34884  0.40057  1.0000
  Fe  Fe153     1.0  0.58735  0.59980  0.39342  1.0000
  S   S307      1.0  0.60153  0.57643  0.41313  1.0000
  H   H1773     1.0  0.65833  0.57692  0.31943  1.0000
  C   C2217     1.0  0.72986  0.53902  0.41751  1.0000
  S   S308      1.0  0.56159  0.64022  0.37602  1.0000
  H   H1774     1.0  0.61658  0.64241  0.41925  1.0000
  H   H1775     1.0  0.65290  0.57182  0.38481  1.0000
  Fe  Fe154     1.0  0.57369  0.62978  0.42211  1.0000
  C   C2218     1.0  0.52970  0.62370  0.48243  1.0000
  C   C2219     1.0  0.53052  0.55569  0.47492  1.0000
  H   H1776     1.0  0.68100  0.35008  0.21536  1.0000
  S   S309      1.0  0.59650  0.62165  0.38867  1.0000
  H   H1777     1.0  0.60484  0.36256  0.43174  1.0000
  H   H1778     1.0  0.70035  0.55874  0.47046  1.0000
  C   C2220     1.0  0.51560  0.61021  0.37805  1.0000
  C   C2221     1.0  0.52095  0.59776  0.35967  1.0000
  C   C2222     1.0  0.51025  0.59086  0.34987  1.0000
  H   H1779     1.0  0.70002  0.48672  0.44960  1.0000
  H   H1780     1.0  0.49533  0.62512  0.40102  1.0000
  C   C2223     1.0  0.49955  0.61563  0.38649  1.0000
  H   H1781     1.0  0.53328  0.59350  0.35293  1.0000
  H   H1782     1.0  0.51444  0.58119  0.33579  1.0000
  H   H1783     1.0  0.49161  0.61164  0.47788  1.0000
  C   C2224     1.0  0.69058  0.34112  0.10208  1.0000
  C   C2225     1.0  0.72005  0.34122  0.21707  1.0000
  C   C2226     1.0  0.72125  0.58419  0.35905  1.0000
  H   H1784     1.0  0.71563  0.50406  0.45928  1.0000
  C   C2227     1.0  0.64159  0.55058  0.34112  1.0000
  C   C2228     1.0  0.63037  0.56228  0.32620  1.0000
  C   C2229     1.0  0.61802  0.57033  0.34796  1.0000
  C   C2230     1.0  0.61680  0.56665  0.38478  1.0000
  C   C2231     1.0  0.62787  0.55476  0.39971  1.0000
  C   C2232     1.0  0.64032  0.54683  0.37797  1.0000
  H   H1785     1.0  0.63125  0.56514  0.29772  1.0000
  H   H1786     1.0  0.60935  0.57925  0.33627  1.0000
  H   H1787     1.0  0.62686  0.55177  0.42818  1.0000
  H   H1788     1.0  0.64889  0.53778  0.38966  1.0000
  C   C2233     1.0  0.68996  0.36989  0.45735  1.0000
  C   C2234     1.0  0.68635  0.38584  0.44477  1.0000
  H   H1789     1.0  0.60398  0.35358  0.35381  1.0000
  H   H1790     1.0  0.68610  0.39009  0.41690  1.0000
  C   C2235     1.0  0.70547  0.46518  0.42989  1.0000
  C   C2236     1.0  0.62867  0.34872  0.33527  1.0000
  C   C2237     1.0  0.61353  0.34579  0.34105  1.0000
  H   H1791     1.0  0.71086  0.31865  0.18093  1.0000
  C   C2238     1.0  0.62284  0.32275  0.31366  1.0000
  C   C2239     1.0  0.63801  0.32561  0.30808  1.0000
  C   C2240     1.0  0.64095  0.33846  0.31906  1.0000
  C   C2241     1.0  0.52304  0.33533  0.45248  1.0000
  H   H1792     1.0  0.56653  0.32283  0.41316  1.0000
  C   C2242     1.0  0.71209  0.55370  0.45962  1.0000
  H   H1793     1.0  0.65265  0.34057  0.31446  1.0000
  C   C2243     1.0  0.67827  0.43791  0.33805  1.0000
  C   C2244     1.0  0.69411  0.43259  0.33897  1.0000
  C   C2245     1.0  0.70360  0.44309  0.33940  1.0000
  C   C2246     1.0  0.69733  0.45896  0.33971  1.0000
  C   C2247     1.0  0.68141  0.46416  0.33998  1.0000
  C   C2248     1.0  0.67200  0.45372  0.33885  1.0000
  H   H1794     1.0  0.69910  0.42048  0.33825  1.0000
  H   H1795     1.0  0.71588  0.43893  0.33918  1.0000
  H   H1796     1.0  0.67641  0.47630  0.34019  1.0000
  H   H1797     1.0  0.65979  0.45799  0.33808  1.0000
  H   H1798     1.0  0.64203  0.32910  0.21713  1.0000
  C   C2249     1.0  0.65059  0.43162  0.47853  1.0000
  C   C2250     1.0  0.50308  0.63052  0.47306  1.0000
  C   C2251     1.0  0.62610  0.51023  0.43335  1.0000
  C   C2252     1.0  0.63832  0.50280  0.41065  1.0000
  C   C2253     1.0  0.64663  0.48814  0.42296  1.0000
  C   C2254     1.0  0.60804  0.40401  0.43918  1.0000
  H   H1799     1.0  0.58670  0.58684  0.47904  1.0000
  H   H1800     1.0  0.61977  0.52165  0.42373  1.0000
  H   H1801     1.0  0.64146  0.50848  0.38350  1.0000
  C   C2255     1.0  0.64978  0.62293  0.31830  1.0000
  C   C2256     1.0  0.63896  0.61426  0.33903  1.0000
  C   C2257     1.0  0.63114  0.60666  0.32310  1.0000
  C   C2258     1.0  0.63438  0.60737  0.28643  1.0000
  C   C2259     1.0  0.64533  0.61597  0.26531  1.0000
  C   C2260     1.0  0.65273  0.62404  0.28151  1.0000
  P   P75       1.0  0.64970  0.61659  0.21794  1.0000
  C   C2261     1.0  0.66835  0.62213  0.20019  1.0000
  C   C2262     1.0  0.65023  0.59743  0.20967  1.0000
  C   C2263     1.0  0.64423  0.59553  0.18099  1.0000
  C   C2264     1.0  0.64451  0.58063  0.17516  1.0000
  C   C2265     1.0  0.65083  0.56755  0.19778  1.0000
  C   C2266     1.0  0.65695  0.56936  0.22612  1.0000
  C   C2267     1.0  0.65666  0.58422  0.23208  1.0000
  H   H1802     1.0  0.50293  0.58312  0.43252  1.0000
  H   H1803     1.0  0.49298  0.63918  0.46746  1.0000
  C   C2268     1.0  0.68160  0.33585  0.13433  1.0000
  H   H1804     1.0  0.70521  0.54551  0.41877  1.0000
  C   C2269     1.0  0.66966  0.63780  0.19488  1.0000
  C   C2270     1.0  0.63490  0.63029  0.19672  1.0000
  C   C2271     1.0  0.63867  0.63833  0.16207  1.0000
  C   C2272     1.0  0.68559  0.64665  0.33284  1.0000
  P   P76       1.0  0.65424  0.46210  0.47376  1.0000
  C   C2273     1.0  0.49367  0.58094  0.45459  1.0000
  C   C2274     1.0  0.61938  0.63248  0.21389  1.0000
  C   C2275     1.0  0.51520  0.60339  0.48664  1.0000
  H   H1805     1.0  0.63644  0.61355  0.36736  1.0000
  H   H1806     1.0  0.62252  0.60026  0.33929  1.0000
  H   H1807     1.0  0.62827  0.60126  0.27462  1.0000
  H   H1808     1.0  0.66064  0.63131  0.26594  1.0000
  H   H1809     1.0  0.63926  0.60550  0.16320  1.0000
  H   H1810     1.0  0.63975  0.57921  0.15319  1.0000
  H   H1811     1.0  0.65096  0.55599  0.19349  1.0000
  H   H1812     1.0  0.66184  0.55920  0.24369  1.0000
  H   H1813     1.0  0.66143  0.58536  0.25421  1.0000
  C   C2276     1.0  0.71389  0.33037  0.12720  1.0000
  H   H1814     1.0  0.71373  0.34245  0.07358  1.0000
  C   C2277     1.0  0.65267  0.62174  0.42679  1.0000
  H   H1815     1.0  0.73566  0.36322  0.31260  1.0000
  C   C2278     1.0  0.64619  0.54032  0.48295  1.0000
  C   C2279     1.0  0.68325  0.39641  0.46814  1.0000
  H   H1816     1.0  0.65368  0.54188  0.45731  1.0000
  C   C2280     1.0  0.72729  0.60962  0.33323  1.0000
  H   H1817     1.0  0.61605  0.62649  0.24051  1.0000
  C   C2281     1.0  0.71481  0.54614  0.43066  1.0000
  C   C2282     1.0  0.49681  0.62539  0.27900  1.0000
  H   H1818     1.0  0.70720  0.44385  0.41155  1.0000
  C   C2283     1.0  0.72910  0.60079  0.21403  1.0000
  H   H1819     1.0  0.71483  0.57513  0.36067  1.0000
  C   C2284     1.0  0.65738  0.34700  0.45281  1.0000
  H   H1820     1.0  0.63639  0.36011  0.43595  1.0000
  C   C2285     1.0  0.60356  0.38624  0.40582  1.0000
  C   C2286     1.0  0.53302  0.32498  0.47373  1.0000
  C   C2287     1.0  0.52912  0.57188  0.46954  1.0000
  C   C2288     1.0  0.71502  0.34774  0.24793  1.0000
  H   H1821     1.0  0.60928  0.41556  0.44075  1.0000
  C   C2289     1.0  0.70673  0.33837  0.09851  1.0000
  C   C2290     1.0  0.61107  0.32416  0.42863  1.0000
  H   H1822     1.0  0.49930  0.60157  0.27331  1.0000
  C   C2291     1.0  0.60495  0.40116  0.40805  1.0000
  C   C2292     1.0  0.48731  0.64021  0.27644  1.0000
  C   C2293     1.0  0.60868  0.37683  0.46587  1.0000
  H   H1823     1.0  0.56129  0.54731  0.40971  1.0000
  H   H1824     1.0  0.59893  0.33076  0.33499  1.0000
  H   H1825     1.0  0.67931  0.59097  0.28738  1.0000
  H   H1826     1.0  0.66414  0.34861  0.42638  1.0000
  C   C2294     1.0  0.63680  0.62492  0.42588  1.0000
  H   H1827     1.0  0.51748  0.64712  0.46897  1.0000
  H   H1828     1.0  0.53779  0.59160  0.43540  1.0000
  C   C2295     1.0  0.72448  0.55441  0.47505  1.0000
  H   H1829     1.0  0.68118  0.32987  0.26953  1.0000
  C   C2296     1.0  0.60787  0.64270  0.19694  1.0000
  H   H1830     1.0  0.68102  0.59885  0.19469  1.0000
  C   C2297     1.0  0.64233  0.43685  0.41172  1.0000
  H   H1831     1.0  0.61267  0.50881  0.48592  1.0000
  H   H1832     1.0  0.65965  0.64661  0.20211  1.0000
  H   H1833     1.0  0.65558  0.62915  0.33059  1.0000
  H   H1834     1.0  0.69422  0.62426  0.36157  1.0000
  C   C2298     1.0  0.73316  0.58123  0.37872  1.0000
  H   H1835     1.0  0.66877  0.58029  0.41873  1.0000
  C   C2299     1.0  0.69565  0.47684  0.44688  1.0000
  C   C2300     1.0  0.55068  0.57026  0.42019  1.0000
  H   H1836     1.0  0.51680  0.63550  0.32674  1.0000
  H   H1837     1.0  0.71442  0.34615  0.19436  1.0000
  H   H1838     1.0  0.54320  0.53434  0.45785  1.0000
  C   C2301     1.0  0.68891  0.31538  0.41326  1.0000
  C   C2302     1.0  0.49418  0.59648  0.35790  1.0000
  H   H1839     1.0  0.64662  0.51633  0.48288  1.0000
  H   H1840     1.0  0.63969  0.43872  0.38527  1.0000
  C   C2303     1.0  0.63050  0.48834  0.48086  1.0000
  H   H1841     1.0  0.63059  0.61547  0.42992  1.0000
  C   C2304     1.0  0.70994  0.40284  0.25571  1.0000
  C   C2305     1.0  0.63668  0.35132  0.23261  1.0000
  C   C2306     1.0  0.64243  0.36363  0.23822  1.0000
  C   C2307     1.0  0.65840  0.36318  0.23150  1.0000
  C   C2308     1.0  0.66863  0.35025  0.22019  1.0000
  C   C2309     1.0  0.64928  0.44663  0.45813  1.0000
  H   H1842     1.0  0.66294  0.37272  0.23565  1.0000
  Fe  Fe155     1.0  0.55452  0.61720  0.38275  1.0000
  Fe  Fe156     1.0  0.58364  0.63026  0.34280  1.0000
  H   H1843     1.0  0.71029  0.39056  0.25766  1.0000
  H   H1844     1.0  0.55841  0.57597  0.39881  1.0000
  S   S310      1.0  0.56783  0.64309  0.46726  1.0000
  H   H1845     1.0  0.51093  0.33905  0.46305  1.0000
  S   S311      1.0  0.72594  0.54754  0.32394  1.0000
  C   C2310     1.0  0.69973  0.45257  0.42589  1.0000
  C   C2311     1.0  0.54212  0.54684  0.45351  1.0000
  H   H1846     1.0  0.60161  0.38392  0.38131  1.0000
  C   C2312     1.0  0.62214  0.50297  0.46838  1.0000
  H   H1847     1.0  0.62428  0.35161  0.23809  1.0000
  H   H1848     1.0  0.63452  0.37343  0.24816  1.0000
  C   C2313     1.0  0.66221  0.57783  0.37100  1.0000
  C   C2314     1.0  0.69695  0.51855  0.48838  1.0000
  C   C2315     1.0  0.66529  0.58074  0.33403  1.0000
  C   C2316     1.0  0.70497  0.32493  0.15933  1.0000
  H   H1849     1.0  0.66486  0.31497  0.08743  1.0000
  H   H1850     1.0  0.64916  0.40777  0.48121  1.0000
  C   C2317     1.0  0.68391  0.64226  0.18000  1.0000
  H   H1851     1.0  0.71863  0.34645  0.30098  1.0000
  C   C2318     1.0  0.71220  0.51045  0.48096  1.0000
  H   H1852     1.0  0.60018  0.33218  0.43347  1.0000
  H   H1853     1.0  0.72028  0.56479  0.23012  1.0000
  H   H1854     1.0  0.70590  0.60698  0.16823  1.0000
  C   C2319     1.0  0.68159  0.61101  0.19087  1.0000
  C   C2320     1.0  0.64370  0.42197  0.43213  1.0000
  C   C2321     1.0  0.55227  0.55412  0.42631  1.0000
  H   H1855     1.0  0.72323  0.41825  0.43936  1.0000
  H   H1856     1.0  0.68503  0.34744  0.07992  1.0000
  H   H1857     1.0  0.72146  0.37280  0.41820  1.0000
  C   C2322     1.0  0.72246  0.34146  0.27711  1.0000
  H   H1858     1.0  0.51796  0.31706  0.39321  1.0000
  C   C2323     1.0  0.69517  0.42913  0.24989  1.0000
  C   C2324     1.0  0.69617  0.41333  0.25061  1.0000
  H   H1859     1.0  0.64212  0.41237  0.42147  1.0000
  C   C2325     1.0  0.72912  0.36626  0.36670  1.0000
  H   H1860     1.0  0.70038  0.31905  0.30830  1.0000
  C   C2326     1.0  0.64513  0.44913  0.42455  1.0000
  C   C2327     1.0  0.60543  0.37412  0.43454  1.0000
  H   H1861     1.0  0.72291  0.40050  0.39592  1.0000
  H   H1862     1.0  0.67255  0.48531  0.47207  1.0000
  C   C2328     1.0  0.53844  0.64183  0.29986  1.0000
  C   C2329     1.0  0.67426  0.46326  0.45593  1.0000
  H   H1863     1.0  0.66515  0.31451  0.43597  1.0000
  C   C2330     1.0  0.64690  0.33833  0.22132  1.0000
  H   H1864     1.0  0.64451  0.46038  0.40766  1.0000
  C   C2331     1.0  0.62882  0.64028  0.42005  1.0000
  H   H1865     1.0  0.60390  0.41042  0.38539  1.0000
  C   C2332     1.0  0.69695  0.63116  0.17041  1.0000
  S   S312      1.0  0.68276  0.51772  0.46454  1.0000
  H   H1866     1.0  0.72552  0.62048  0.31480  1.0000
  C   C2333     1.0  0.60992  0.39192  0.46798  1.0000
  H   H1867     1.0  0.61408  0.64309  0.33608  1.0000
  H   H1868     1.0  0.68428  0.43715  0.24748  1.0000
  H   H1869     1.0  0.68610  0.40913  0.24835  1.0000
  C   C2334     1.0  0.64159  0.35357  0.45843  1.0000
  H   H1870     1.0  0.65882  0.60983  0.43126  1.0000
  H   H1871     1.0  0.71740  0.46613  0.41878  1.0000
  H   H1872     1.0  0.72775  0.35432  0.37645  1.0000
  C   C2335     1.0  0.54436  0.33645  0.40281  1.0000
  C   C2336     1.0  0.73520  0.32902  0.27489  1.0000
  C   C2337     1.0  0.66052  0.63396  0.42249  1.0000
  C   C2338     1.0  0.72884  0.58602  0.20842  1.0000
  C   C2339     1.0  0.71993  0.57653  0.23353  1.0000
  C   C2340     1.0  0.71140  0.58174  0.26440  1.0000
  C   C2341     1.0  0.71140  0.59668  0.26995  1.0000
  C   C2342     1.0  0.72056  0.60602  0.24479  1.0000
  P   P77       1.0  0.70243  0.60268  0.31183  1.0000
  C   C2343     1.0  0.69429  0.62318  0.30699  1.0000
  C   C2344     1.0  0.68666  0.59296  0.33495  1.0000
  C   C2345     1.0  0.68323  0.59033  0.37214  1.0000
  C   C2346     1.0  0.67113  0.58267  0.39007  1.0000
  H   H1873     1.0  0.64900  0.32435  0.39470  1.0000
  H   H1874     1.0  0.60008  0.62780  0.46257  1.0000
  C   C2347     1.0  0.67730  0.58851  0.31602  1.0000
  C   C2348     1.0  0.62483  0.32976  0.41560  1.0000
  H   H1875     1.0  0.72640  0.32835  0.12458  1.0000
  C   C2349     1.0  0.72180  0.42400  0.25904  1.0000
  H   H1876     1.0  0.68064  0.40874  0.45807  1.0000
  P   P78       1.0  0.67680  0.32052  0.20400  1.0000
  C   C2350     1.0  0.71794  0.59859  0.33692  1.0000
  H   H1877     1.0  0.68009  0.44161  0.43553  1.0000
  H   H1878     1.0  0.67693  0.33425  0.47730  1.0000
  C   C2351     1.0  0.68422  0.45150  0.43907  1.0000
  C   C2352     1.0  0.55441  0.32650  0.42413  1.0000
  C   C2353     1.0  0.69579  0.61555  0.17587  1.0000
  C   C2354     1.0  0.68873  0.32771  0.16321  1.0000
  H   H1879     1.0  0.70554  0.57373  0.28460  1.0000
  H   H1880     1.0  0.72151  0.61718  0.24943  1.0000
  H   H1881     1.0  0.68999  0.59405  0.38734  1.0000
  C   C2355     1.0  0.64767  0.41939  0.46567  1.0000
  H   H1882     1.0  0.73098  0.38926  0.20617  1.0000
  H   H1883     1.0  0.65048  0.63661  0.14781  1.0000
  C   C2356     1.0  0.52872  0.34100  0.41708  1.0000
  S   S313      1.0  0.52825  0.62007  0.38966  1.0000
  H   H1884     1.0  0.67278  0.63151  0.42367  1.0000
  C   C2357     1.0  0.64281  0.48076  0.45817  1.0000
  H   H1885     1.0  0.69198  0.62613  0.25199  1.0000
  S   S314      1.0  0.57573  0.60780  0.34530  1.0000
  H   H1886     1.0  0.64751  0.31798  0.29482  1.0000
  C   C2358     1.0  0.68900  0.31910  0.26534  1.0000
  C   C2359     1.0  0.72507  0.42274  0.46128  1.0000
  C   C2360     1.0  0.70801  0.43448  0.25390  1.0000
  C   C2361     1.0  0.61065  0.33278  0.33070  1.0000
  C   C2362     1.0  0.52236  0.64309  0.30504  1.0000
  H   H1887     1.0  0.50765  0.62307  0.28860  1.0000
  C   C2363     1.0  0.69044  0.63172  0.27465  1.0000
  C   C2364     1.0  0.69156  0.63070  0.33625  1.0000
  H   H1888     1.0  0.73165  0.53335  0.39490  1.0000
  H   H1889     1.0  0.48751  0.54023  0.43730  1.0000
  C   C2365     1.0  0.68006  0.47601  0.45949  1.0000
  H   H1890     1.0  0.69091  0.31571  0.05164  1.0000
  H   H1891     1.0  0.54872  0.34058  0.37523  1.0000
  H   H1892     1.0  0.66908  0.33811  0.13686  1.0000
  H   H1893     1.0  0.54515  0.63325  0.31753  1.0000
  H   H1894     1.0  0.70702  0.44668  0.25465  1.0000
  H   H1895     1.0  0.70795  0.63469  0.15864  1.0000
  C   C2366     1.0  0.72633  0.39232  0.37774  1.0000
  C   C2367     1.0  0.48889  0.60893  0.37623  1.0000
  C   C2368     1.0  0.63881  0.31954  0.40751  1.0000
  H   H1896     1.0  0.68905  0.32531  0.42459  1.0000
  H   H1897     1.0  0.73565  0.57012  0.39567  1.0000
  C   C2369     1.0  0.72546  0.37672  0.39030  1.0000
  C   C2370     1.0  0.66458  0.33882  0.48137  1.0000
  C   C2371     1.0  0.73255  0.32860  0.21512  1.0000
  C   C2372     1.0  0.72292  0.40808  0.25966  1.0000
  C   C2373     1.0  0.59616  0.63137  0.48807  1.0000
  C   C2374     1.0  0.51682  0.63497  0.47434  1.0000
  H   H1898     1.0  0.59598  0.64453  0.21081  1.0000
  S   S315      1.0  0.59181  0.64504  0.29045  1.0000
  C   C2375     1.0  0.50232  0.61481  0.47894  1.0000
  C   C2376     1.0  0.49212  0.61309  0.27026  1.0000
  C   C2377     1.0  0.49563  0.58033  0.48942  1.0000
  H   H1899     1.0  0.73134  0.40966  0.33217  1.0000
  H   H1900     1.0  0.54034  0.62717  0.48358  1.0000
  C   C2378     1.0  0.73107  0.39745  0.34161  1.0000
  C   C2379     1.0  0.73371  0.37137  0.33047  1.0000
  H   H1901     1.0  0.73131  0.42834  0.26385  1.0000
  C   C2380     1.0  0.73494  0.38699  0.31771  1.0000
  C   C2381     1.0  0.52883  0.60795  0.48904  1.0000
  H   H1902     1.0  0.64408  0.56377  0.49002  1.0000
  H   H1903     1.0  0.67233  0.34505  0.79729  1.0000
  H   H1904     1.0  0.56067  0.32251  0.59753  1.0000
  S   S316      1.0  0.61828  0.32946  0.61278  1.0000
  H   H1905     1.0  0.50356  0.32956  0.57832  1.0000
  S   S317      1.0  0.70074  0.53218  0.70628  1.0000
  C   C2382     1.0  0.63203  0.55304  0.62702  1.0000
  Fe  Fe157     1.0  0.72075  0.52346  0.61241  1.0000
  S   S318      1.0  0.69675  0.51945  0.63588  1.0000
  C   C2383     1.0  0.59780  0.31945  0.51667  1.0000
  Fe  Fe158     1.0  0.69317  0.54231  0.65362  1.0000
  S   S319      1.0  0.67343  0.56093  0.63674  1.0000
  Fe  Fe159     1.0  0.70635  0.50931  0.68565  1.0000
  S   S320      1.0  0.70162  0.48572  0.71639  1.0000
  S   S321      1.0  0.71654  0.54717  0.62599  1.0000
  C   C2384     1.0  0.71955  0.45853  0.56336  1.0000
  Fe  Fe160     1.0  0.67958  0.39708  0.59097  1.0000
  S   S322      1.0  0.65981  0.40787  0.62881  1.0000
  S   S323      1.0  0.67847  0.40486  0.53285  1.0000
  Fe  Fe161     1.0  0.69725  0.38007  0.65073  1.0000
  S   S324      1.0  0.67871  0.38992  0.69286  1.0000
  S   S325      1.0  0.71883  0.36177  0.65828  1.0000
  Fe  Fe162     1.0  0.66230  0.38431  0.66313  1.0000
  S   S326      1.0  0.64168  0.37288  0.69059  1.0000
  Fe  Fe163     1.0  0.67813  0.41265  0.65412  1.0000
  S   S327      1.0  0.67419  0.43827  0.65887  1.0000
  S   S328      1.0  0.68090  0.37323  0.62341  1.0000
  S   S329      1.0  0.69774  0.40304  0.61397  1.0000
  Fe  Fe164     1.0  0.57139  0.63080  0.68600  1.0000
  S   S330      1.0  0.58687  0.61062  0.66298  1.0000
  C   C2385     1.0  0.63248  0.52379  0.53039  1.0000
  Fe  Fe165     1.0  0.60023  0.60868  0.70658  1.0000
  S   S331      1.0  0.61141  0.58581  0.73596  1.0000
  H   H1906     1.0  0.69770  0.55403  0.81245  1.0000
  S   S332      1.0  0.58377  0.62769  0.73240  1.0000
  H   H1907     1.0  0.63950  0.61892  0.84277  1.0000
  S   S333      1.0  0.49474  0.59757  0.68759  1.0000
  C   C2386     1.0  0.53178  0.62618  0.68479  1.0000
  C   C2387     1.0  0.51684  0.63366  0.67837  1.0000
  C   C2388     1.0  0.50555  0.62509  0.67814  1.0000
  C   C2389     1.0  0.50900  0.60886  0.68471  1.0000
  C   C2390     1.0  0.52401  0.60134  0.69066  1.0000
  C   C2391     1.0  0.53539  0.60993  0.69038  1.0000
  H   H1908     1.0  0.67731  0.63757  0.89081  1.0000
  C   C2392     1.0  0.69731  0.57856  0.79603  1.0000
  H   H1909     1.0  0.52680  0.58879  0.69581  1.0000
  H   H1910     1.0  0.54685  0.60400  0.69504  1.0000
  H   H1911     1.0  0.54325  0.61664  0.75361  1.0000
  P   P79       1.0  0.62506  0.56641  0.55966  1.0000
  P   P80       1.0  0.66506  0.62135  0.71505  1.0000
  C   C2393     1.0  0.69676  0.60754  0.70774  1.0000
  C   C2394     1.0  0.60922  0.36768  0.54297  1.0000
  C   C2395     1.0  0.65693  0.56807  0.66597  1.0000
  C   C2396     1.0  0.64553  0.57965  0.65168  1.0000
  C   C2397     1.0  0.63162  0.58497  0.67321  1.0000
  C   C2398     1.0  0.62909  0.57903  0.70945  1.0000
  C   C2399     1.0  0.64062  0.56762  0.72409  1.0000
  C   C2400     1.0  0.65459  0.56213  0.70232  1.0000
  H   H1912     1.0  0.64725  0.58422  0.62359  1.0000
  H   H1913     1.0  0.62268  0.59339  0.66139  1.0000
  H   H1914     1.0  0.63873  0.56304  0.75215  1.0000
  H   H1915     1.0  0.66341  0.55323  0.71343  1.0000
  C   C2401     1.0  0.69590  0.47204  0.69734  1.0000
  C   C2402     1.0  0.68923  0.47655  0.66673  1.0000
  C   C2403     1.0  0.68339  0.46581  0.65436  1.0000
  C   C2404     1.0  0.68438  0.45032  0.67189  1.0000
  C   C2405     1.0  0.69156  0.44561  0.70177  1.0000
  C   C2406     1.0  0.69715  0.45646  0.71458  1.0000
  H   H1916     1.0  0.68809  0.48844  0.65312  1.0000
  H   H1917     1.0  0.67785  0.46959  0.63132  1.0000
  H   H1918     1.0  0.69204  0.43385  0.71613  1.0000
  H   H1919     1.0  0.70218  0.45284  0.73842  1.0000
  C   C2407     1.0  0.62525  0.34035  0.63647  1.0000
  C   C2408     1.0  0.63846  0.34677  0.62034  1.0000
  C   C2409     1.0  0.64372  0.35650  0.63691  1.0000
  C   C2410     1.0  0.63580  0.36002  0.66979  1.0000
  C   C2411     1.0  0.62273  0.35343  0.68622  1.0000
  C   C2412     1.0  0.61752  0.34353  0.66981  1.0000
  H   H1920     1.0  0.64457  0.34442  0.59465  1.0000
  H   H1921     1.0  0.65369  0.36156  0.62375  1.0000
  H   H1922     1.0  0.61644  0.35626  0.71140  1.0000
  H   H1923     1.0  0.60730  0.33873  0.68247  1.0000
  C   C2413     1.0  0.70695  0.32316  0.77606  1.0000
  H   H1924     1.0  0.68000  0.56986  0.54973  1.0000
  P   P81       1.0  0.53904  0.63821  0.80370  1.0000
  C   C2414     1.0  0.69760  0.47864  0.54863  1.0000
  C   C2415     1.0  0.70339  0.52673  0.53778  1.0000
  C   C2416     1.0  0.71851  0.51824  0.53112  1.0000
  C   C2417     1.0  0.64288  0.63518  0.87202  1.0000
  C   C2418     1.0  0.70265  0.33391  0.62656  1.0000
  H   H1925     1.0  0.69999  0.53321  0.55935  1.0000
  H   H1926     1.0  0.66522  0.32723  0.69197  1.0000
  C   C2419     1.0  0.60111  0.63239  0.54602  1.0000
  C   C2420     1.0  0.54318  0.61873  0.59958  1.0000
  H   H1927     1.0  0.65436  0.42915  0.50391  1.0000
  S   S334      1.0  0.61618  0.62433  0.67475  1.0000
  H   H1928     1.0  0.68737  0.37100  0.54488  1.0000
  H   H1929     1.0  0.71030  0.37331  0.72530  1.0000
  H   H1930     1.0  0.64689  0.44647  0.62425  1.0000
  C   C2421     1.0  0.54574  0.31999  0.56383  1.0000
  C   C2422     1.0  0.69006  0.60604  0.93062  1.0000
  C   C2423     1.0  0.64782  0.62282  0.85343  1.0000
  C   C2424     1.0  0.70711  0.58193  0.69269  1.0000
  C   C2425     1.0  0.52809  0.56664  0.55489  1.0000
  S   S335      1.0  0.54519  0.63765  0.68688  1.0000
  C   C2426     1.0  0.50695  0.58326  0.60315  1.0000
  C   C2427     1.0  0.59161  0.50207  0.71331  1.0000
  C   C2428     1.0  0.58653  0.51277  0.68465  1.0000
  C   C2429     1.0  0.59733  0.51881  0.65695  1.0000
  C   C2430     1.0  0.61321  0.51417  0.65786  1.0000
  C   C2431     1.0  0.61840  0.50319  0.68624  1.0000
  C   C2432     1.0  0.60748  0.49733  0.71420  1.0000
  P   P82       1.0  0.63886  0.49723  0.68792  1.0000
  C   C2433     1.0  0.64931  0.50076  0.64304  1.0000
  C   C2434     1.0  0.64427  0.50820  0.71539  1.0000
  C   C2435     1.0  0.65999  0.50744  0.71582  1.0000
  C   C2436     1.0  0.66431  0.51559  0.73748  1.0000
  C   C2437     1.0  0.65299  0.52499  0.75807  1.0000
  C   C2438     1.0  0.63731  0.52605  0.75740  1.0000
  C   C2439     1.0  0.63293  0.51754  0.73648  1.0000
  C   C2440     1.0  0.64982  0.49087  0.61936  1.0000
  C   C2441     1.0  0.65635  0.49453  0.58365  1.0000
  C   C2442     1.0  0.66243  0.50807  0.57128  1.0000
  C   C2443     1.0  0.66223  0.51784  0.59471  1.0000
  C   C2444     1.0  0.65563  0.51427  0.63038  1.0000
  C   C2445     1.0  0.64256  0.47663  0.70567  1.0000
  C   C2446     1.0  0.63473  0.46667  0.69616  1.0000
  C   C2447     1.0  0.63732  0.45079  0.71009  1.0000
  C   C2448     1.0  0.64763  0.44472  0.73386  1.0000
  C   C2449     1.0  0.65532  0.45453  0.74380  1.0000
  C   C2450     1.0  0.65288  0.47039  0.72969  1.0000
  H   H1931     1.0  0.58323  0.49745  0.73491  1.0000
  H   H1932     1.0  0.57423  0.51644  0.68401  1.0000
  H   H1933     1.0  0.59340  0.52723  0.63490  1.0000
  H   H1934     1.0  0.62137  0.51924  0.63654  1.0000
  H   H1935     1.0  0.61124  0.48910  0.73672  1.0000
  H   H1936     1.0  0.66896  0.50035  0.69983  1.0000
  H   H1937     1.0  0.67647  0.51445  0.73841  1.0000
  H   H1938     1.0  0.65641  0.53147  0.77445  1.0000
  H   H1939     1.0  0.62855  0.53346  0.77314  1.0000
  H   H1940     1.0  0.62072  0.51843  0.73673  1.0000
  H   H1941     1.0  0.64520  0.48033  0.62823  1.0000
  H   H1942     1.0  0.65673  0.48687  0.56553  1.0000
  C   C2451     1.0  0.72357  0.42900  0.62786  1.0000
  H   H1943     1.0  0.66726  0.52817  0.58534  1.0000
  H   H1944     1.0  0.65539  0.52221  0.64778  1.0000
  H   H1945     1.0  0.62671  0.47112  0.67774  1.0000
  H   H1946     1.0  0.63167  0.44307  0.70184  1.0000
  H   H1947     1.0  0.65005  0.43234  0.74368  1.0000
  H   H1948     1.0  0.66365  0.44975  0.76148  1.0000
  H   H1949     1.0  0.65933  0.47753  0.73734  1.0000
  H   H1950     1.0  0.58440  0.33794  0.77676  1.0000
  C   C2452     1.0  0.60817  0.57934  0.54473  1.0000
  C   C2453     1.0  0.69212  0.58006  0.69265  1.0000
  C   C2454     1.0  0.59926  0.59055  0.56482  1.0000
  H   H1951     1.0  0.72107  0.59682  0.70133  1.0000
  C   C2455     1.0  0.72977  0.43417  0.51852  1.0000
  C   C2456     1.0  0.67735  0.34750  0.74054  1.0000
  C   C2457     1.0  0.72502  0.35497  0.69958  1.0000
  C   C2458     1.0  0.68998  0.33055  0.61647  1.0000
  C   C2459     1.0  0.63454  0.62040  0.74892  1.0000
  C   C2460     1.0  0.71547  0.42026  0.49416  1.0000
  H   H1952     1.0  0.67192  0.45221  0.58903  1.0000
  C   C2461     1.0  0.70734  0.33481  0.89135  1.0000
  H   H1953     1.0  0.68407  0.33878  0.59679  1.0000
  C   C2462     1.0  0.60641  0.62845  0.51221  1.0000
  P   P83       1.0  0.51390  0.58311  0.49713  1.0000
  H   H1954     1.0  0.50875  0.64244  0.55415  1.0000
  C   C2463     1.0  0.63145  0.55054  0.53525  1.0000
  Fe  Fe166     1.0  0.60158  0.62797  0.63316  1.0000
  H   H1955     1.0  0.59539  0.56328  0.60806  1.0000
  H   H1956     1.0  0.53666  0.59863  0.58961  1.0000
  C   C2464     1.0  0.65130  0.62784  0.61865  1.0000
  H   H1957     1.0  0.69667  0.55454  0.87588  1.0000
  H   H1958     1.0  0.60383  0.38021  0.63446  1.0000
  C   C2465     1.0  0.67086  0.34092  0.77449  1.0000
  H   H1959     1.0  0.68031  0.34751  0.68480  1.0000
  P   P84       1.0  0.52617  0.31726  0.51941  1.0000
  C   C2466     1.0  0.60133  0.31849  0.76038  1.0000
  H   H1960     1.0  0.67790  0.60682  0.93026  1.0000
  C   C2467     1.0  0.70705  0.46416  0.54490  1.0000
  C   C2468     1.0  0.66224  0.45306  0.57591  1.0000
  H   H1961     1.0  0.63037  0.37698  0.53089  1.0000
  H   H1962     1.0  0.53112  0.36447  0.55761  1.0000
  C   C2469     1.0  0.60757  0.33978  0.77973  1.0000
  H   H1963     1.0  0.72004  0.36346  0.78229  1.0000
  H   H1964     1.0  0.68402  0.32343  0.96854  1.0000
  H   H1965     1.0  0.63743  0.54426  0.67929  1.0000
  C   C2470     1.0  0.51905  0.57184  0.61475  1.0000
  C   C2471     1.0  0.52966  0.56355  0.59060  1.0000
  H   H1966     1.0  0.51813  0.61876  0.79691  1.0000
  C   C2472     1.0  0.68336  0.39112  0.50438  1.0000
  H   H1967     1.0  0.53667  0.56039  0.53652  1.0000
  C   C2473     1.0  0.66349  0.61571  0.84804  1.0000
  H   H1968     1.0  0.71891  0.63653  0.92760  1.0000
  H   H1969     1.0  0.69032  0.56946  0.68650  1.0000
  C   C2474     1.0  0.70942  0.59558  0.70065  1.0000
  H   H1970     1.0  0.69791  0.57824  0.76837  1.0000
  H   H1971     1.0  0.58467  0.36690  0.62241  1.0000
  Fe  Fe167     1.0  0.59904  0.64357  0.69713  1.0000
  P   P85       1.0  0.69447  0.61125  0.85662  1.0000
  C   C2475     1.0  0.60684  0.33049  0.51454  1.0000
  H   H1972     1.0  0.69567  0.57917  0.89524  1.0000
  H   H1973     1.0  0.63354  0.34162  0.54755  1.0000
  C   C2476     1.0  0.65022  0.60089  0.54402  1.0000
  H   H1974     1.0  0.53918  0.55484  0.59951  1.0000
  C   C2477     1.0  0.60509  0.37709  0.60867  1.0000
  C   C2478     1.0  0.69690  0.59255  0.80671  1.0000
  C   C2479     1.0  0.72292  0.51023  0.50244  1.0000
  C   C2480     1.0  0.69668  0.56517  0.85662  1.0000
  C   C2481     1.0  0.65616  0.56852  0.55218  1.0000
  C   C2482     1.0  0.69621  0.57915  0.86745  1.0000
  C   C2483     1.0  0.52175  0.61981  0.57046  1.0000
  H   H1975     1.0  0.66145  0.33046  0.53761  1.0000
  H   H1976     1.0  0.70722  0.34336  0.86718  1.0000
  C   C2484     1.0  0.72137  0.60363  0.93318  1.0000
  H   H1977     1.0  0.52020  0.56962  0.64243  1.0000
  H   H1978     1.0  0.49885  0.58987  0.62158  1.0000
  C   C2485     1.0  0.66989  0.63679  0.73108  1.0000
  H   H1979     1.0  0.61800  0.59485  0.81507  1.0000
  H   H1980     1.0  0.62644  0.59975  0.54832  1.0000
  C   C2486     1.0  0.64084  0.57678  0.55260  1.0000
  H   H1981     1.0  0.66789  0.59015  0.70019  1.0000
  H   H1982     1.0  0.67474  0.59861  0.54245  1.0000
  H   H1983     1.0  0.69343  0.35224  0.50324  1.0000
  C   C2487     1.0  0.70660  0.62319  0.82480  1.0000
  C   C2488     1.0  0.62716  0.53608  0.54936  1.0000
  C   C2489     1.0  0.59658  0.33257  0.77280  1.0000
  H   H1984     1.0  0.58809  0.35870  0.56486  1.0000
  C   C2490     1.0  0.72152  0.64479  0.90377  1.0000
  C   C2491     1.0  0.65178  0.45773  0.52159  1.0000
  H   H1985     1.0  0.58898  0.55587  0.67279  1.0000
  H   H1986     1.0  0.72479  0.60369  0.81251  1.0000
  H   H1987     1.0  0.62504  0.44744  0.59392  1.0000
  C   C2492     1.0  0.69401  0.33435  0.91727  1.0000
  C   C2493     1.0  0.63803  0.59304  0.54812  1.0000
  H   H1988     1.0  0.69691  0.60309  0.78712  1.0000
  C   C2494     1.0  0.71057  0.60232  0.96456  1.0000
  C   C2495     1.0  0.59429  0.36960  0.60184  1.0000
  H   H1989     1.0  0.68391  0.35663  0.73696  1.0000
  C   C2496     1.0  0.62026  0.55907  0.60659  1.0000
  H   H1990     1.0  0.64412  0.55249  0.61522  1.0000
  H   H1991     1.0  0.63158  0.33890  0.77914  1.0000
  C   C2497     1.0  0.59012  0.58779  0.50318  1.0000
  H   H1992     1.0  0.54676  0.64040  0.60734  1.0000
  C   C2498     1.0  0.53970  0.63489  0.59666  1.0000
  C   C2499     1.0  0.71775  0.42598  0.52268  1.0000
  C   C2500     1.0  0.55187  0.32843  0.58169  1.0000
  C   C2501     1.0  0.58126  0.59876  0.52350  1.0000
  H   H1993     1.0  0.49402  0.63100  0.67395  1.0000
  C   C2502     1.0  0.67541  0.34228  0.71109  1.0000
  H   H1994     1.0  0.72816  0.39240  0.67634  1.0000
  H   H1995     1.0  0.49605  0.59556  0.55912  1.0000
  C   C2503     1.0  0.53415  0.61117  0.58673  1.0000
  H   H1996     1.0  0.60991  0.54671  0.70874  1.0000
  H   H1997     1.0  0.65871  0.55598  0.55567  1.0000
  C   C2504     1.0  0.50534  0.58637  0.56764  1.0000
  C   C2505     1.0  0.69441  0.32343  0.94863  1.0000
  H   H1998     1.0  0.60277  0.59203  0.58847  1.0000
  C   C2506     1.0  0.67944  0.59190  0.70008  1.0000
  C   C2507     1.0  0.69632  0.59295  0.84255  1.0000
  H   H1999     1.0  0.57106  0.60649  0.51489  1.0000
  H   H2000     1.0  0.71822  0.44075  0.63149  1.0000
  C   C2508     1.0  0.62827  0.54829  0.66360  1.0000
  C   C2509     1.0  0.55129  0.61189  0.77182  1.0000
  C   C2510     1.0  0.58580  0.60009  0.55439  1.0000
  C   C2511     1.0  0.71651  0.60634  0.90047  1.0000
  H   H2001     1.0  0.58076  0.36324  0.49089  1.0000
  H   H2002     1.0  0.71693  0.57275  0.68674  1.0000
  C   C2512     1.0  0.59631  0.36493  0.56910  1.0000
  C   C2513     1.0  0.68714  0.37516  0.51701  1.0000
  H   H2003     1.0  0.61982  0.53426  0.57498  1.0000
  H   H2004     1.0  0.57914  0.60883  0.56975  1.0000
  Fe  Fe168     1.0  0.72465  0.53567  0.67746  1.0000
  H   H2005     1.0  0.69142  0.64531  0.83173  1.0000
  C   C2514     1.0  0.62331  0.33292  0.77422  1.0000
  C   C2515     1.0  0.60472  0.55930  0.62318  1.0000
  H   H2006     1.0  0.64777  0.61344  0.54138  1.0000
  C   C2516     1.0  0.61793  0.37993  0.58279  1.0000
  C   C2517     1.0  0.68166  0.60593  0.70685  1.0000
  C   C2518     1.0  0.58274  0.32416  0.50940  1.0000
  C   C2519     1.0  0.53403  0.32754  0.54403  1.0000
  H   H2007     1.0  0.62655  0.38528  0.58857  1.0000
  C   C2520     1.0  0.62006  0.37515  0.55018  1.0000
  H   H2008     1.0  0.56488  0.34356  0.49486  1.0000
  C   C2521     1.0  0.64811  0.44984  0.59571  1.0000
  S   S336      1.0  0.61378  0.62775  0.57674  1.0000
  H   H2009     1.0  0.64307  0.32015  0.68299  1.0000
  H   H2010     1.0  0.51469  0.61406  0.56044  1.0000
  C   C2522     1.0  0.70077  0.60787  0.89889  1.0000
  C   C2523     1.0  0.66536  0.59257  0.54447  1.0000
  C   C2524     1.0  0.60101  0.55491  0.65991  1.0000
  C   C2525     1.0  0.66250  0.32907  0.77894  1.0000
  H   H2011     1.0  0.69891  0.61790  0.71403  1.0000
  C   C2526     1.0  0.56181  0.59808  0.76709  1.0000
  H   H2012     1.0  0.65174  0.62088  0.59897  1.0000
  C   C2527     1.0  0.69718  0.56488  0.82094  1.0000
  C   C2528     1.0  0.63765  0.45430  0.54165  1.0000
  H   H2013     1.0  0.72236  0.56003  0.49791  1.0000
  C   C2529     1.0  0.63583  0.45042  0.57859  1.0000
  H   H2014     1.0  0.55267  0.61207  0.61269  1.0000
  C   C2530     1.0  0.66833  0.57639  0.54838  1.0000
  C   C2531     1.0  0.67434  0.62094  0.86137  1.0000
  H   H2015     1.0  0.68343  0.34262  0.91321  1.0000
  C   C2532     1.0  0.57347  0.59987  0.81578  1.0000
  C   C2533     1.0  0.61278  0.54960  0.68017  1.0000
  C   C2534     1.0  0.53518  0.35206  0.55935  1.0000
  C   C2535     1.0  0.71901  0.36282  0.72818  1.0000
  H   H2016     1.0  0.56166  0.59228  0.74571  1.0000
  H   H2017     1.0  0.68096  0.53337  0.52184  1.0000
  H   H2018     1.0  0.53209  0.61333  0.86349  1.0000
  H   H2019     1.0  0.71536  0.48897  0.60588  1.0000
  C   C2536     1.0  0.66687  0.33060  0.71538  1.0000
  C   C2537     1.0  0.65592  0.33681  0.51544  1.0000
  H   H2020     1.0  0.66699  0.60619  0.83352  1.0000
  C   C2538     1.0  0.51573  0.57792  0.54328  1.0000
  C   C2539     1.0  0.69494  0.60345  0.96327  1.0000
  C   C2540     1.0  0.66273  0.64050  0.76448  1.0000
  H   H2021     1.0  0.62936  0.51257  0.54151  1.0000
  H   H2022     1.0  0.61094  0.61927  0.77366  1.0000
  C   C2541     1.0  0.66044  0.32377  0.74939  1.0000
  C   C2542     1.0  0.70055  0.48748  0.57083  1.0000
  H   H2023     1.0  0.68821  0.48318  0.53375  1.0000
  C   C2543     1.0  0.66922  0.63338  0.88005  1.0000
  H   H2024     1.0  0.51974  0.61377  0.92585  1.0000
  H   H2025     1.0  0.67523  0.31401  0.62355  1.0000
  C   C2544     1.0  0.50528  0.32072  0.53005  1.0000
  H   H2026     1.0  0.69345  0.49875  0.57357  1.0000
  H   H2027     1.0  0.73350  0.60283  0.93409  1.0000
  H   H2028     1.0  0.62819  0.45429  0.52861  1.0000
  H   H2029     1.0  0.70473  0.45762  0.52714  1.0000
  C   C2545     1.0  0.69264  0.52682  0.51654  1.0000
  C   C2546     1.0  0.71018  0.32345  0.65219  1.0000
  H   H2030     1.0  0.71016  0.42393  0.54799  1.0000
  H   H2031     1.0  0.72007  0.32629  0.65934  1.0000
  H   H2032     1.0  0.66616  0.59401  0.77203  1.0000
  H   H2033     1.0  0.55137  0.35079  0.59375  1.0000
  C   C2547     1.0  0.62701  0.60012  0.79689  1.0000
  C   C2548     1.0  0.65824  0.62124  0.64845  1.0000
  H   H2034     1.0  0.64569  0.58243  0.81456  1.0000
  C   C2549     1.0  0.64013  0.34326  0.52107  1.0000
  C   C2550     1.0  0.54659  0.34441  0.57958  1.0000
  C   C2551     1.0  0.65707  0.62994  0.67506  1.0000
  C   C2552     1.0  0.62302  0.61385  0.77343  1.0000
  C   C2553     1.0  0.52279  0.64212  0.78069  1.0000
  H   H2035     1.0  0.61838  0.32651  0.52085  1.0000
  C   C2554     1.0  0.72706  0.64147  0.78031  1.0000
  H   H2036     1.0  0.67539  0.45874  0.52463  1.0000
  C   C2555     1.0  0.49732  0.32686  0.56041  1.0000
  H   H2037     1.0  0.51389  0.64619  0.67410  1.0000
  H   H2038     1.0  0.65738  0.32425  0.80540  1.0000
  C   C2556     1.0  0.72110  0.61619  0.80778  1.0000
  H   H2039     1.0  0.62736  0.48312  0.50817  1.0000
  H   H2040     1.0  0.61831  0.62280  0.50497  1.0000
  H   H2041     1.0  0.70666  0.34468  0.61465  1.0000
  C   C2557     1.0  0.60351  0.57810  0.51366  1.0000
  H   H2042     1.0  0.66411  0.60928  0.65067  1.0000
  C   C2558     1.0  0.57292  0.59209  0.78900  1.0000
  C   C2559     1.0  0.52896  0.34368  0.54152  1.0000
  C   C2560     1.0  0.65417  0.59962  0.77195  1.0000
  C   C2561     1.0  0.71295  0.48197  0.58913  1.0000
  H   H2043     1.0  0.58234  0.59538  0.83217  1.0000
  H   H2044     1.0  0.51056  0.63881  0.94772  1.0000
  C   C2562     1.0  0.65019  0.61314  0.74745  1.0000
  C   C2563     1.0  0.64260  0.59308  0.79638  1.0000
  H   H2045     1.0  0.72506  0.60746  0.87654  1.0000
  C   C2564     1.0  0.56293  0.61366  0.82067  1.0000
  H   H2046     1.0  0.65415  0.63427  0.78133  1.0000
  C   C2565     1.0  0.51454  0.63033  0.78268  1.0000
  H   H2047     1.0  0.70556  0.33537  0.77682  1.0000
  C   C2566     1.0  0.72457  0.35724  0.76039  1.0000
  C   C2567     1.0  0.64083  0.55264  0.50168  1.0000
  C   C2568     1.0  0.72102  0.32429  0.89668  1.0000
  H   H2048     1.0  0.53882  0.59933  0.49579  1.0000
  H   H2049     1.0  0.66746  0.51086  0.54355  1.0000
  H   H2050     1.0  0.58137  0.58164  0.78456  1.0000
  C   C2569     1.0  0.66413  0.45689  0.53908  1.0000
  C   C2570     1.0  0.60093  0.34638  0.50461  1.0000
  C   C2571     1.0  0.51836  0.63596  0.56707  1.0000
  H   H2051     1.0  0.70627  0.41384  0.49759  1.0000
  C   C2572     1.0  0.58570  0.63971  0.55520  1.0000
  H   H2052     1.0  0.60394  0.35084  0.78875  1.0000
  H   H2053     1.0  0.63080  0.64087  0.87585  1.0000
  C   C2573     1.0  0.65358  0.64048  0.88521  1.0000
  C   C2574     1.0  0.52839  0.62435  0.87274  1.0000
  C   C2575     1.0  0.72239  0.46755  0.58554  1.0000
  H   H2054     1.0  0.70917  0.32693  0.71977  1.0000
  H   H2055     1.0  0.72964  0.56367  0.80763  1.0000
  H   H2056     1.0  0.56376  0.61975  0.84096  1.0000
  C   C2576     1.0  0.70233  0.63947  0.81867  1.0000
  H   H2057     1.0  0.71668  0.41973  0.68296  1.0000
  C   C2577     1.0  0.55168  0.61973  0.79884  1.0000
  C   C2578     1.0  0.52129  0.62455  0.90806  1.0000
  C   C2579     1.0  0.62817  0.31874  0.76181  1.0000
  C   C2580     1.0  0.72263  0.41707  0.65732  1.0000
  H   H2058     1.0  0.52017  0.34976  0.52576  1.0000
  P   P86       1.0  0.61262  0.36074  0.50146  1.0000
  C   C2581     1.0  0.50166  0.63334  0.76591  1.0000
  H   H2059     1.0  0.63115  0.63106  0.73106  1.0000
  C   C2582     1.0  0.70903  0.31827  0.74358  1.0000
  H   H2060     1.0  0.72509  0.55077  0.76157  1.0000
  H   H2061     1.0  0.49567  0.62407  0.76646  1.0000
  H   H2062     1.0  0.73314  0.31858  0.97716  1.0000
  C   C2583     1.0  0.69056  0.36456  0.49343  1.0000
  S   S337      1.0  0.73189  0.51729  0.55871  1.0000
  C   C2584     1.0  0.58081  0.63882  0.49718  1.0000
  C   C2585     1.0  0.51607  0.63867  0.92036  1.0000
  H   H2063     1.0  0.73144  0.32477  0.87690  1.0000
  C   C2586     1.0  0.57664  0.33995  0.50010  1.0000
  P   P87       1.0  0.73309  0.44082  0.55606  1.0000
  S   S338      1.0  0.73087  0.51200  0.66123  1.0000
  H   H2064     1.0  0.52260  0.54994  0.49567  1.0000
  C   C2587     1.0  0.57563  0.64306  0.53065  1.0000
  H   H2065     1.0  0.70606  0.31617  0.83229  1.0000
  C   C2588     1.0  0.73131  0.62529  0.78585  1.0000
  C   C2589     1.0  0.68496  0.31661  0.63176  1.0000
  C   C2590     1.0  0.52709  0.64362  0.58082  1.0000
  H   H2066     1.0  0.68655  0.60250  0.98759  1.0000
  H   H2067     1.0  0.68543  0.64358  0.68271  1.0000
  C   C2591     1.0  0.53056  0.63827  0.84964  1.0000
  C   C2592     1.0  0.68020  0.64589  0.70906  1.0000
  H   H2068     1.0  0.58152  0.64278  0.58121  1.0000
  H   H2069     1.0  0.61012  0.56975  0.49725  1.0000
  C   C2593     1.0  0.64317  0.64317  0.61501  1.0000
  C   C2594     1.0  0.72914  0.40168  0.65365  1.0000
  H   H2070     1.0  0.61261  0.39441  0.49143  1.0000
  C   C2595     1.0  0.73110  0.42559  0.59438  1.0000
  C   C2596     1.0  0.49688  0.31614  0.50913  1.0000
  H   H2071     1.0  0.57580  0.31554  0.51124  1.0000
  H   H2072     1.0  0.73206  0.46355  0.59970  1.0000
  C   C2597     1.0  0.64211  0.52589  0.49735  1.0000
  C   C2598     1.0  0.63290  0.35195  0.49284  1.0000
  H   H2073     1.0  0.72846  0.55605  0.88394  1.0000
  H   H2074     1.0  0.73452  0.50350  0.49739  1.0000
  C   C2599     1.0  0.73470  0.55677  0.75625  1.0000
  C   C2600     1.0  0.64888  0.64537  0.67107  1.0000
  C   C2601     1.0  0.58567  0.35104  0.49783  1.0000
  H   H2075     1.0  0.71427  0.60053  0.98986  1.0000
  S   S339      1.0  0.73558  0.75123  0.41412  1.0000
  C   C2602     1.0  0.63130  0.72948  0.01262  1.0000
  C   C2603     1.0  0.70761  0.65794  0.06118  1.0000
  H   H2076     1.0  0.73557  0.69374  0.39163  1.0000
  S   S340      1.0  0.70871  0.67223  0.14034  1.0000
  S   S341      1.0  0.71058  0.74699  0.35123  1.0000
  Fe  Fe169     1.0  0.67994  0.71803  0.19937  1.0000
  S   S342      1.0  0.68507  0.69275  0.22226  1.0000
  S   S343      1.0  0.69197  0.73583  0.21128  1.0000
  Fe  Fe170     1.0  0.66091  0.71201  0.14792  1.0000
  S   S344      1.0  0.66454  0.68630  0.16806  1.0000
  S   S345      1.0  0.64637  0.72387  0.10518  1.0000
  Fe  Fe171     1.0  0.66005  0.69258  0.22219  1.0000
  S   S346      1.0  0.64900  0.67844  0.27262  1.0000
  Fe  Fe172     1.0  0.68899  0.68860  0.16652  1.0000
  H   H2077     1.0  0.73106  0.68321  0.22163  1.0000
  S   S347      1.0  0.65444  0.71843  0.20284  1.0000
  S   S348      1.0  0.68574  0.71385  0.14285  1.0000
  C   C2604     1.0  0.65246  0.64934  0.41774  1.0000
  H   H2078     1.0  0.67117  0.67197  0.04265  1.0000
  H   H2079     1.0  0.65860  0.65861  0.41594  1.0000
  C   C2605     1.0  0.72050  0.65975  0.16887  1.0000
  C   C2606     1.0  0.59635  0.66925  0.40802  1.0000
  H   H2080     1.0  0.66712  0.70508  0.05221  1.0000
  H   H2081     1.0  0.70909  0.67715  0.26852  1.0000
  H   H2082     1.0  0.71361  0.65470  0.08360  1.0000
  C   C2607     1.0  0.63353  0.66879  0.27598  1.0000
  C   C2608     1.0  0.62969  0.65833  0.30715  1.0000
  C   C2609     1.0  0.61698  0.65097  0.31183  1.0000
  H   H2083     1.0  0.72103  0.75766  0.27526  1.0000
  C   C2610     1.0  0.69240  0.74863  0.99427  1.0000
  C   C2611     1.0  0.62463  0.67175  0.24929  1.0000
  H   H2084     1.0  0.63643  0.65604  0.32806  1.0000
  C   C2612     1.0  0.58559  0.67782  0.35401  1.0000
  H   H2085     1.0  0.70344  0.68822  0.32361  1.0000
  H   H2086     1.0  0.62740  0.67989  0.22528  1.0000
  C   C2613     1.0  0.64554  0.72129  0.06188  1.0000
  C   C2614     1.0  0.63270  0.72997  0.04716  1.0000
  H   H2087     1.0  0.72626  0.67858  0.05489  1.0000
  H   H2088     1.0  0.62377  0.73738  0.06252  1.0000
  C   C2615     1.0  0.51849  0.68511  0.46024  1.0000
  C   C2616     1.0  0.52098  0.66399  0.25474  1.0000
  H   H2089     1.0  0.48879  0.66614  0.21678  1.0000
  C   C2617     1.0  0.53011  0.67238  0.46877  1.0000
  C   C2618     1.0  0.71586  0.65706  0.02676  1.0000
  C   C2619     1.0  0.60594  0.68866  0.46517  1.0000
  C   C2620     1.0  0.71649  0.65900  0.20551  1.0000
  H   H2090     1.0  0.72882  0.72515  0.08958  1.0000
  H   H2091     1.0  0.63250  0.69989  0.43493  1.0000
  H   H2092     1.0  0.70587  0.66585  0.21665  1.0000
  H   H2093     1.0  0.68364  0.65248  0.35529  1.0000
  C   C2621     1.0  0.72622  0.64917  0.22790  1.0000
  C   C2622     1.0  0.64261  0.72015  0.99177  1.0000
  C   C2623     1.0  0.69158  0.66342  0.06687  1.0000
  C   C2624     1.0  0.72299  0.69975  0.30868  1.0000
  C   C2625     1.0  0.70654  0.74313  0.31172  1.0000
  C   C2626     1.0  0.71304  0.74996  0.27794  1.0000
  C   C2627     1.0  0.70865  0.74735  0.24757  1.0000
  C   C2628     1.0  0.69798  0.73764  0.25043  1.0000
  C   C2629     1.0  0.69194  0.73033  0.28414  1.0000
  C   C2630     1.0  0.69607  0.73321  0.31456  1.0000
  C   C2631     1.0  0.61181  0.66449  0.25413  1.0000
  H   H2094     1.0  0.71332  0.75315  0.22168  1.0000
  H   H2095     1.0  0.68372  0.72289  0.28675  1.0000
  H   H2096     1.0  0.69097  0.72789  0.34053  1.0000
  H   H2097     1.0  0.62129  0.73646  0.00191  1.0000
  C   C2632     1.0  0.51346  0.65415  0.28268  1.0000
  H   H2098     1.0  0.72027  0.70497  0.33227  1.0000
  H   H2099     1.0  0.72310  0.64862  0.25626  1.0000
  H   H2100     1.0  0.53856  0.66737  0.44801  1.0000
  H   H2101     1.0  0.67761  0.66750  0.29754  1.0000
  H   H2102     1.0  0.51790  0.69003  0.43272  1.0000
  H   H2103     1.0  0.63061  0.65430  0.48561  1.0000
  S   S349      1.0  0.72897  0.78444  0.36267  1.0000
  C   C2633     1.0  0.48672  0.65842  0.39629  1.0000
  C   C2634     1.0  0.63651  0.65263  0.41641  1.0000
  H   H2104     1.0  0.72234  0.81113  0.40273  1.0000
  H   H2105     1.0  0.54287  0.67039  0.22822  1.0000
  H   H2106     1.0  0.68137  0.65429  0.24650  1.0000
  H   H2107     1.0  0.64977  0.71814  0.40439  1.0000
  H   H2108     1.0  0.60209  0.69697  0.44287  1.0000
  C   C2635     1.0  0.72912  0.68762  0.24616  1.0000
  H   H2109     1.0  0.62063  0.68796  0.34216  1.0000
  H   H2110     1.0  0.72530  0.82069  0.33779  1.0000
  C   C2636     1.0  0.71345  0.69039  0.30370  1.0000
  C   C2637     1.0  0.73397  0.65020  0.15470  1.0000
  C   C2638     1.0  0.68217  0.65513  0.30033  1.0000
  C   C2639     1.0  0.60796  0.65403  0.28536  1.0000
  C   C2640     1.0  0.66024  0.75364  0.01607  1.0000
  C   C2641     1.0  0.68602  0.74880  0.03002  1.0000
  H   H2111     1.0  0.59524  0.66329  0.43530  1.0000
  C   C2642     1.0  0.61739  0.67545  0.45955  1.0000
  C   C2643     1.0  0.65558  0.71118  0.00623  1.0000
  H   H2112     1.0  0.59965  0.68983  0.30993  1.0000
  H   H2113     1.0  0.64778  0.75533  0.02470  1.0000
  H   H2114     1.0  0.71294  0.72928  0.14780  1.0000
  H   H2115     1.0  0.66495  0.75092  0.06875  1.0000
  H   H2116     1.0  0.55831  0.65078  0.26856  1.0000
  C   C2644     1.0  0.59858  0.68435  0.33756  1.0000
  C   C2645     1.0  0.71659  0.68424  0.27258  1.0000
  C   C2646     1.0  0.68357  0.66752  0.03838  1.0000
  C   C2647     1.0  0.58440  0.67045  0.38935  1.0000
  C   C2648     1.0  0.60972  0.67531  0.39134  1.0000
  C   C2649     1.0  0.61059  0.68313  0.35608  1.0000
  P   P88       1.0  0.62571  0.67233  0.41489  1.0000
  H   H2117     1.0  0.69350  0.74677  0.04948  1.0000
  H   H2118     1.0  0.68486  0.65435  0.17576  1.0000
  C   C2650     1.0  0.66994  0.75122  0.04092  1.0000
  H   H2119     1.0  0.68543  0.66467  0.09338  1.0000
  C   C2651     1.0  0.63865  0.68573  0.39373  1.0000
  C   C2652     1.0  0.64818  0.68374  0.36102  1.0000
  C   C2653     1.0  0.65784  0.69427  0.34368  1.0000
  C   C2654     1.0  0.65839  0.70667  0.35931  1.0000
  C   C2655     1.0  0.64929  0.70851  0.39232  1.0000
  C   C2656     1.0  0.63944  0.69812  0.40951  1.0000
  Fe  Fe173     1.0  0.72866  0.75953  0.36031  1.0000
  H   H2120     1.0  0.73463  0.84413  0.45337  1.0000
  H   H2121     1.0  0.57659  0.67826  0.33915  1.0000
  C   C2657     1.0  0.61178  0.65095  0.16288  1.0000
  C   C2658     1.0  0.72485  0.72306  0.14622  1.0000
  H   H2122     1.0  0.51453  0.67269  0.23696  1.0000
  H   H2123     1.0  0.57432  0.66539  0.40214  1.0000
  C   C2659     1.0  0.65706  0.71176  0.04132  1.0000
  H   H2124     1.0  0.64784  0.67425  0.34841  1.0000
  H   H2125     1.0  0.66461  0.69304  0.31768  1.0000
  H   H2126     1.0  0.66575  0.71493  0.34568  1.0000
  C   C2660     1.0  0.68442  0.64766  0.27140  1.0000
  C   C2661     1.0  0.54583  0.65169  0.27225  1.0000
  C   C2662     1.0  0.73114  0.71735  0.17715  1.0000
  C   C2663     1.0  0.73382  0.72078  0.11340  1.0000
  S   S350      1.0  0.72959  0.78538  0.46557  1.0000
  C   C2664     1.0  0.50770  0.69148  0.48722  1.0000
  H   H2127     1.0  0.60476  0.66717  0.23372  1.0000
  H   H2128     1.0  0.72393  0.71932  0.20228  1.0000
  C   C2665     1.0  0.53710  0.66274  0.24963  1.0000
  C   C2666     1.0  0.69157  0.66585  0.00432  1.0000
  C   C2667     1.0  0.73281  0.82330  0.35303  1.0000
  C   C2668     1.0  0.73117  0.81789  0.38950  1.0000
  P   P89       1.0  0.49256  0.65585  0.29092  1.0000
  H   H2129     1.0  0.49870  0.70135  0.48059  1.0000
  C   C2669     1.0  0.49276  0.65927  0.36011  1.0000
  C   C2670     1.0  0.70766  0.66055  0.99846  1.0000
  H   H2130     1.0  0.50365  0.66319  0.34984  1.0000
  H   H2131     1.0  0.49308  0.66144  0.41350  1.0000
  H   H2132     1.0  0.63020  0.65515  0.11900  1.0000
  H   H2133     1.0  0.60289  0.65913  0.15014  1.0000
  C   C2671     1.0  0.62204  0.66475  0.48890  1.0000
  C   C2672     1.0  0.62717  0.64873  0.14542  1.0000
  Fe  Fe174     1.0  0.64684  0.68684  0.85396  1.0000
  S   S351      1.0  0.64986  0.68184  0.91118  1.0000
  S   S352      1.0  0.62945  0.67373  0.84417  1.0000
  Fe  Fe175     1.0  0.67255  0.70650  0.83199  1.0000
  S   S353      1.0  0.67749  0.70269  0.88720  1.0000
  S   S354      1.0  0.68792  0.71745  0.78304  1.0000
  Fe  Fe176     1.0  0.67524  0.67817  0.89004  1.0000
  P   P90       1.0  0.52218  0.66450  0.57699  1.0000
  Fe  Fe177     1.0  0.65176  0.70670  0.90486  1.0000
  S   S355      1.0  0.63960  0.72091  0.94795  1.0000
  S   S356      1.0  0.67242  0.68120  0.83366  1.0000
  S   S357      1.0  0.64650  0.71248  0.84890  1.0000
  H   H2134     1.0  0.55119  0.67393  0.66110  1.0000
  C   C2673     1.0  0.54909  0.67721  0.56206  1.0000
  S   S358      1.0  0.71868  0.77721  0.76072  1.0000
  H   H2135     1.0  0.48682  0.65046  0.73434  1.0000
  H   H2136     1.0  0.72217  0.75345  0.71687  1.0000
  C   C2674     1.0  0.50434  0.67032  0.60671  1.0000
  H   H2137     1.0  0.50926  0.69283  0.60667  1.0000
  S   S359      1.0  0.60906  0.66326  0.70635  1.0000
  H   H2138     1.0  0.66040  0.65576  0.80168  1.0000
  H   H2139     1.0  0.59930  0.68255  0.55539  1.0000
  S   S360      1.0  0.69100  0.65810  0.91653  1.0000
  H   H2140     1.0  0.52321  0.66659  0.76231  1.0000
  H   H2141     1.0  0.71283  0.91274  0.89586  1.0000
  H   H2142     1.0  0.64421  0.76670  0.83800  1.0000
  C   C2675     1.0  0.55047  0.67517  0.63341  1.0000
  C   C2676     1.0  0.69893  0.71745  0.95356  1.0000
  H   H2143     1.0  0.71954  0.78981  0.53795  1.0000
  C   C2677     1.0  0.73476  0.72383  0.60092  1.0000
  C   C2678     1.0  0.51747  0.65715  0.76312  1.0000
  C   C2679     1.0  0.62525  0.67000  0.80487  1.0000
  C   C2680     1.0  0.63022  0.67815  0.77130  1.0000
  C   C2681     1.0  0.62550  0.67564  0.74129  1.0000
  C   C2682     1.0  0.61602  0.66476  0.74436  1.0000
  H   H2144     1.0  0.64729  0.65225  0.69158  1.0000
  C   C2683     1.0  0.49341  0.66057  0.61954  1.0000
  H   H2145     1.0  0.63729  0.68675  0.76860  1.0000
  H   H2146     1.0  0.62900  0.68239  0.71562  1.0000
  C   C2684     1.0  0.72505  0.78296  0.87672  1.0000
  H   H2147     1.0  0.72780  0.72784  0.58016  1.0000
  C   C2685     1.0  0.69618  0.73422  0.77730  1.0000
  C   C2686     1.0  0.70673  0.73793  0.74615  1.0000
  C   C2687     1.0  0.71398  0.75084  0.74083  1.0000
  C   C2688     1.0  0.71039  0.76045  0.76634  1.0000
  C   C2689     1.0  0.69957  0.75693  0.79708  1.0000
  C   C2690     1.0  0.69260  0.74383  0.80274  1.0000
  H   H2148     1.0  0.73285  0.73163  0.81283  1.0000
  C   C2691     1.0  0.61600  0.65890  0.80781  1.0000
  H   H2149     1.0  0.69656  0.76446  0.81654  1.0000
  H   H2150     1.0  0.68431  0.74126  0.82650  1.0000
  C   C2692     1.0  0.70461  0.70172  0.95223  1.0000
  H   H2151     1.0  0.71552  0.75144  0.85938  1.0000
  C   C2693     1.0  0.71332  0.66800  0.86259  1.0000
  C   C2694     1.0  0.57004  0.66592  0.80004  1.0000
  C   C2695     1.0  0.53756  0.67138  0.58838  1.0000
  H   H2152     1.0  0.73291  0.68054  0.97154  1.0000
  H   H2153     1.0  0.57018  0.68614  0.55099  1.0000
  H   H2154     1.0  0.70438  0.67757  0.85427  1.0000
  H   H2155     1.0  0.71714  0.73415  0.64025  1.0000
  H   H2156     1.0  0.70489  0.74640  0.98628  1.0000
  C   C2696     1.0  0.72835  0.66646  0.84267  1.0000
  C   C2697     1.0  0.69959  0.72863  0.92233  1.0000
  C   C2698     1.0  0.72875  0.72737  0.63475  1.0000
  C   C2699     1.0  0.64200  0.65193  0.64118  1.0000
  H   H2157     1.0  0.73354  0.78974  0.58624  1.0000
  H   H2158     1.0  0.52974  0.66573  0.64490  1.0000
  C   C2700     1.0  0.61548  0.66736  0.52326  1.0000
  H   H2159     1.0  0.73096  0.67477  0.81888  1.0000
  C   C2701     1.0  0.65306  0.76347  0.85453  1.0000
  C   C2702     1.0  0.52027  0.67242  0.53147  1.0000
  H   H2160     1.0  0.56875  0.67266  0.71213  1.0000
  H   H2161     1.0  0.70927  0.66109  0.79247  1.0000
  H   H2162     1.0  0.50023  0.69037  0.54323  1.0000
  C   C2703     1.0  0.72116  0.91203  0.87154  1.0000
  C   C2704     1.0  0.70539  0.76144  0.90676  1.0000
  H   H2163     1.0  0.69156  0.66521  0.70366  1.0000
  P   P91       1.0  0.69118  0.74895  0.92369  1.0000
  C   C2705     1.0  0.67626  0.75479  0.89664  1.0000
  H   H2164     1.0  0.61899  0.65898  0.54582  1.0000
  C   C2706     1.0  0.68365  0.65817  0.72074  1.0000
  H   H2165     1.0  0.73248  0.79133  0.86482  1.0000
  C   C2707     1.0  0.56579  0.66829  0.74018  1.0000
  C   C2708     1.0  0.53831  0.67048  0.62411  1.0000
  C   C2709     1.0  0.71100  0.69690  0.91981  1.0000
  C   C2710     1.0  0.67415  0.76954  0.87519  1.0000
  H   H2166     1.0  0.54900  0.67790  0.53429  1.0000
  C   C2711     1.0  0.70986  0.65695  0.89271  1.0000
  C   C2712     1.0  0.65485  0.74896  0.87651  1.0000
  C   C2713     1.0  0.66644  0.74459  0.89736  1.0000
  C   C2714     1.0  0.50860  0.68520  0.52276  1.0000
  C   C2715     1.0  0.66654  0.75326  0.98041  1.0000
  H   H2167     1.0  0.58171  0.67958  0.75448  1.0000
  C   C2716     1.0  0.71248  0.64853  0.79628  1.0000
  H   H2168     1.0  0.54992  0.65510  0.73330  1.0000
  H   H2169     1.0  0.70926  0.93291  0.84255  1.0000
  C   C2717     1.0  0.55944  0.65590  0.81224  1.0000
  C   C2718     1.0  0.66617  0.65280  0.77607  1.0000
  H   H2170     1.0  0.66136  0.78499  0.83670  1.0000
  H   H2171     1.0  0.65869  0.75460  0.96209  1.0000
  C   C2719     1.0  0.66268  0.77377  0.85392  1.0000
  H   H2172     1.0  0.69694  0.77575  0.94759  1.0000
  C   C2720     1.0  0.67664  0.66161  0.75423  1.0000
  C   C2721     1.0  0.71913  0.92337  0.84148  1.0000
  H   H2173     1.0  0.63525  0.66365  0.63910  1.0000
  H   H2174     1.0  0.70937  0.73068  0.72618  1.0000
  H   H2175     1.0  0.71480  0.68464  0.91865  1.0000
  H   H2176     1.0  0.64722  0.74106  0.87751  1.0000
  H   H2177     1.0  0.66762  0.73332  0.91438  1.0000
  C   C2722     1.0  0.70568  0.72357  0.88976  1.0000
  C   C2723     1.0  0.56122  0.68192  0.57144  1.0000
  C   C2724     1.0  0.71545  0.76020  0.87426  1.0000
  H   H2178     1.0  0.71359  0.65928  0.97184  1.0000
  C   C2725     1.0  0.60428  0.68062  0.52865  1.0000
  H   H2179     1.0  0.67910  0.67132  0.76297  1.0000
  C   C2726     1.0  0.71173  0.70785  0.88862  1.0000
  S   S361      1.0  0.58537  0.64841  0.65278  1.0000
  C   C2727     1.0  0.72975  0.92233  0.80997  1.0000
  C   C2728     1.0  0.73510  0.71440  0.78048  1.0000
  H   H2180     1.0  0.49546  0.64917  0.61270  1.0000
  H   H2181     1.0  0.73248  0.77010  0.83364  1.0000
  H   H2182     1.0  0.70504  0.73151  0.86504  1.0000
  C   C2729     1.0  0.56194  0.68088  0.60709  1.0000
  C   C2730     1.0  0.70509  0.77388  0.92357  1.0000
  H   H2183     1.0  0.72533  0.70953  0.79637  1.0000
  H   H2184     1.0  0.72809  0.93104  0.78656  1.0000
  H   H2185     1.0  0.51360  0.66355  0.90666  1.0000
  C   C2731     1.0  0.61154  0.65618  0.77773  1.0000
  H   H2186     1.0  0.68146  0.77770  0.87426  1.0000
  H   H2187     1.0  0.64972  0.65023  0.89917  1.0000
  C   C2732     1.0  0.48732  0.68980  0.63918  1.0000
  H   H2188     1.0  0.57151  0.68424  0.61440  1.0000
  C   C2733     1.0  0.57318  0.67214  0.76405  1.0000
  C   C2734     1.0  0.50110  0.68504  0.61651  1.0000
  H   H2189     1.0  0.57616  0.66860  0.81826  1.0000
  C   C2735     1.0  0.73469  0.83691  0.50914  1.0000
  C   C2736     1.0  0.55512  0.65835  0.75231  1.0000
  H   H2190     1.0  0.59078  0.70156  0.50374  1.0000
  H   H2191     1.0  0.73520  0.64855  0.76441  1.0000
  C   C2737     1.0  0.68270  0.75074  0.96918  1.0000
  H   H2192     1.0  0.52593  0.66333  0.84413  1.0000
  C   C2738     1.0  0.73386  0.89969  0.87019  1.0000
  H   H2193     1.0  0.63735  0.64805  0.59253  1.0000
  H   H2194     1.0  0.73510  0.89086  0.89354  1.0000
  H   H2195     1.0  0.71468  0.79399  0.92196  1.0000
  C   C2739     1.0  0.71502  0.78444  0.90885  1.0000
  C   C2740     1.0  0.53088  0.66596  0.50421  1.0000
  H   H2196     1.0  0.73359  0.84186  0.82917  1.0000
  C   C2741     1.0  0.73208  0.78786  0.53295  1.0000
  H   H2197     1.0  0.73300  0.72563  0.68716  1.0000
  H   H2198     1.0  0.70360  0.69327  0.97638  1.0000
  H   H2199     1.0  0.50068  0.67166  0.73227  1.0000
  H   H2200     1.0  0.71604  0.70401  0.86334  1.0000
  H   H2201     1.0  0.61198  0.65262  0.83365  1.0000
  H   H2202     1.0  0.69351  0.72058  0.97904  1.0000
  C   C2742     1.0  0.55170  0.65222  0.78850  1.0000
  C   C2743     1.0  0.72517  0.77091  0.85933  1.0000
  H   H2203     1.0  0.53993  0.65605  0.51036  1.0000
  C   C2744     1.0  0.50455  0.66014  0.74643  1.0000
  H   H2204     1.0  0.72248  0.84164  0.51652  1.0000
  H   H2205     1.0  0.68529  0.66882  0.98234  1.0000
  C   C2745     1.0  0.59949  0.69127  0.49960  1.0000
  H   H2206     1.0  0.56372  0.64866  0.53790  1.0000
  H   H2207     1.0  0.55758  0.65082  0.84004  1.0000
  C   C2746     1.0  0.52488  0.65243  0.86190  1.0000
  C   C2747     1.0  0.51781  0.65260  0.89724  1.0000
  H   H2208     1.0  0.60412  0.64791  0.78056  1.0000
  C   C2748     1.0  0.49667  0.64823  0.74777  1.0000
  H   H2209     1.0  0.66448  0.70399  0.99033  1.0000
  Fe  Fe178     1.0  0.94934  0.07972  0.16688  1.0000
  S   S362      1.0  0.93036  0.10073  0.16802  1.0000
  S   S363      1.0  0.94572  0.05635  0.15963  1.0000
  Fe  Fe179     1.0  0.94065  0.10568  0.21071  1.0000
  S   S364      1.0  0.92510  0.11036  0.26201  1.0000
  S   S365      1.0  0.95841  0.08354  0.21275  1.0000
  Fe  Fe180     1.0  0.86959  0.01860  0.18561  1.0000
  S   S366      1.0  0.85185  0.03226  0.15284  1.0000
  S   S367      1.0  0.88085  0.03423  0.20695  1.0000
  S   S368      1.0  0.84076  0.99959  0.15353  1.0000
  Fe  Fe181     1.0  0.85883  0.01302  0.12137  1.0000
  S   S369      1.0  0.86530  0.01902  0.06210  1.0000
  Fe  Fe182     1.0  0.83559  0.01779  0.18833  1.0000
  S   S370      1.0  0.81151  0.02989  0.20964  1.0000
  S   S371      1.0  0.87792  0.00009  0.15151  1.0000
  S   S372      1.0  0.85276  0.00498  0.22330  1.0000
  Fe  Fe183     1.0  0.78768  0.08751  0.33993  1.0000
  S   S373      1.0  0.76465  0.08046  0.36249  1.0000
  S   S374      1.0  0.80981  0.07084  0.32383  1.0000
  Fe  Fe184     1.0  0.77490  0.12132  0.34750  1.0000
  S   S375      1.0  0.75094  0.11694  0.37025  1.0000
  S   S376      1.0  0.77894  0.14562  0.34097  1.0000
  Fe  Fe185     1.0  0.76295  0.09561  0.40273  1.0000
  S   S377      1.0  0.75344  0.09026  0.46144  1.0000
  Fe  Fe186     1.0  0.75512  0.10257  0.32793  1.0000
  C   C2749     1.0  0.88112  0.05516  0.99441  1.0000
  S   S378      1.0  0.78669  0.10103  0.38268  1.0000
  S   S379      1.0  0.77830  0.10852  0.30261  1.0000
  C   C2750     1.0  0.75857  0.07326  0.25858  1.0000
  C   C2751     1.0  0.87016  0.21236  0.22931  1.0000
  Fe  Fe187     1.0  0.85312  0.16657  0.36106  1.0000
  S   S380      1.0  0.86350  0.17960  0.30933  1.0000
  S   S381      1.0  0.84646  0.14354  0.36491  1.0000
  Fe  Fe188     1.0  0.85834  0.18841  0.40485  1.0000
  S   S382      1.0  0.86961  0.20318  0.35675  1.0000
  H   H2210     1.0  0.89897  0.99723  0.99363  1.0000
  Fe  Fe189     1.0  0.85047  0.20114  0.33020  1.0000
  S   S383      1.0  0.83977  0.22375  0.29823  1.0000
  Fe  Fe190     1.0  0.88180  0.18060  0.33899  1.0000
  S   S384      1.0  0.90633  0.17623  0.30905  1.0000
  S   S385      1.0  0.83830  0.18797  0.37946  1.0000
  S   S386      1.0  0.87237  0.16597  0.38949  1.0000
  C   C2752     1.0  0.95489  0.11221  0.31390  1.0000
  C   C2753     1.0  0.83919  0.23022  0.39404  1.0000
  H   H2211     1.0  0.75729  0.17140  0.30301  1.0000
  H   H2212     1.0  0.86577  0.19436  0.09735  1.0000
  H   H2213     1.0  0.76327  0.29793  0.31251  1.0000
  H   H2214     1.0  0.80757  0.10899  0.11683  1.0000
  H   H2215     1.0  0.96367  0.15210  0.17220  1.0000
  H   H2216     1.0  0.87696  0.20495  0.45636  1.0000
  H   H2217     1.0  0.96106  0.16978  0.28502  1.0000
  C   C2754     1.0  0.81859  0.24192  0.25878  1.0000
  C   C2755     1.0  0.85511  0.20141  0.10826  1.0000
  H   H2218     1.0  0.98060  0.13634  0.36503  1.0000
  C   C2756     1.0  0.80581  0.07129  0.15342  1.0000
  H   H2219     1.0  0.75307  0.19582  0.26014  1.0000
  C   C2757     1.0  0.82555  0.22664  0.27142  1.0000
  C   C2758     1.0  0.82102  0.21427  0.26256  1.0000
  C   C2759     1.0  0.80923  0.21722  0.24210  1.0000
  H   H2220     1.0  0.86190  0.07645  0.40412  1.0000
  H   H2221     1.0  0.88605  0.15021  0.24645  1.0000
  H   H2222     1.0  0.82654  0.20246  0.27161  1.0000
  H   H2223     1.0  0.80561  0.20761  0.23572  1.0000
  H   H2224     1.0  0.77095  0.24164  0.07332  1.0000
  C   C2760     1.0  0.77253  0.21261  0.34316  1.0000
  C   C2761     1.0  0.88349  0.18388  0.20770  1.0000
  H   H2225     1.0  0.93367  0.08078  0.05304  1.0000
  H   H2226     1.0  0.77207  0.07472  0.15755  1.0000
  H   H2227     1.0  0.81273  0.15595  0.27643  1.0000
  H   H2228     1.0  0.75098  0.26963  0.01423  1.0000
  C   C2762     1.0  0.75862  0.06421  0.20484  1.0000
  H   H2229     1.0  0.91196  0.07380  0.03739  1.0000
  H   H2230     1.0  0.86673  0.04578  0.31771  1.0000
  H   H2231     1.0  0.76553  0.03495  0.40700  1.0000
  H   H2232     1.0  0.78665  0.08830  0.45596  1.0000
  Fe  Fe191     1.0  0.77231  0.28697  0.12143  1.0000
  C   C2763     1.0  0.79750  0.14497  0.34892  1.0000
  C   C2764     1.0  0.80893  0.13164  0.34576  1.0000
  C   C2765     1.0  0.82387  0.13124  0.35147  1.0000
  C   C2766     1.0  0.82745  0.14421  0.35992  1.0000
  C   C2767     1.0  0.81604  0.15757  0.36308  1.0000
  C   C2768     1.0  0.80102  0.15791  0.35772  1.0000
  H   H2233     1.0  0.80637  0.12175  0.33819  1.0000
  H   H2234     1.0  0.83273  0.12098  0.34874  1.0000
  H   H2235     1.0  0.81875  0.16755  0.36990  1.0000
  H   H2236     1.0  0.79210  0.16810  0.36067  1.0000
  C   C2769     1.0  0.93530  0.09854  0.00647  1.0000
  H   H2237     1.0  0.91226  0.02028  0.08468  1.0000
  S   S387      1.0  0.75007  0.29986  0.14893  1.0000
  C   C2770     1.0  0.97672  0.13975  0.07938  1.0000
  C   C2771     1.0  0.77246  0.11289  0.15823  1.0000
  C   C2772     1.0  0.77783  0.27579  0.30562  1.0000
  H   H2238     1.0  0.84681  0.00126  0.40432  1.0000
  C   C2773     1.0  0.81107  0.04138  0.24114  1.0000
  C   C2774     1.0  0.79690  0.04984  0.25591  1.0000
  C   C2775     1.0  0.79640  0.05915  0.28091  1.0000
  C   C2776     1.0  0.81006  0.05996  0.29135  1.0000
  C   C2777     1.0  0.82418  0.05145  0.27668  1.0000
  C   C2778     1.0  0.82471  0.04218  0.25170  1.0000
  H   H2239     1.0  0.78632  0.04910  0.24808  1.0000
  H   H2240     1.0  0.78546  0.06548  0.29264  1.0000
  H   H2241     1.0  0.83475  0.05198  0.28474  1.0000
  H   H2242     1.0  0.83569  0.03565  0.24065  1.0000
  C   C2779     1.0  0.85450  0.01524  0.03353  1.0000
  C   C2780     1.0  0.77494  0.29106  0.02917  1.0000
  H   H2243     1.0  0.83409  0.01232  0.07271  1.0000
  C   C2781     1.0  0.91982  0.12897  0.27345  1.0000
  C   C2782     1.0  0.90847  0.13130  0.30342  1.0000
  C   C2783     1.0  0.90393  0.14593  0.31364  1.0000
  C   C2784     1.0  0.91103  0.15823  0.29452  1.0000
  C   C2785     1.0  0.92238  0.15593  0.26443  1.0000
  C   C2786     1.0  0.92668  0.14135  0.25370  1.0000
  H   H2244     1.0  0.90303  0.12179  0.31859  1.0000
  H   H2245     1.0  0.89515  0.14758  0.33681  1.0000
  H   H2246     1.0  0.92790  0.16542  0.24956  1.0000
  H   H2247     1.0  0.93541  0.13962  0.23052  1.0000
  H   H2248     1.0  0.93732  0.09692  0.09288  1.0000
  C   C2787     1.0  0.92720  0.05109  0.16825  1.0000
  C   C2788     1.0  0.91367  0.06116  0.18027  1.0000
  C   C2789     1.0  0.89937  0.05614  0.18963  1.0000
  C   C2790     1.0  0.89837  0.04100  0.18737  1.0000
  C   C2791     1.0  0.91174  0.03118  0.17359  1.0000
  C   C2792     1.0  0.92608  0.03622  0.16413  1.0000
  H   H2249     1.0  0.91430  0.07266  0.18337  1.0000
  H   H2250     1.0  0.88905  0.06394  0.19941  1.0000
  H   H2251     1.0  0.91118  0.01949  0.17177  1.0000
  H   H2252     1.0  0.93646  0.02838  0.15460  1.0000
  H   H2253     1.0  0.74614  0.17111  0.42239  1.0000
  H   H2254     1.0  0.85780  0.24214  0.36720  1.0000
  H   H2255     1.0  0.74070  0.26322  0.10586  1.0000
  C   C2793     1.0  0.79174  0.24454  0.44927  1.0000
  C   C2794     1.0  0.93681  0.15429  0.36956  1.0000
  C   C2795     1.0  0.74644  0.17967  0.30676  1.0000
  C   C2796     1.0  0.76479  0.16088  0.45171  1.0000
  C   C2797     1.0  0.73694  0.21906  0.21322  1.0000
  H   H2256     1.0  0.76203  0.13072  0.07857  1.0000
  C   C2798     1.0  0.80004  0.02667  0.35233  1.0000
  H   H2257     1.0  0.91048  0.99254  0.09670  1.0000
  S   S388      1.0  0.84942  0.19125  0.46217  1.0000
  C   C2799     1.0  0.85756  0.07288  0.24239  1.0000
  H   H2258     1.0  0.88867  0.18411  0.12723  1.0000
  H   H2259     1.0  0.85387  0.00515  0.30095  1.0000
  H   H2260     1.0  0.75385  0.26012  0.31800  1.0000
  H   H2261     1.0  0.85982  0.15012  0.17582  1.0000
  H   H2262     1.0  0.80165  0.25671  0.22846  1.0000
  H   H2263     1.0  0.81424  0.26042  0.33215  1.0000
  C   C2800     1.0  0.75428  0.22521  0.15782  1.0000
  C   C2801     1.0  0.77276  0.11615  0.12150  1.0000
  C   C2802     1.0  0.90015  0.05465  0.06026  1.0000
  H   H2264     1.0  0.74184  0.24106  0.07693  1.0000
  H   H2265     1.0  0.92457  0.15938  0.37068  1.0000
  H   H2266     1.0  0.83859  0.09386  0.29526  1.0000
  H   H2267     1.0  0.86485  0.22327  0.23832  1.0000
  H   H2268     1.0  0.84542  0.07910  0.16332  1.0000
  C   C2803     1.0  0.89086  0.07611  0.27555  1.0000
  C   C2804     1.0  0.89307  0.06082  0.26966  1.0000
  C   C2805     1.0  0.90763  0.05105  0.26944  1.0000
  C   C2806     1.0  0.92008  0.05639  0.27548  1.0000
  C   C2807     1.0  0.91784  0.07132  0.28306  1.0000
  C   C2808     1.0  0.90325  0.08103  0.28364  1.0000
  H   H2269     1.0  0.86558  0.10871  0.20484  1.0000
  H   H2270     1.0  0.88389  0.05642  0.26378  1.0000
  H   H2271     1.0  0.90941  0.03956  0.26293  1.0000
  H   H2272     1.0  0.93151  0.04905  0.27374  1.0000
  H   H2273     1.0  0.92748  0.07557  0.28758  1.0000
  H   H2274     1.0  0.90179  0.09251  0.28980  1.0000
  H   H2275     1.0  0.76519  0.17175  0.45883  1.0000
  H   H2276     1.0  0.89460  0.10484  0.21966  1.0000
  C   C2809     1.0  0.96314  0.15591  0.19688  1.0000
  C   C2810     1.0  0.76181  0.12822  0.10689  1.0000
  H   H2277     1.0  0.84625  0.22179  0.41125  1.0000
  H   H2278     1.0  0.77100  0.24166  0.28053  1.0000
  P   P92       1.0  0.82575  0.00267  0.35497  1.0000
  C   C2811     1.0  0.83934  0.01256  0.04515  1.0000
  C   C2812     1.0  0.73588  0.23476  0.27527  1.0000
  C   C2813     1.0  0.97935  0.10737  0.27383  1.0000
  C   C2814     1.0  0.77540  0.22448  0.35740  1.0000
  C   C2815     1.0  0.82743  0.22014  0.13473  1.0000
  C   C2816     1.0  0.88772  0.11326  0.23574  1.0000
  C   C2817     1.0  0.87018  0.15342  0.15896  1.0000
  H   H2279     1.0  0.82178  0.09121  0.35375  1.0000
  H   H2280     1.0  0.75971  0.22519  0.25451  1.0000
  H   H2281     1.0  0.85742  0.12513  0.42726  1.0000
  P   P93       1.0  0.87242  0.08940  0.27337  1.0000
  C   C2818     1.0  0.86004  0.08640  0.31602  1.0000
  C   C2819     1.0  0.83428  0.08843  0.35190  1.0000
  C   C2820     1.0  0.84385  0.08985  0.31869  1.0000
  C   C2821     1.0  0.76850  0.07428  0.18584  1.0000
  C   C2822     1.0  0.93726  0.10177  0.06524  1.0000
  C   C2823     1.0  0.76715  0.28354  0.36262  1.0000
  H   H2282     1.0  0.79181  0.17179  0.42778  1.0000
  C   C2824     1.0  0.77455  0.26927  0.37956  1.0000
  C   C2825     1.0  0.86649  0.08159  0.34709  1.0000
  C   C2826     1.0  0.85686  0.08010  0.38028  1.0000
  C   C2827     1.0  0.84074  0.08353  0.38267  1.0000
  H   H2283     1.0  0.87894  0.07921  0.34577  1.0000
  H   H2284     1.0  0.83321  0.08250  0.40829  1.0000
  S   S389      1.0  0.78184  0.29582  0.06388  1.0000
  H   H2285     1.0  0.82773  0.23231  0.08109  1.0000
  H   H2286     1.0  0.76580  0.23339  0.36586  1.0000
  H   H2287     1.0  0.83878  0.09631  0.47563  1.0000
  C   C2828     1.0  0.74036  0.20429  0.16606  1.0000
  C   C2829     1.0  0.86173  0.09787  0.20825  1.0000
  C   C2830     1.0  0.89107  0.12818  0.22895  1.0000
  H   H2288     1.0  0.87413  0.05308  0.13754  1.0000
  H   H2289     1.0  0.96046  0.04866  0.03640  1.0000
  H   H2290     1.0  0.78261  0.19198  0.32049  1.0000
  H   H2291     1.0  0.85125  0.21251  0.20433  1.0000
  C   C2831     1.0  0.90192  0.00221  0.01350  1.0000
  H   H2292     1.0  0.79988  0.06409  0.17552  1.0000
  C   C2832     1.0  0.87602  0.10904  0.26393  1.0000
  H   H2293     1.0  0.85415  0.10399  0.15767  1.0000
  C   C2833     1.0  0.83077  0.01072  0.02068  1.0000
  C   C2834     1.0  0.81941  0.16614  0.22176  1.0000
  C   C2835     1.0  0.81593  0.99289  0.26555  1.0000
  H   H2294     1.0  0.93251  0.04979  0.05680  1.0000
  Fe  Fe192     1.0  0.94810  0.11318  0.13112  1.0000
  H   H2295     1.0  0.82170  0.05145  0.13618  1.0000
  C   C2836     1.0  0.76852  0.08329  0.23967  1.0000
  C   C2837     1.0  0.77379  0.08364  0.20330  1.0000
  C   C2838     1.0  0.83833  0.01678  0.34175  1.0000
  C   C2839     1.0  0.84653  0.16888  0.24189  1.0000
  S   S390      1.0  0.75273  0.27083  0.21589  1.0000
  C   C2840     1.0  0.83079  0.17274  0.19669  1.0000
  C   C2841     1.0  0.85518  0.09527  0.18127  1.0000
  C   C2842     1.0  0.86319  0.08658  0.23898  1.0000
  C   C2843     1.0  0.86619  0.11688  0.47629  1.0000
  H   H2296     1.0  0.75455  0.07305  0.28672  1.0000
  H   H2297     1.0  0.76084  0.21247  0.34031  1.0000
  H   H2298     1.0  0.89336  0.17455  0.48520  1.0000
  H   H2299     1.0  0.75479  0.05683  0.19134  1.0000
  C   C2844     1.0  0.90398  0.06902  0.05950  1.0000
  S   S391      1.0  0.95666  0.12037  0.17400  1.0000
  S   S392      1.0  0.94185  0.12857  0.08085  1.0000
  H   H2300     1.0  0.84168  0.26131  0.32766  1.0000
  C   C2845     1.0  0.81847  0.06402  0.13142  1.0000
  H   H2301     1.0  0.78618  0.12792  0.19444  1.0000
  H   H2302     1.0  0.83695  0.15828  0.29387  1.0000
  Fe  Fe193     1.0  0.97412  0.09800  0.17355  1.0000
  H   H2303     1.0  0.83009  0.20625  0.18541  1.0000
  H   H2304     1.0  0.96903  0.14487  0.02954  1.0000
  H   H2305     1.0  0.74186  0.14628  0.11762  1.0000
  C   C2846     1.0  0.75903  0.27748  0.00833  1.0000
  C   C2847     1.0  0.78785  0.24105  0.48615  1.0000
  C   C2848     1.0  0.84896  0.19859  0.14457  1.0000
  H   H2306     1.0  0.90119  0.08803  0.08699  1.0000
  C   C2849     1.0  0.75380  0.16052  0.43163  1.0000
  S   S393      1.0  0.96677  0.09198  0.12743  1.0000
  H   H2307     1.0  0.80110  0.13578  0.23093  1.0000
  C   C2850     1.0  0.85022  0.08132  0.18442  1.0000
  H   H2308     1.0  0.89015  0.20887  0.25418  1.0000
  H   H2309     1.0  0.77319  0.26706  0.40811  1.0000
  C   C2851     1.0  0.76427  0.28116  0.03624  1.0000
  H   H2310     1.0  0.74085  0.14017  0.18259  1.0000
  C   C2852     1.0  0.79695  0.17410  0.44816  1.0000
  C   C2853     1.0  0.74712  0.22835  0.19153  1.0000
  C   C2854     1.0  0.78478  0.20104  0.33207  1.0000
  P   P94       1.0  0.90800  0.04479  0.02300  1.0000
  S   S394      1.0  0.76511  0.26391  0.13540  1.0000
  H   H2311     1.0  0.81459  0.21328  0.35126  1.0000
  S   S395      1.0  0.78437  0.28261  0.16877  1.0000
  C   C2855     1.0  0.79425  0.11910  0.20818  1.0000
  C   C2856     1.0  0.80291  0.12369  0.22841  1.0000
  C   C2857     1.0  0.85150  0.07012  0.21487  1.0000
  C   C2858     1.0  0.76225  0.13270  0.43628  1.0000
  C   C2859     1.0  0.94401  0.15308  0.39849  1.0000
  C   C2860     1.0  0.78112  0.08925  0.48283  1.0000
  C   C2861     1.0  0.86770  0.12004  0.28509  1.0000
  C   C2862     1.0  0.88290  0.13896  0.25043  1.0000
  H   H2312     1.0  0.85801  0.06419  0.26608  1.0000
  C   C2863     1.0  0.79745  0.00594  0.40271  1.0000
  H   H2313     1.0  0.85878  0.11719  0.30734  1.0000
  H   H2314     1.0  0.97179  0.10551  0.03391  1.0000
  C   C2864     1.0  0.89762  0.07726  0.08725  1.0000
  H   H2315     1.0  0.88215  0.07769  0.13727  1.0000
  C   C2865     1.0  0.80127  0.08756  0.14745  1.0000
  C   C2866     1.0  0.95820  0.17162  0.19933  1.0000
  C   C2867     1.0  0.87124  0.13489  0.27842  1.0000
  H   H2316     1.0  0.81674  0.22744  0.14520  1.0000
  C   C2868     1.0  0.79613  0.10334  0.20596  1.0000
  P   P95       1.0  0.78599  0.09705  0.17823  1.0000
  H   H2317     1.0  0.88507  0.03854  0.08832  1.0000
  H   H2318     1.0  0.84797  0.05916  0.21696  1.0000
  H   H2319     1.0  0.80939  0.19231  0.32679  1.0000
  Fe  Fe194     1.0  0.76107  0.29337  0.19744  1.0000
  H   H2320     1.0  0.83703  0.06714  0.08732  1.0000
  C   C2869     1.0  0.81367  0.11265  0.24603  1.0000
  H   H2321     1.0  0.82017  0.11618  0.26220  1.0000
  H   H2322     1.0  0.95485  0.17997  0.17660  1.0000
  C   C2870     1.0  0.82708  0.07289  0.10398  1.0000
  H   H2323     1.0  0.82403  0.08838  0.25705  1.0000
  C   C2871     1.0  0.83517  0.16228  0.26680  1.0000
  C   C2872     1.0  0.79986  0.20123  0.33560  1.0000
  H   H2324     1.0  0.74439  0.13358  0.30025  1.0000
  C   C2873     1.0  0.88686  0.07149  0.11537  1.0000
  C   C2874     1.0  0.78277  0.01407  0.41551  1.0000
  C   C2875     1.0  0.76885  0.28682  0.32569  1.0000
  C   C2876     1.0  0.80709  0.09239  0.22338  1.0000
  H   H2325     1.0  0.78120  0.10925  0.10416  1.0000
  H   H2326     1.0  0.80883  0.16520  0.21409  1.0000
  S   S396      1.0  0.75703  0.30778  0.24065  1.0000
  C   C2877     1.0  0.93920  0.11710  0.05222  1.0000
  C   C2878     1.0  0.83656  0.25259  0.34726  1.0000
  H   H2327     1.0  0.87092  0.98480  0.08821  1.0000
  C   C2879     1.0  0.80278  0.21314  0.34957  1.0000
  C   C2880     1.0  0.86161  0.02524  0.30639  1.0000
  C   C2881     1.0  0.79056  0.22480  0.36080  1.0000
  C   C2882     1.0  0.77349  0.13308  0.45546  1.0000
  C   C2883     1.0  0.87255  0.16879  0.15288  1.0000
  H   H2328     1.0  0.80350  0.19506  0.41626  1.0000
  H   H2329     1.0  0.93733  0.15721  0.42226  1.0000
  C   C2884     1.0  0.81581  0.09703  0.24330  1.0000
  C   C2885     1.0  0.78821  0.24816  0.02867  1.0000
  H   H2330     1.0  0.88879  0.17266  0.20046  1.0000
  C   C2886     1.0  0.82368  0.22941  0.39622  1.0000
  H   H2331     1.0  0.80897  0.08022  0.22149  1.0000
  C   C2887     1.0  0.78366  0.25816  0.35954  1.0000
  C   C2888     1.0  0.82304  0.08910  0.09864  1.0000
  C   C2889     1.0  0.78509  0.26146  0.32248  1.0000
  H   H2332     1.0  0.80666  0.03168  0.32798  1.0000
  C   C2890     1.0  0.85747  0.12756  0.45309  1.0000
  H   H2333     1.0  0.94081  0.13495  0.00592  1.0000
  H   H2334     1.0  0.77593  0.21728  0.42835  1.0000
  C   C2891     1.0  0.77914  0.22421  0.44393  1.0000
  H   H2335     1.0  0.83034  0.11421  0.42254  1.0000
  C   C2892     1.0  0.78745  0.23614  0.42782  1.0000
  H   H2336     1.0  0.75590  0.21125  0.11838  1.0000
  H   H2337     1.0  0.76102  0.12168  0.43139  1.0000
  C   C2893     1.0  0.79490  0.24674  0.99364  1.0000
  C   C2894     1.0  0.81027  0.09642  0.12049  1.0000
  H   H2338     1.0  0.77194  0.09080  0.25349  1.0000
  P   P96       1.0  0.79393  0.23992  0.38039  1.0000
  C   C2895     1.0  0.81438  0.24030  0.37428  1.0000
  C   C2896     1.0  0.88239  0.05756  0.11555  1.0000
  H   H2339     1.0  0.82995  0.09597  0.07786  1.0000
  H   H2340     1.0  0.81894  0.00899  0.02947  1.0000
  H   H2341     1.0  0.82893  0.17671  0.16960  1.0000
  C   C2897     1.0  0.88889  0.04919  0.08796  1.0000
  C   C2898     1.0  0.77500  0.14719  0.46292  1.0000
  H   H2342     1.0  0.76231  0.23222  0.14136  1.0000
  C   C2899     1.0  0.77140  0.23049  0.02949  1.0000
  C   C2900     1.0  0.83506  0.20809  0.15753  1.0000
  H   H2343     1.0  0.90056  0.13112  0.20814  1.0000
  H   H2344     1.0  0.79196  0.25577  0.04179  1.0000
  C   C2901     1.0  0.89111  0.19012  0.22716  1.0000
  C   C2902     1.0  0.77635  0.24019  0.04647  1.0000
  Fe  Fe195     1.0  0.74351  0.27651  0.16521  1.0000
  C   C2903     1.0  0.82095  0.25193  0.34972  1.0000
  H   H2345     1.0  0.85698  0.16973  0.25012  1.0000
  C   C2904     1.0  0.84434  0.17437  0.20680  1.0000
  H   H2346     1.0  0.90207  0.18381  0.23449  1.0000
  C   C2905     1.0  0.80219  0.23254  0.22970  1.0000
  H   H2347     1.0  0.79202  0.25302  0.30659  1.0000
  H   H2348     1.0  0.81045  0.98060  0.99431  1.0000
  H   H2349     1.0  0.77910  0.27838  0.27694  1.0000
  C   C2906     1.0  0.87101  0.20360  0.48355  1.0000
  H   H2350     1.0  0.76025  0.29215  0.37808  1.0000
  C   C2907     1.0  0.95256  0.09739  0.31343  1.0000
  C   C2908     1.0  0.80626  0.01225  0.37098  1.0000
  C   C2909     1.0  0.92858  0.04402  0.00892  1.0000
  H   H2351     1.0  0.76229  0.22420  0.04337  1.0000
  C   C2910     1.0  0.83362  0.22287  0.09867  1.0000
  C   C2911     1.0  0.86913  0.19191  0.19858  1.0000
  S   S397      1.0  0.78760  0.23584  0.20367  1.0000
  H   H2352     1.0  0.82218  0.25154  0.26519  1.0000
  C   C2912     1.0  0.80693  0.24488  0.23804  1.0000
  P   P97       1.0  0.85885  0.18340  0.17506  1.0000
  C   C2913     1.0  0.88146  0.14197  0.14398  1.0000
  H   H2353     1.0  0.80794  0.99801  0.24720  1.0000
  Fe  Fe196     1.0  0.77522  0.26035  0.18472  1.0000
  H   H2354     1.0  0.76004  0.27630  0.06322  1.0000
  H   H2355     1.0  0.86527  0.14311  0.29571  1.0000
  C   C2914     1.0  0.82158  0.16095  0.25687  1.0000
  C   C2915     1.0  0.93514  0.09261  0.04256  1.0000
  H   H2356     1.0  0.94189  0.09376  0.32764  1.0000
  C   C2916     1.0  0.97696  0.09259  0.27341  1.0000
  C   C2917     1.0  0.89763  0.16095  0.11666  1.0000
  C   C2918     1.0  0.86248  0.20618  0.20981  1.0000
  C   C2919     1.0  0.81547  0.99996  0.29434  1.0000
  H   H2357     1.0  0.87971  0.13009  0.14915  1.0000
  C   C2920     1.0  0.93766  0.04690  0.03093  1.0000
  H   H2358     1.0  0.74597  0.05595  0.25603  1.0000
  C   C2921     1.0  0.85884  0.03770  0.32440  1.0000
  C   C2922     1.0  0.80370  0.18724  0.44134  1.0000
  H   H2359     1.0  0.77607  0.00924  0.44012  1.0000
  C   C2923     1.0  0.75367  0.06369  0.24124  1.0000
  C   C2924     1.0  0.88639  0.17244  0.13157  1.0000
  C   C2925     1.0  0.95748  0.17652  0.23119  1.0000
  H   H2360     1.0  0.94598  0.11968  0.32904  1.0000
  C   C2926     1.0  0.83550  0.02950  0.35931  1.0000
  C   C2927     1.0  0.75851  0.24251  0.28552  1.0000
  C   C2928     1.0  0.82600  0.99361  0.31782  1.0000
  C   C2929     1.0  0.86117  0.01561  0.99777  1.0000
  H   H2361     1.0  0.75976  0.11870  0.20877  1.0000
  H   H2362     1.0  0.96534  0.14561  0.41919  1.0000
  C   C2930     1.0  0.76064  0.12142  0.18018  1.0000
  H   H2363     1.0  0.82539  0.03145  0.37970  1.0000
  C   C2931     1.0  0.85144  0.01477  0.31509  1.0000
  C   C2932     1.0  0.90605  0.02472  0.03261  1.0000
  H   H2364     1.0  0.74949  0.23807  0.20023  1.0000
  C   C2933     1.0  0.93926  0.12313  0.01615  1.0000
  C   C2934     1.0  0.83260  0.98780  0.39013  1.0000
  H   H2365     1.0  0.87291  0.10617  0.46832  1.0000
  C   C2935     1.0  0.95362  0.04608  0.01958  1.0000
  C   C2936     1.0  0.88442  0.20431  0.23815  1.0000
  C   C2937     1.0  0.90836  0.99962  0.07154  1.0000
  S   S398      1.0  0.73782  0.10466  0.29240  1.0000
  C   C2938     1.0  0.75205  0.23331  0.27032  1.0000
  C   C2939     1.0  0.74980  0.13353  0.16547  1.0000
  C   C2940     1.0  0.95979  0.14656  0.39669  1.0000
  H   H2366     1.0  0.93962  0.14996  0.31683  1.0000
  C   C2941     1.0  0.94538  0.14900  0.33890  1.0000
  C   C2942     1.0  0.90467  0.99305  0.04595  1.0000
  C   C2943     1.0  0.96361  0.08756  0.29338  1.0000
  C   C2944     1.0  0.96721  0.14506  0.22635  1.0000
  C   C2945     1.0  0.90920  0.01538  0.06479  1.0000
  C   C2946     1.0  0.96841  0.14131  0.36589  1.0000
  H   H2367     1.0  0.97086  0.13294  0.22395  1.0000
  H   H2368     1.0  0.87160  0.02373  0.28538  1.0000
  C   C2947     1.0  0.75081  0.21328  0.14498  1.0000
  C   C2948     1.0  0.96641  0.14986  0.25854  1.0000
  C   C2949     1.0  0.77527  0.22075  0.48084  1.0000
  C   C2950     1.0  0.78543  0.03480  0.36523  1.0000
  C   C2951     1.0  0.82930  0.10607  0.47873  1.0000
  H   H2369     1.0  0.84224  0.14981  0.44481  1.0000
  C   C2952     1.0  0.96165  0.16572  0.26062  1.0000
  C   C2953     1.0  0.81205  0.12849  0.45294  1.0000
  H   H2370     1.0  0.87576  0.04801  0.01764  1.0000
  H   H2371     1.0  0.80701  0.01046  0.29763  1.0000
  H   H2372     1.0  0.84321  0.04995  0.36354  1.0000
  C   C2954     1.0  0.74889  0.25290  0.30650  1.0000
  H   H2373     1.0  0.96161  0.07622  0.29245  1.0000
  H   H2374     1.0  0.78091  0.04608  0.35086  1.0000
  P   P98       1.0  0.97209  0.13599  0.29646  1.0000
  H   H2375     1.0  0.85227  0.21569  0.05749  1.0000
  C   C2955     1.0  0.90268  0.01797  0.00676  1.0000
  H   H2376     1.0  0.81894  0.22033  0.41519  1.0000
  H   H2377     1.0  0.81665  0.20003  0.46114  1.0000
  H   H2378     1.0  0.90840  0.16374  0.10063  1.0000
  C   C2956     1.0  0.96842  0.11725  0.29446  1.0000
  C   C2957     1.0  0.84570  0.03994  0.35054  1.0000
  C   C2958     1.0  0.77679  0.02853  0.39686  1.0000
  H   H2379     1.0  0.90408  0.13680  0.11170  1.0000
  C   C2959     1.0  0.96124  0.14254  0.33669  1.0000
  C   C2960     1.0  0.84567  0.24175  0.36943  1.0000
  H   H2380     1.0  0.80836  0.13608  0.42960  1.0000
  C   C2961     1.0  0.84744  0.21350  0.08544  1.0000
  C   C2962     1.0  0.97596  0.08386  0.01561  1.0000
  H   H2381     1.0  0.90389  0.98089  0.05130  1.0000
  H   H2382     1.0  0.78069  0.12223  0.46518  1.0000
  H   H2383     1.0  0.95350  0.18868  0.23323  1.0000
  C   C2963     1.0  0.89520  0.14571  0.12293  1.0000
  C   C2964     1.0  0.81118  0.19003  0.46645  1.0000
  C   C2965     1.0  0.84889  0.14148  0.46302  1.0000
  H   H2384     1.0  0.96736  0.07920  0.03652  1.0000
  C   C2966     1.0  0.82447  0.11604  0.44888  1.0000
  H   H2385     1.0  0.79844  0.25357  0.43747  1.0000
  C   C2967     1.0  0.75039  0.13697  0.12885  1.0000
  C   C2968     1.0  0.75254  0.14642  0.42392  1.0000
  C   C2969     1.0  0.97852  0.09879  0.01402  1.0000
  H   H2386     1.0  0.96697  0.14770  0.09115  1.0000
  H   H2387     1.0  0.74400  0.14603  0.40863  1.0000
  C   C2970     1.0  0.74395  0.19345  0.28239  1.0000
  Fe  Fe197     1.0  0.85927  0.98763  0.18601  1.0000
  C   C2971     1.0  0.80434  0.13101  0.48687  1.0000
  C   C2972     1.0  0.73983  0.31125  0.06103  1.0000
  C   C2973     1.0  0.79724  0.16396  0.48074  1.0000
  H   H2388     1.0  0.80187  0.99490  0.41794  1.0000
  C   C2974     1.0  0.77819  0.22894  0.99456  1.0000
  C   C2975     1.0  0.97800  0.13817  0.04414  1.0000
  C   C2976     1.0  0.78015  0.29739  0.99375  1.0000
  H   H2389     1.0  0.73679  0.16549  0.35402  1.0000
  H   H2390     1.0  0.73729  0.19531  0.15586  1.0000
  C   C2977     1.0  0.73598  0.13611  0.28285  1.0000
  C   C2978     1.0  0.84281  0.99036  0.40986  1.0000
  C   C2979     1.0  0.93752  0.11379  0.99320  1.0000
  H   H2391     1.0  0.98534  0.08516  0.25696  1.0000
  H   H2392     1.0  0.74740  0.31382  0.07612  1.0000
  H   H2393     1.0  0.85599  0.98074  0.45198  1.0000
  Fe  Fe198     1.0  0.84313  0.00286  0.90497  1.0000
  H   H2394     1.0  0.88771  0.21222  0.50275  1.0000
  S   S399      1.0  0.82669  0.00968  0.95360  1.0000
  Fe  Fe199     1.0  0.85272  0.00614  0.82583  1.0000
  S   S400      1.0  0.87543  0.98923  0.82921  1.0000
  S   S401      1.0  0.84773  0.01897  0.77220  1.0000
  C   C2980     1.0  0.90365  0.06498  0.95923  1.0000
  Fe  Fe200     1.0  0.87722  0.00181  0.87175  1.0000
  S   S402      1.0  0.89755  0.00764  0.88907  1.0000
  S   S403      1.0  0.83792  0.99094  0.86516  1.0000
  S   S404      1.0  0.85570  0.01965  0.86510  1.0000
  S   S405      1.0  0.92540  0.09799  0.87989  1.0000
  Fe  Fe201     1.0  0.78142  0.07817  0.70741  1.0000
  S   S406      1.0  0.80231  0.08219  0.66674  1.0000
  S   S407      1.0  0.78074  0.05547  0.74587  1.0000
  Fe  Fe202     1.0  0.76458  0.11136  0.68686  1.0000
  S   S408      1.0  0.78455  0.11790  0.64487  1.0000
  C   C2981     1.0  0.95180  0.03867  0.96509  1.0000
  Fe  Fe203     1.0  0.78595  0.09474  0.62975  1.0000
  S   S409      1.0  0.79512  0.09001  0.57386  1.0000
  Fe  Fe204     1.0  0.79913  0.10463  0.68527  1.0000
  S   S410      1.0  0.82045  0.11011  0.69700  1.0000
  S   S411      1.0  0.76499  0.08895  0.66901  1.0000
  S   S412      1.0  0.77920  0.09999  0.72840  1.0000
  S   S413      1.0  0.77645  0.26937  0.84412  1.0000
  S   S414      1.0  0.81204  0.28452  0.78096  1.0000
  Fe  Fe205     1.0  0.75752  0.27883  0.81228  1.0000
  S   S415      1.0  0.74924  0.26381  0.78443  1.0000
  Fe  Fe206     1.0  0.87339  0.17354  0.69583  1.0000
  S   S416      1.0  0.85039  0.18145  0.72808  1.0000
  S   S417      1.0  0.88798  0.15008  0.71395  1.0000
  Fe  Fe207     1.0  0.86781  0.20075  0.63559  1.0000
  S   S418      1.0  0.84450  0.21131  0.66399  1.0000
  Fe  Fe208     1.0  0.85569  0.20547  0.71246  1.0000
  S   S419      1.0  0.84827  0.21644  0.76204  1.0000
  Fe  Fe209     1.0  0.84076  0.18682  0.67835  1.0000
  S   S420      1.0  0.81745  0.18184  0.67897  1.0000
  S   S421      1.0  0.87972  0.19715  0.68298  1.0000
  S   S422      1.0  0.86306  0.17659  0.64684  1.0000
  C   C2982     1.0  0.82094  0.26547  0.77339  1.0000
  C   C2983     1.0  0.83367  0.26338  0.74581  1.0000
  C   C2984     1.0  0.84158  0.24836  0.74054  1.0000
  C   C2985     1.0  0.83705  0.23530  0.76345  1.0000
  C   C2986     1.0  0.82430  0.23739  0.79087  1.0000
  C   C2987     1.0  0.81610  0.25236  0.79544  1.0000
  H   H2395     1.0  0.83757  0.27343  0.72874  1.0000
  H   H2396     1.0  0.85159  0.24690  0.71974  1.0000
  H   H2397     1.0  0.82092  0.22736  0.80884  1.0000
  H   H2398     1.0  0.80648  0.25376  0.81697  1.0000
  H   H2399     1.0  0.82628  0.28476  0.84828  1.0000
  C   C2988     1.0  0.82735  0.14176  0.58231  1.0000
  C   C2989     1.0  0.88859  0.01858  0.66419  1.0000
  C   C2990     1.0  0.77687  0.14542  0.53520  1.0000
  H   H2400     1.0  0.81571  0.10700  0.93494  1.0000
  C   C2991     1.0  0.95665  0.14346  0.92651  1.0000
  C   C2992     1.0  0.76726  0.13571  0.83366  1.0000
  H   H2401     1.0  0.94791  0.16754  0.90766  1.0000
  C   C2993     1.0  0.74354  0.20181  0.84967  1.0000
  C   C2994     1.0  0.81901  0.12994  0.69572  1.0000
  C   C2995     1.0  0.80516  0.14034  0.69098  1.0000
  C   C2996     1.0  0.80455  0.15632  0.68730  1.0000
  C   C2997     1.0  0.81787  0.16187  0.68748  1.0000
  C   C2998     1.0  0.83150  0.15141  0.69383  1.0000
  C   C2999     1.0  0.83200  0.13543  0.69844  1.0000
  H   H2402     1.0  0.79499  0.13613  0.68964  1.0000
  H   H2403     1.0  0.79392  0.16442  0.68305  1.0000
  H   H2404     1.0  0.84173  0.15565  0.69463  1.0000
  H   H2405     1.0  0.84264  0.12741  0.70292  1.0000
  C   C3000     1.0  0.76785  0.29205  0.65505  1.0000
  H   H2406     1.0  0.74694  0.05973  0.83211  1.0000
  C   C3001     1.0  0.74802  0.15401  0.76338  1.0000
  H   H2407     1.0  0.88278  0.05535  0.87427  1.0000
  H   H2408     1.0  0.78314  0.09214  0.86559  1.0000
  C   C3002     1.0  0.74675  0.29268  0.70518  1.0000
  H   H2409     1.0  0.76258  0.13818  0.72994  1.0000
  H   H2410     1.0  0.77680  0.22633  0.53055  1.0000
  C   C3003     1.0  0.78322  0.09002  0.54339  1.0000
  C   C3004     1.0  0.76716  0.09106  0.55330  1.0000
  C   C3005     1.0  0.86108  0.02938  0.67042  1.0000
  C   C3006     1.0  0.81240  0.14920  0.59529  1.0000
  H   H2411     1.0  0.76171  0.09170  0.58045  1.0000
  C   C3007     1.0  0.92065  0.14151  0.79464  1.0000
  C   C3008     1.0  0.90904  0.13224  0.75467  1.0000
  C   C3009     1.0  0.90109  0.14731  0.74366  1.0000
  C   C3010     1.0  0.90330  0.15959  0.75756  1.0000
  C   C3011     1.0  0.91302  0.15668  0.78301  1.0000
  H   H2412     1.0  0.83877  0.08965  0.90766  1.0000
  H   H2413     1.0  0.89748  0.17130  0.74883  1.0000
  H   H2414     1.0  0.91461  0.16621  0.79377  1.0000
  C   C3012     1.0  0.82878  0.02899  0.76769  1.0000
  C   C3013     1.0  0.81565  0.02246  0.78313  1.0000
  C   C3014     1.0  0.80089  0.03052  0.77620  1.0000
  C   C3015     1.0  0.79919  0.04531  0.75479  1.0000
  C   C3016     1.0  0.81231  0.05188  0.74044  1.0000
  C   C3017     1.0  0.82701  0.04357  0.74600  1.0000
  H   H2415     1.0  0.81694  0.01107  0.79956  1.0000
  H   H2416     1.0  0.79079  0.02534  0.78752  1.0000
  H   H2417     1.0  0.81122  0.06339  0.72517  1.0000
  H   H2418     1.0  0.83708  0.04850  0.73361  1.0000
  C   C3018     1.0  0.90526  0.02478  0.87216  1.0000
  C   C3019     1.0  0.90378  0.03320  0.83828  1.0000
  C   C3020     1.0  0.91990  0.05070  0.84479  1.0000
  C   C3021     1.0  0.92091  0.04263  0.87913  1.0000
  C   C3022     1.0  0.91377  0.02961  0.89257  1.0000
  H   H2419     1.0  0.83894  0.19181  0.53523  1.0000
  H   H2420     1.0  0.92765  0.04610  0.89478  1.0000
  H   H2421     1.0  0.91507  0.02309  0.91867  1.0000
  C   C3023     1.0  0.85676  0.11908  0.62560  1.0000
  H   H2422     1.0  0.93763  0.11846  0.96541  1.0000
  C   C3024     1.0  0.84227  0.02015  0.51687  1.0000
  C   C3025     1.0  0.85586  0.19988  0.55438  1.0000
  Fe  Fe210     1.0  0.94217  0.11322  0.85005  1.0000
  H   H2423     1.0  0.85813  0.01378  0.94611  1.0000
  H   H2424     1.0  0.83887  0.25777  0.84166  1.0000
  C   C3026     1.0  0.74133  0.20928  0.81563  1.0000
  H   H2425     1.0  0.78764  0.22407  0.82323  1.0000
  C   C3027     1.0  0.79903  0.04479  0.65785  1.0000
  C   C3028     1.0  0.79859  0.03156  0.68402  1.0000
  C   C3029     1.0  0.82703  0.03715  0.64277  1.0000
  C   C3030     1.0  0.81317  0.04754  0.63708  1.0000
  P   P99       1.0  0.84496  0.04012  0.61365  1.0000
  C   C3031     1.0  0.84583  0.06048  0.60195  1.0000
  C   C3032     1.0  0.85306  0.06659  0.56807  1.0000
  C   C3033     1.0  0.85361  0.08241  0.55906  1.0000
  C   C3034     1.0  0.84707  0.09217  0.58389  1.0000
  C   C3035     1.0  0.84027  0.08607  0.61796  1.0000
  C   C3036     1.0  0.83985  0.07022  0.62718  1.0000
  C   C3037     1.0  0.85215  0.01726  0.57123  1.0000
  C   C3038     1.0  0.87801  0.09935  0.64500  1.0000
  H   H2426     1.0  0.78767  0.02972  0.70082  1.0000
  H   H2427     1.0  0.81320  0.05781  0.61667  1.0000
  H   H2428     1.0  0.85024  0.03286  0.68760  1.0000
  H   H2429     1.0  0.85823  0.05918  0.54857  1.0000
  H   H2430     1.0  0.85894  0.08715  0.53271  1.0000
  H   H2431     1.0  0.84715  0.10447  0.57669  1.0000
  H   H2432     1.0  0.83514  0.09368  0.63716  1.0000
  H   H2433     1.0  0.83469  0.06559  0.65383  1.0000
  H   H2434     1.0  0.85860  0.00999  0.59107  1.0000
  H   H2435     1.0  0.88934  0.11867  0.56238  1.0000
  C   C3039     1.0  0.90554  0.13064  0.91028  1.0000
  C   C3040     1.0  0.90316  0.11989  0.94146  1.0000
  C   C3041     1.0  0.76343  0.18493  0.70225  1.0000
  C   C3042     1.0  0.88048  0.11534  0.92428  1.0000
  C   C3043     1.0  0.88271  0.12628  0.89300  1.0000
  C   C3044     1.0  0.89546  0.13371  0.88595  1.0000
  P   P100      1.0  0.86961  0.13086  0.86153  1.0000
  C   C3045     1.0  0.87765  0.12043  0.82514  1.0000
  C   C3046     1.0  0.85194  0.12383  0.88257  1.0000
  C   C3047     1.0  0.85168  0.10798  0.88586  1.0000
  C   C3048     1.0  0.83872  0.10193  0.90488  1.0000
  C   C3049     1.0  0.76426  0.28376  0.97297  1.0000
  H   H2436     1.0  0.74297  0.29205  0.73346  1.0000
  C   C3050     1.0  0.83867  0.13366  0.89713  1.0000
  C   C3051     1.0  0.87007  0.12340  0.79594  1.0000
  C   C3052     1.0  0.87525  0.11433  0.76935  1.0000
  C   C3053     1.0  0.88776  0.10189  0.77227  1.0000
  C   C3054     1.0  0.89526  0.09874  0.80143  1.0000
  C   C3055     1.0  0.89028  0.10798  0.82772  1.0000
  C   C3056     1.0  0.86624  0.15185  0.84899  1.0000
  C   C3057     1.0  0.86922  0.15911  0.81345  1.0000
  C   C3058     1.0  0.86756  0.17527  0.80472  1.0000
  C   C3059     1.0  0.86298  0.18435  0.83119  1.0000
  C   C3060     1.0  0.86027  0.17726  0.86664  1.0000
  C   C3061     1.0  0.86204  0.16108  0.87556  1.0000
  H   H2437     1.0  0.91553  0.13623  0.90426  1.0000
  C   C3062     1.0  0.81351  0.21679  0.93815  1.0000
  H   H2438     1.0  0.87006  0.04162  0.93069  1.0000
  H   H2439     1.0  0.87098  0.10919  0.93029  1.0000
  H   H2440     1.0  0.89775  0.14179  0.86146  1.0000
  H   H2441     1.0  0.86165  0.10020  0.87429  1.0000
  C   C3063     1.0  0.79238  0.22759  0.87205  1.0000
  H   H2442     1.0  0.77498  0.06749  0.97208  1.0000
  C   C3064     1.0  0.88955  0.16871  0.51175  1.0000
  H   H2443     1.0  0.83832  0.14595  0.89432  1.0000
  H   H2444     1.0  0.86028  0.13287  0.79345  1.0000
  H   H2445     1.0  0.86983  0.11719  0.74605  1.0000
  H   H2446     1.0  0.89198  0.09499  0.75146  1.0000
  H   H2447     1.0  0.90520  0.08934  0.80326  1.0000
  H   H2448     1.0  0.89635  0.10531  0.84991  1.0000
  H   H2449     1.0  0.87338  0.15247  0.79231  1.0000
  H   H2450     1.0  0.87022  0.18082  0.77734  1.0000
  H   H2451     1.0  0.86186  0.19688  0.82404  1.0000
  H   H2452     1.0  0.85724  0.18435  0.88707  1.0000
  H   H2453     1.0  0.86052  0.15572  0.90323  1.0000
  H   H2454     1.0  0.81192  0.01079  0.70985  1.0000
  H   H2455     1.0  0.76020  0.19008  0.88324  1.0000
  C   C3065     1.0  0.75666  0.14320  0.60063  1.0000
  C   C3066     1.0  0.77854  0.11349  0.80474  1.0000
  H   H2456     1.0  0.82712  0.04193  0.50219  1.0000
  C   C3067     1.0  0.82182  0.10869  0.51259  1.0000
  C   C3068     1.0  0.80946  0.12119  0.51672  1.0000
  H   H2457     1.0  0.75668  0.12003  0.59387  1.0000
  C   C3069     1.0  0.78616  0.23284  0.90428  1.0000
  C   C3070     1.0  0.74594  0.10353  0.79512  1.0000
  H   H2458     1.0  0.84392  0.17879  0.95566  1.0000
  H   H2459     1.0  0.82519  0.10076  0.53581  1.0000
  H   H2460     1.0  0.80375  0.12287  0.54321  1.0000
  H   H2461     1.0  0.76132  0.29480  0.60411  1.0000
  C   C3071     1.0  0.79110  0.06709  0.81774  1.0000
  C   C3072     1.0  0.79012  0.05225  0.83705  1.0000
  C   C3073     1.0  0.80303  0.04285  0.85025  1.0000
  C   C3074     1.0  0.81683  0.04838  0.84469  1.0000
  C   C3075     1.0  0.81758  0.06366  0.82743  1.0000
  C   C3076     1.0  0.80481  0.07276  0.81273  1.0000
  P   P101      1.0  0.83505  0.07132  0.82182  1.0000
  C   C3077     1.0  0.84577  0.06330  0.85774  1.0000
  C   C3078     1.0  0.84642  0.06752  0.77963  1.0000
  C   C3079     1.0  0.85902  0.05500  0.77765  1.0000
  C   C3080     1.0  0.86780  0.05230  0.74480  1.0000
  C   C3081     1.0  0.86377  0.06175  0.71362  1.0000
  C   C3082     1.0  0.85082  0.07379  0.71536  1.0000
  C   C3083     1.0  0.84214  0.07662  0.74819  1.0000
  C   C3084     1.0  0.86171  0.06341  0.85241  1.0000
  C   C3085     1.0  0.87037  0.05580  0.87890  1.0000
  P   P102      1.0  0.85926  0.13943  0.56055  1.0000
  H   H2462     1.0  0.79144  0.24742  0.50252  1.0000
  C   C3086     1.0  0.83837  0.05698  0.89130  1.0000
  C   C3087     1.0  0.82929  0.09180  0.82325  1.0000
  C   C3088     1.0  0.81673  0.09690  0.84882  1.0000
  C   C3089     1.0  0.81174  0.11273  0.84989  1.0000
  C   C3090     1.0  0.81949  0.12354  0.82597  1.0000
  C   C3091     1.0  0.83203  0.11856  0.80043  1.0000
  C   C3092     1.0  0.83709  0.10272  0.79940  1.0000
  H   H2463     1.0  0.78147  0.07383  0.80518  1.0000
  H   H2464     1.0  0.77968  0.04769  0.83977  1.0000
  H   H2465     1.0  0.80259  0.03101  0.86350  1.0000
  H   H2466     1.0  0.82688  0.04066  0.85364  1.0000
  H   H2467     1.0  0.80553  0.08410  0.79675  1.0000
  H   H2468     1.0  0.86190  0.04703  0.80126  1.0000
  H   H2469     1.0  0.87743  0.04254  0.74365  1.0000
  H   H2470     1.0  0.87034  0.05939  0.68817  1.0000
  H   H2471     1.0  0.84715  0.08065  0.69135  1.0000
  H   H2472     1.0  0.83191  0.08571  0.74907  1.0000
  H   H2473     1.0  0.86761  0.06886  0.82739  1.0000
  H   H2474     1.0  0.80479  0.22414  0.86443  1.0000
  C   C3093     1.0  0.85113  0.01120  0.54199  1.0000
  C   C3094     1.0  0.76104  0.13066  0.58255  1.0000
  H   H2475     1.0  0.75765  0.15691  0.77105  1.0000
  H   H2476     1.0  0.81081  0.08860  0.86785  1.0000
  H   H2477     1.0  0.80184  0.11664  0.86922  1.0000
  H   H2478     1.0  0.81563  0.13578  0.82708  1.0000
  H   H2479     1.0  0.83775  0.12696  0.78109  1.0000
  H   H2480     1.0  0.84700  0.09909  0.77982  1.0000
  C   C3095     1.0  0.81713  0.16412  0.77788  1.0000
  C   C3096     1.0  0.82646  0.16822  0.79725  1.0000
  C   C3097     1.0  0.82351  0.18334  0.80416  1.0000
  C   C3098     1.0  0.81122  0.19430  0.79183  1.0000
  C   C3099     1.0  0.80163  0.19016  0.77286  1.0000
  C   C3100     1.0  0.80451  0.17492  0.76652  1.0000
  P   P103      1.0  0.78530  0.20420  0.75868  1.0000
  C   C3101     1.0  0.76918  0.20463  0.79519  1.0000
  C   C3102     1.0  0.79150  0.22265  0.74371  1.0000
  C   C3103     1.0  0.78184  0.23644  0.75230  1.0000
  C   C3104     1.0  0.78711  0.25052  0.74135  1.0000
  C   C3105     1.0  0.80188  0.25096  0.72130  1.0000
  C   C3106     1.0  0.81147  0.23731  0.71224  1.0000
  C   C3107     1.0  0.80637  0.22319  0.72358  1.0000
  C   C3108     1.0  0.75407  0.21095  0.78859  1.0000
  C   C3109     1.0  0.76036  0.23738  0.88976  1.0000
  H   H2481     1.0  0.76471  0.18333  0.75684  1.0000
  H   H2482     1.0  0.74349  0.12787  0.91454  1.0000
  C   C3110     1.0  0.77133  0.19721  0.82965  1.0000
  C   C3111     1.0  0.77907  0.19896  0.72263  1.0000
  C   C3112     1.0  0.78397  0.20554  0.68729  1.0000
  H   H2483     1.0  0.90078  0.01794  0.61082  1.0000
  C   C3113     1.0  0.83433  0.03512  0.52111  1.0000
  C   C3114     1.0  0.78082  0.07931  0.91854  1.0000
  C   C3115     1.0  0.76506  0.09031  0.49258  1.0000
  H   H2484     1.0  0.82006  0.15282  0.77019  1.0000
  H   H2485     1.0  0.83650  0.15999  0.80513  1.0000
  H   H2486     1.0  0.83123  0.18685  0.81737  1.0000
  H   H2487     1.0  0.80945  0.20609  0.79637  1.0000
  H   H2488     1.0  0.79749  0.17160  0.75131  1.0000
  H   H2489     1.0  0.77036  0.23636  0.76779  1.0000
  H   H2490     1.0  0.77986  0.26113  0.74874  1.0000
  H   H2491     1.0  0.80603  0.26184  0.71345  1.0000
  H   H2492     1.0  0.82305  0.23763  0.69726  1.0000
  H   H2493     1.0  0.81407  0.21266  0.71674  1.0000
  C   C3116     1.0  0.77883  0.20166  0.65973  1.0000
  H   H2494     1.0  0.87282  0.01780  0.98846  1.0000
  H   H2495     1.0  0.74196  0.09843  0.74701  1.0000
  C   C3117     1.0  0.77478  0.29383  0.96576  1.0000
  H   H2496     1.0  0.78279  0.19218  0.83563  1.0000
  H   H2497     1.0  0.79212  0.21333  0.68068  1.0000
  C   C3118     1.0  0.76878  0.18854  0.72986  1.0000
  H   H2498     1.0  0.79046  0.26802  0.92843  1.0000
  C   C3119     1.0  0.77535  0.09016  0.89048  1.0000
  H   H2499     1.0  0.77445  0.22113  0.98207  1.0000
  C   C3120     1.0  0.77851  0.14373  0.81208  1.0000
  C   C3121     1.0  0.78941  0.13680  0.78611  1.0000
  C   C3122     1.0  0.78959  0.12160  0.78288  1.0000
  H   H2500     1.0  0.78306  0.20648  0.63258  1.0000
  H   H2501     1.0  0.79761  0.14319  0.76809  1.0000
  H   H2502     1.0  0.79814  0.11621  0.76288  1.0000
  C   C3123     1.0  0.87842  0.15939  0.51764  1.0000
  C   C3124     1.0  0.82640  0.02356  0.66820  1.0000
  H   H2503     1.0  0.81549  0.13521  0.92729  1.0000
  H   H2504     1.0  0.80269  0.14333  0.59983  1.0000
  H   H2505     1.0  0.84497  0.12523  0.63183  1.0000
  C   C3125     1.0  0.74966  0.09415  0.92604  1.0000
  H   H2506     1.0  0.82902  0.13021  0.57635  1.0000
  H   H2507     1.0  0.80254  0.08820  0.50025  1.0000
  C   C3126     1.0  0.86615  0.12308  0.59281  1.0000
  C   C3127     1.0  0.77107  0.13178  0.54995  1.0000
  C   C3128     1.0  0.82737  0.21715  0.94868  1.0000
  H   H2508     1.0  0.74573  0.09189  0.53580  1.0000
  C   C3129     1.0  0.89074  0.11214  0.94830  1.0000
  Fe  Fe211     1.0  0.76364  0.28655  0.87952  1.0000
  S   S423      1.0  0.75752  0.27835  0.93898  1.0000
  C   C3130     1.0  0.80997  0.16426  0.60230  1.0000
  H   H2509     1.0  0.85701  0.99947  0.53915  1.0000
  C   C3131     1.0  0.87901  0.15445  0.58053  1.0000
  C   C3132     1.0  0.82214  0.24747  0.88253  1.0000
  C   C3133     1.0  0.88966  0.02104  0.62743  1.0000
  H   H2510     1.0  0.82075  0.18316  0.60387  1.0000
  H   H2511     1.0  0.74604  0.11562  0.78395  1.0000
  H   H2512     1.0  0.89881  0.01346  0.67615  1.0000
  H   H2513     1.0  0.98422  0.15852  0.96901  1.0000
  H   H2514     1.0  0.78015  0.29102  0.64458  1.0000
  H   H2515     1.0  0.75533  0.17709  0.70803  1.0000
  Fe  Fe212     1.0  0.94087  0.09120  0.92067  1.0000
  C   C3134     1.0  0.81060  0.20255  0.93452  1.0000
  C   C3135     1.0  0.87432  0.02280  0.68561  1.0000
  C   C3136     1.0  0.80131  0.26560  0.91058  1.0000
  H   H2516     1.0  0.87501  0.14910  0.60744  1.0000
  C   C3137     1.0  0.75725  0.29416  0.63232  1.0000
  C   C3138     1.0  0.87888  0.07312  0.93932  1.0000
  C   C3139     1.0  0.73601  0.29474  0.68257  1.0000
  C   C3140     1.0  0.82159  0.18891  0.94059  1.0000
  C   C3141     1.0  0.89521  0.17112  0.54020  1.0000
  H   H2517     1.0  0.75208  0.21658  0.76221  1.0000
  C   C3142     1.0  0.84708  0.04935  0.91768  1.0000
  C   C3143     1.0  0.87310  0.15212  0.55214  1.0000
  P   P104      1.0  0.75232  0.11011  0.85623  1.0000
  H   H2518     1.0  0.77882  0.29882  0.93866  1.0000
  C   C3144     1.0  0.74371  0.09379  0.77402  1.0000
  C   C3145     1.0  0.76667  0.23222  0.85766  1.0000
  C   C3146     1.0  0.82255  0.17164  0.59752  1.0000
  H   H2519     1.0  0.92913  0.03679  0.95946  1.0000
  C   C3147     1.0  0.87208  0.06407  0.96969  1.0000
  C   C3148     1.0  0.83544  0.18937  0.95078  1.0000
  C   C3149     1.0  0.74140  0.29541  0.64601  1.0000
  H   H2520     1.0  0.84299  0.15599  0.50256  1.0000
  H   H2521     1.0  0.87200  0.07968  0.91971  1.0000
  H   H2522     1.0  0.76451  0.18841  0.64592  1.0000
  H   H2523     1.0  0.75917  0.23245  0.83919  1.0000
  H   H2524     1.0  0.89734  0.02955  0.82227  1.0000
  C   C3150     1.0  0.91117  0.04603  0.82461  1.0000
  C   C3151     1.0  0.81226  0.02094  0.68919  1.0000
  H   H2525     1.0  0.91571  0.06595  0.95521  1.0000
  H   H2526     1.0  0.77087  0.28945  0.70897  1.0000
  S   S424      1.0  0.93251  0.13816  0.82723  1.0000
  S   S425      1.0  0.92987  0.06619  0.82523  1.0000
  H   H2527     1.0  0.90774  0.12276  0.74338  1.0000
  C   C3152     1.0  0.91864  0.12929  0.78030  1.0000
  C   C3153     1.0  0.87708  0.20770  0.50984  1.0000
  C   C3154     1.0  0.82575  0.11171  0.92018  1.0000
  C   C3155     1.0  0.84454  0.03245  0.57511  1.0000
  C   C3156     1.0  0.76851  0.19142  0.66721  1.0000
  H   H2528     1.0  0.83678  0.01497  0.67212  1.0000
  H   H2529     1.0  0.91037  0.05220  0.79799  1.0000
  C   C3157     1.0  0.86192  0.03134  0.63364  1.0000
  C   C3158     1.0  0.76261  0.29125  0.69141  1.0000
  H   H2530     1.0  0.92456  0.11758  0.78878  1.0000
  H   H2531     1.0  0.88930  0.10343  0.97201  1.0000
  C   C3159     1.0  0.96581  0.16479  0.93860  1.0000
  H   H2532     1.0  0.77821  0.15564  0.81419  1.0000
  H   H2533     1.0  0.90056  0.02484  0.98141  1.0000
  C   C3160     1.0  0.83757  0.16398  0.58597  1.0000
  C   C3161     1.0  0.75978  0.09786  0.89418  1.0000
  Fe  Fe213     1.0  0.94132  0.07931  0.85288  1.0000
  C   C3162     1.0  0.83536  0.04122  0.55023  1.0000
  H   H2534     1.0  0.87346  0.02091  0.71414  1.0000
  C   C3163     1.0  0.87639  0.02750  0.61216  1.0000
  C   C3164     1.0  0.74828  0.09764  0.83007  1.0000
  H   H2535     1.0  0.84992  0.19844  0.58158  1.0000
  H   H2536     1.0  0.77872  0.10181  0.80151  1.0000
  S   S426      1.0  0.77598  0.30575  0.84868  1.0000
  C   C3165     1.0  0.78269  0.22743  0.84872  1.0000
  H   H2537     1.0  0.85545  0.10461  0.67697  1.0000
  C   C3166     1.0  0.85814  0.13427  0.51929  1.0000
  C   C3167     1.0  0.84968  0.19608  0.52811  1.0000
  C   C3168     1.0  0.88996  0.16397  0.57455  1.0000
  H   H2538     1.0  0.84144  0.04371  0.94282  1.0000
  H   H2539     1.0  0.82876  0.05270  0.55364  1.0000
  C   C3169     1.0  0.96716  0.13286  0.94580  1.0000
  H   H2540     1.0  0.75844  0.14163  0.85223  1.0000
  S   S427      1.0  0.86468  0.98565  0.91379  1.0000
  P   P105      1.0  0.79921  0.23438  0.93191  1.0000
  H   H2541     1.0  0.75017  0.07678  0.87027  1.0000
  P   P106      1.0  0.78833  0.14712  0.49125  1.0000
  C   C3170     1.0  0.83833  0.20349  0.95475  1.0000
  C   C3171     1.0  0.77078  0.07603  0.95048  1.0000
  C   C3172     1.0  0.80791  0.27798  0.88991  1.0000
  H   H2542     1.0  0.79981  0.20195  0.92730  1.0000
  H   H2543     1.0  0.84717  0.16974  0.58362  1.0000
  C   C3173     1.0  0.76709  0.12054  0.82984  1.0000
  C   C3174     1.0  0.89467  0.07350  0.93401  1.0000
  H   H2544     1.0  0.74889  0.14229  0.62595  1.0000
  C   C3175     1.0  0.95595  0.15940  0.92297  1.0000
  C   C3176     1.0  0.86269  0.10729  0.65150  1.0000
  H   H2545     1.0  0.90000  0.08043  0.91039  1.0000
  H   H2546     1.0  0.91119  0.11721  0.95985  1.0000
  S   S428      1.0  0.87794  0.20973  0.57863  1.0000
  S   S429      1.0  0.95761  0.09497  0.82030  1.0000
  H   H2547     1.0  0.87392  0.15816  0.49518  1.0000
  H   H2548     1.0  0.94916  0.13932  0.91385  1.0000
  H   H2549     1.0  0.82968  0.22800  0.95223  1.0000
  C   C3177     1.0  0.75813  0.09115  0.52797  1.0000
  Fe  Fe214     1.0  0.75646  0.31234  0.81705  1.0000
  C   C3178     1.0  0.80848  0.25024  0.90743  1.0000
  H   H2550     1.0  0.81933  0.17796  0.93759  1.0000
  H   H2551     1.0  0.77581  0.16905  0.54178  1.0000
  H   H2552     1.0  0.90328  0.17892  0.53583  1.0000
  S   S430      1.0  0.93177  0.08686  0.97940  1.0000
  H   H2553     1.0  0.77415  0.12205  0.53597  1.0000
  H   H2554     1.0  0.76502  0.24326  0.93605  1.0000
  H   H2555     1.0  0.96766  0.12056  0.94770  1.0000
  C   C3179     1.0  0.88750  0.10334  0.61261  1.0000
  C   C3180     1.0  0.82564  0.12760  0.91587  1.0000
  H   H2556     1.0  0.82599  0.05738  0.89691  1.0000
  H   H2557     1.0  0.88262  0.09037  0.66539  1.0000
  C   C3181     1.0  0.77006  0.23806  0.91270  1.0000
  C   C3182     1.0  0.84005  0.14912  0.57763  1.0000
  H   H2558     1.0  0.89414  0.16611  0.59668  1.0000
  H   H2559     1.0  0.75867  0.16664  0.60005  1.0000
  C   C3183     1.0  0.88165  0.11525  0.58674  1.0000
  H   H2560     1.0  0.87347  0.11184  0.52665  1.0000
  H   H2561     1.0  0.89952  0.09750  0.60794  1.0000
  S   S431      1.0  0.74345  0.29414  0.85025  1.0000
  C   C3184     1.0  0.86315  0.04829  0.91102  1.0000
  H   H2562     1.0  0.78835  0.30511  0.98795  1.0000
  C   C3185     1.0  0.82154  0.27513  0.86542  1.0000
  C   C3186     1.0  0.77214  0.15813  0.55318  1.0000
  H   H2563     1.0  0.73740  0.09924  0.92891  1.0000
  C   C3187     1.0  0.75082  0.14355  0.73971  1.0000
  S   S432      1.0  0.95554  0.07112  0.89625  1.0000
  C   C3188     1.0  0.76224  0.15691  0.58602  1.0000
  C   C3189     1.0  0.85282  0.01332  0.97367  1.0000
  H   H2564     1.0  0.74801  0.24148  0.89601  1.0000
  H   H2565     1.0  0.79843  0.17004  0.61257  1.0000
  H   H2566     1.0  0.79275  0.07313  0.91526  1.0000
  Fe  Fe215     1.0  0.78733  0.28891  0.81084  1.0000
  H   H2567     1.0  0.87745  0.02954  0.58363  1.0000
  H   H2568     1.0  0.82749  0.23581  0.87811  1.0000
  C   C3190     1.0  0.86651  0.12018  0.50935  1.0000
  C   C3191     1.0  0.84924  0.14486  0.49592  1.0000
  S   S433      1.0  0.95644  0.10796  0.89355  1.0000
  Fe  Fe216     1.0  0.97060  0.08840  0.86644  1.0000
  H   H2569     1.0  0.78841  0.05307  0.65405  1.0000
  C   C3192     1.0  0.75853  0.19594  0.85683  1.0000
  H   H2570     1.0  0.80221  0.28982  0.89215  1.0000
  C   C3193     1.0  0.86969  0.20554  0.54550  1.0000
  C   C3194     1.0  0.82867  0.25989  0.86178  1.0000
  S   S434      1.0  0.76897  0.29748  0.77684  1.0000
  C   C3195     1.0  0.97696  0.13818  0.96197  1.0000
  C   C3196     1.0  0.74421  0.07801  0.78727  1.0000
  C   C3197     1.0  0.81224  0.17952  0.49802  1.0000
  C   C3198     1.0  0.78966  0.23742  0.97597  1.0000
  C   C3199     1.0  0.77963  0.22915  0.50194  1.0000
  C   C3200     1.0  0.83751  0.01116  0.98482  1.0000
  H   H2571     1.0  0.95725  0.03560  0.93947  1.0000
  H   H2572     1.0  0.84906  0.20387  0.96263  1.0000
  H   H2573     1.0  0.96543  0.17714  0.93539  1.0000
  C   C3201     1.0  0.74837  0.08178  0.84353  1.0000
  C   C3202     1.0  0.89698  0.05551  0.98928  1.0000
  H   H2574     1.0  0.76908  0.21138  0.49313  1.0000
  C   C3203     1.0  0.79014  0.08908  0.50811  1.0000
  C   C3204     1.0  0.97637  0.15422  0.95778  1.0000
  C   C3205     1.0  0.75520  0.08345  0.95422  1.0000
  H   H2575     1.0  0.74733  0.08065  0.97872  1.0000
  H   H2576     1.0  0.74307  0.07039  0.77036  1.0000
  C   C3206     1.0  0.74646  0.07202  0.82205  1.0000
  C   C3207     1.0  0.93584  0.03951  0.97633  1.0000
  C   C3208     1.0  0.98418  0.07513  0.98974  1.0000
  H   H2577     1.0  0.80411  0.25299  0.98051  1.0000
  H   H2578     1.0  0.80653  0.15825  0.52919  1.0000
  H   H2579     1.0  0.98192  0.06375  0.99040  1.0000
  C   C3209     1.0  0.80541  0.16647  0.50498  1.0000
  H   H2580     1.0  0.84133  0.01539  0.49447  1.0000
  H   H2581     1.0  0.81867  0.18137  0.51669  1.0000
  S   S435      1.0  0.74141  0.12744  0.69816  1.0000
  C   C3210     1.0  0.85740  0.19752  0.49285  1.0000
  C   C3211     1.0  0.73839  0.14029  0.72835  1.0000
  C   C3212     1.0  0.96067  0.04207  0.98656  1.0000
  H   H2582     1.0  0.97300  0.04161  0.97750  1.0000
  H   H2583     1.0  0.85986  0.06366  0.97384  1.0000
  H   H2584     1.0  0.90839  0.98079  0.94341  1.0000
  Fe  Fe217     1.0  0.77241  0.61527  0.20786  1.0000
  S   S436      1.0  0.78869  0.62734  0.16536  1.0000
  Fe  Fe218     1.0  0.79047  0.58368  0.19952  1.0000
  S   S437      1.0  0.80909  0.59303  0.15700  1.0000
  S   S438      1.0  0.78844  0.55838  0.21799  1.0000
  Fe  Fe219     1.0  0.80745  0.61084  0.19153  1.0000
  S   S439      1.0  0.82763  0.62203  0.19456  1.0000
  Fe  Fe220     1.0  0.78907  0.60896  0.13387  1.0000
  S   S440      1.0  0.78806  0.61768  0.07485  1.0000
  S   S441      1.0  0.79091  0.59975  0.23599  1.0000
  S   S442      1.0  0.77072  0.59865  0.17436  1.0000
  H   H2585     1.0  0.78104  0.57513  0.02119  1.0000
  C   C3213     1.0  0.74324  0.62301  0.06660  1.0000
  C   C3214     1.0  0.84211  0.63716  0.28656  1.0000
  H   H2586     1.0  0.74383  0.62993  0.08552  1.0000
  H   H2587     1.0  0.76364  0.39371  0.31314  1.0000
  C   C3215     1.0  0.83079  0.61548  0.04084  1.0000
  H   H2588     1.0  0.78959  0.62909  0.00031  1.0000
  C   C3216     1.0  0.77351  0.56768  0.34142  1.0000
  C   C3217     1.0  0.86831  0.60526  0.03035  1.0000
  C   C3218     1.0  0.77891  0.40831  0.28041  1.0000
  P   P107      1.0  0.76193  0.53072  0.41584  1.0000
  H   H2589     1.0  0.79917  0.63549  0.35727  1.0000
  H   H2590     1.0  0.77730  0.64568  0.22795  1.0000
  H   H2591     1.0  0.77127  0.34416  0.24260  1.0000
  H   H2592     1.0  0.74907  0.54827  0.47376  1.0000
  H   H2593     1.0  0.82103  0.58146  0.99813  1.0000
  C   C3219     1.0  0.81886  0.56773  0.09445  1.0000
  C   C3220     1.0  0.82269  0.62885  0.02191  1.0000
  H   H2594     1.0  0.85950  0.56750  0.03574  1.0000
  C   C3221     1.0  0.77064  0.55533  0.24561  1.0000
  C   C3222     1.0  0.76670  0.54051  0.25400  1.0000
  H   H2595     1.0  0.77019  0.57395  0.31653  1.0000
  C   C3223     1.0  0.74192  0.60447  0.01893  1.0000
  C   C3224     1.0  0.76050  0.56754  0.26014  1.0000
  H   H2596     1.0  0.75140  0.59002  0.39095  1.0000
  P   P108      1.0  0.84060  0.59892  0.01994  1.0000
  H   H2597     1.0  0.76330  0.57902  0.25375  1.0000
  C   C3225     1.0  0.78668  0.60865  0.03966  1.0000
  C   C3226     1.0  0.79686  0.50418  0.46658  1.0000
  C   C3227     1.0  0.78448  0.59333  0.04515  1.0000
  H   H2598     1.0  0.80751  0.56777  0.11101  1.0000
  H   H2599     1.0  0.78374  0.58649  0.07152  1.0000
  H   H2600     1.0  0.83693  0.60467  0.09221  1.0000
  C   C3228     1.0  0.82523  0.62424  0.26573  1.0000
  C   C3229     1.0  0.83253  0.62807  0.23062  1.0000
  H   H2601     1.0  0.74645  0.48600  0.38809  1.0000
  H   H2602     1.0  0.81612  0.61754  0.27162  1.0000
  C   C3230     1.0  0.74095  0.31744  0.02507  1.0000
  H   H2603     1.0  0.75419  0.63317  0.16573  1.0000
  H   H2604     1.0  0.79027  0.58162  0.33982  1.0000
  C   C3231     1.0  0.76226  0.49596  0.34448  1.0000
  C   C3232     1.0  0.74374  0.64041  0.17696  1.0000
  C   C3233     1.0  0.74690  0.56486  0.28391  1.0000
  H   H2605     1.0  0.85024  0.63970  0.19673  1.0000
  H   H2606     1.0  0.75960  0.34527  0.19038  1.0000
  H   H2607     1.0  0.85372  0.54380  0.07689  1.0000
  C   C3234     1.0  0.75274  0.53795  0.27694  1.0000
  C   C3235     1.0  0.83679  0.58144  0.05029  1.0000
  H   H2608     1.0  0.82776  0.54387  0.11480  1.0000
  C   C3236     1.0  0.74235  0.53941  0.43331  1.0000
  C   C3237     1.0  0.78292  0.58692  0.01652  1.0000
  H   H2609     1.0  0.78524  0.54575  0.43100  1.0000
  H   H2610     1.0  0.79433  0.51553  0.41345  1.0000
  H   H2611     1.0  0.82386  0.62713  0.12093  1.0000
  H   H2612     1.0  0.79758  0.56760  0.39744  1.0000
  C   C3238     1.0  0.75330  0.50556  0.39991  1.0000
  H   H2613     1.0  0.74628  0.50471  0.42614  1.0000
  H   H2614     1.0  0.75538  0.64605  0.29188  1.0000
  H   H2615     1.0  0.77446  0.53102  0.24270  1.0000
  H   H2616     1.0  0.74938  0.32474  0.01254  1.0000
  C   C3239     1.0  0.76480  0.64382  0.30663  1.0000
  H   H2617     1.0  0.75771  0.55203  0.34963  1.0000
  C   C3240     1.0  0.76256  0.35413  0.23475  1.0000
  C   C3241     1.0  0.75343  0.49491  0.37854  1.0000
  C   C3242     1.0  0.78477  0.57206  0.35468  1.0000
  C   C3243     1.0  0.84910  0.64137  0.25135  1.0000
  H   H2618     1.0  0.74978  0.52654  0.28328  1.0000
  H   H2619     1.0  0.76296  0.36556  0.27715  1.0000
  H   H2620     1.0  0.73945  0.57434  0.29573  1.0000
  C   C3244     1.0  0.77125  0.51805  0.35345  1.0000
  C   C3245     1.0  0.84814  0.56778  0.05205  1.0000
  C   C3246     1.0  0.83107  0.61496  0.07674  1.0000
  C   C3247     1.0  0.89349  0.59739  0.99525  1.0000
  C   C3248     1.0  0.78200  0.55161  0.40581  1.0000
  C   C3249     1.0  0.78532  0.62581  0.33313  1.0000
  H   H2621     1.0  0.74851  0.44321  0.48104  1.0000
  C   C3250     1.0  0.78769  0.61730  0.00506  1.0000
  C   C3251     1.0  0.73959  0.54752  0.46161  1.0000
  S   S443      1.0  0.75201  0.62773  0.24140  1.0000
  H   H2622     1.0  0.74843  0.58504  0.05928  1.0000
  C   C3252     1.0  0.82367  0.62769  0.09317  1.0000
  C   C3253     1.0  0.77127  0.50744  0.33209  1.0000
  P   P109      1.0  0.73992  0.39424  0.27095  1.0000
  C   C3254     1.0  0.82209  0.58124  0.07137  1.0000
  H   H2623     1.0  0.77844  0.52673  0.34323  1.0000
  H   H2624     1.0  0.74625  0.61521  0.35022  1.0000
  H   H2625     1.0  0.73595  0.58173  0.18524  1.0000
  H   H2626     1.0  0.79191  0.61412  0.33870  1.0000
  H   H2627     1.0  0.77021  0.61933  0.30521  1.0000
  C   C3255     1.0  0.75601  0.35477  0.20518  1.0000
  H   H2628     1.0  0.83239  0.64551  0.40442  1.0000
  H   H2629     1.0  0.79241  0.42327  0.24194  1.0000
  C   C3256     1.0  0.83027  0.55427  0.09657  1.0000
  C   C3257     1.0  0.81571  0.64096  0.07412  1.0000
  H   H2630     1.0  0.76205  0.48793  0.32762  1.0000
  H   H2631     1.0  0.75306  0.41455  0.20919  1.0000
  H   H2632     1.0  0.88967  0.60990  0.03837  1.0000
  C   C3258     1.0  0.73968  0.37951  0.21482  1.0000
  C   C3259     1.0  0.84489  0.55427  0.07528  1.0000
  H   H2633     1.0  0.74197  0.59725  0.00007  1.0000
  C   C3260     1.0  0.74591  0.37878  0.24516  1.0000
  H   H2634     1.0  0.81315  0.59158  0.07022  1.0000
  C   C3261     1.0  0.77259  0.51927  0.44981  1.0000
  C   C3262     1.0  0.88434  0.60469  0.02277  1.0000
  H   H2635     1.0  0.77811  0.50830  0.30564  1.0000
  C   C3263     1.0  0.76195  0.51743  0.38723  1.0000
  H   H2636     1.0  0.82485  0.62501  0.32057  1.0000
  H   H2637     1.0  0.73653  0.32393  0.19094  1.0000
  C   C3264     1.0  0.77310  0.62871  0.31438  1.0000
  C   C3265     1.0  0.83016  0.62856  0.29348  1.0000
  C   C3266     1.0  0.77099  0.54685  0.39207  1.0000
  C   C3267     1.0  0.74561  0.59757  0.05228  1.0000
  C   C3268     1.0  0.78893  0.56411  0.38702  1.0000
  C   C3269     1.0  0.76653  0.55521  0.36015  1.0000
  C   C3270     1.0  0.78943  0.63804  0.34361  1.0000
  C   C3271     1.0  0.78241  0.41775  0.24762  1.0000
  H   H2638     1.0  0.77582  0.42721  0.19654  1.0000
  H   H2639     1.0  0.76702  0.64271  0.04097  1.0000
  C   C3272     1.0  0.76016  0.41284  0.22933  1.0000
  C   C3273     1.0  0.73685  0.43116  0.45667  1.0000
  C   C3274     1.0  0.74288  0.55012  0.29235  1.0000
  C   C3275     1.0  0.74615  0.60684  0.07620  1.0000
  C   C3276     1.0  0.73992  0.63004  0.03277  1.0000
  C   C3277     1.0  0.77305  0.41998  0.22205  1.0000
  H   H2640     1.0  0.74123  0.32451  0.29709  1.0000
  C   C3278     1.0  0.75769  0.36618  0.25442  1.0000
  S   S444      1.0  0.84865  0.64121  0.32293  1.0000
  C   C3279     1.0  0.74463  0.36747  0.19514  1.0000
  H   H2641     1.0  0.74417  0.43324  0.43101  1.0000
  C   C3280     1.0  0.81520  0.64154  0.03852  1.0000
  C   C3281     1.0  0.86128  0.59851  0.01036  1.0000
  H   H2642     1.0  0.78625  0.40647  0.30010  1.0000
  H   H2643     1.0  0.74931  0.60151  0.10181  1.0000
  C   C3282     1.0  0.75643  0.40356  0.26241  1.0000
  C   C3283     1.0  0.76601  0.40116  0.28778  1.0000
  H   H2644     1.0  0.73629  0.60806  0.19513  1.0000
  C   C3284     1.0  0.73992  0.64001  0.21353  1.0000
  C   C3285     1.0  0.73872  0.62065  0.00948  1.0000
  H   H2645     1.0  0.82172  0.62942  0.99470  1.0000
  C   C3286     1.0  0.78846  0.51321  0.44065  1.0000
  C   C3287     1.0  0.74033  0.32260  0.24380  1.0000
  C   C3288     1.0  0.74207  0.59245  0.37592  1.0000
  H   H2646     1.0  0.86155  0.61093  0.05187  1.0000
  H   H2647     1.0  0.73942  0.36784  0.17246  1.0000
  C   C3289     1.0  0.73919  0.60660  0.35299  1.0000
  H   H2648     1.0  0.87000  0.64237  0.47234  1.0000
  H   H2649     1.0  0.80914  0.49966  0.45941  1.0000
  C   C3290     1.0  0.84444  0.63672  0.22369  1.0000
  C   C3291     1.0  0.76516  0.51570  0.48499  1.0000
  C   C3292     1.0  0.73923  0.43686  0.48517  1.0000
  Fe  Fe221     1.0  0.78150  0.59821  0.88856  1.0000
  S   S445      1.0  0.79161  0.61893  0.85836  1.0000
  S   S446      1.0  0.78099  0.58722  0.94714  1.0000
  Fe  Fe222     1.0  0.76972  0.59341  0.82282  1.0000
  S   S447      1.0  0.77881  0.61395  0.78824  1.0000
  H   H2650     1.0  0.74119  0.33533  0.68153  1.0000
  Fe  Fe223     1.0  0.80007  0.60547  0.81359  1.0000
  S   S448      1.0  0.82387  0.60609  0.77943  1.0000
  Fe  Fe224     1.0  0.76983  0.62595  0.83511  1.0000
  C   C3293     1.0  0.77356  0.50672  0.51087  1.0000
  S   S449      1.0  0.79178  0.58380  0.84554  1.0000
  S   S450      1.0  0.75899  0.60628  0.86812  1.0000
  H   H2651     1.0  0.75034  0.32514  0.73880  1.0000
  C   C3294     1.0  0.78353  0.59572  0.98209  1.0000
  C   C3295     1.0  0.88662  0.59058  0.97533  1.0000
  C   C3296     1.0  0.76940  0.46380  0.51988  1.0000
  H   H2652     1.0  0.78886  0.43092  0.56446  1.0000
  C   C3297     1.0  0.75965  0.51513  0.75720  1.0000
  H   H2653     1.0  0.80230  0.57564  0.76424  1.0000
  C   C3298     1.0  0.74993  0.57172  0.77632  1.0000
  H   H2654     1.0  0.78468  0.55099  0.88221  1.0000
  C   C3299     1.0  0.75471  0.45993  0.52677  1.0000
  H   H2655     1.0  0.73747  0.57122  0.91864  1.0000
  H   H2656     1.0  0.75418  0.51189  0.73850  1.0000
  H   H2657     1.0  0.77254  0.52992  0.71694  1.0000
  H   H2658     1.0  0.79851  0.49993  0.82193  1.0000
  H   H2659     1.0  0.76533  0.56474  0.69265  1.0000
  C   C3300     1.0  0.83909  0.61061  0.94873  1.0000
  C   C3301     1.0  0.82438  0.54270  0.80184  1.0000
  C   C3302     1.0  0.88274  0.63879  0.62123  1.0000
  H   H2660     1.0  0.77257  0.64337  0.90706  1.0000
  C   C3303     1.0  0.80307  0.48588  0.87158  1.0000
  H   H2661     1.0  0.90944  0.63097  0.67549  1.0000
  C   C3304     1.0  0.87672  0.61884  0.67154  1.0000
  C   C3305     1.0  0.77315  0.52448  0.80540  1.0000
  C   C3306     1.0  0.87309  0.62833  0.63982  1.0000
  H   H2662     1.0  0.79241  0.49772  0.95149  1.0000
  C   C3307     1.0  0.75993  0.57201  0.74363  1.0000
  C   C3308     1.0  0.87837  0.62926  0.51964  1.0000
  C   C3309     1.0  0.87495  0.62542  0.55655  1.0000
  H   H2663     1.0  0.77118  0.47495  0.50420  1.0000
  H   H2664     1.0  0.76966  0.57785  0.73843  1.0000
  C   C3310     1.0  0.89940  0.63009  0.66545  1.0000
  H   H2665     1.0  0.77805  0.64267  0.73491  1.0000
  H   H2666     1.0  0.76559  0.56862  0.91762  1.0000
  H   H2667     1.0  0.86180  0.59932  0.58942  1.0000
  H   H2668     1.0  0.83631  0.53784  0.80481  1.0000
  C   C3311     1.0  0.82884  0.62475  0.76510  1.0000
  C   C3312     1.0  0.84383  0.62628  0.74671  1.0000
  C   C3313     1.0  0.88976  0.61981  0.68439  1.0000
  C   C3314     1.0  0.79716  0.54060  0.81490  1.0000
  C   C3315     1.0  0.73658  0.39818  0.62048  1.0000
  H   H2669     1.0  0.85233  0.61598  0.74188  1.0000
  C   C3316     1.0  0.82065  0.55761  0.78238  1.0000
  C   C3317     1.0  0.81270  0.53419  0.81802  1.0000
  S   S451      1.0  0.74291  0.54693  0.69049  1.0000
  H   H2670     1.0  0.74811  0.50145  0.80274  1.0000
  H   H2671     1.0  0.78702  0.61767  0.95003  1.0000
  H   H2672     1.0  0.80601  0.47458  0.92463  1.0000
  C   C3318     1.0  0.74071  0.55456  0.88430  1.0000
  C   C3319     1.0  0.79372  0.49824  0.92319  1.0000
  H   H2673     1.0  0.85951  0.64211  0.72110  1.0000
  C   C3320     1.0  0.77243  0.55179  0.88275  1.0000
  C   C3321     1.0  0.78618  0.61088  0.97645  1.0000
  C   C3322     1.0  0.75616  0.50937  0.79337  1.0000
  H   H2674     1.0  0.83845  0.61937  0.89324  1.0000
  C   C3323     1.0  0.74166  0.33564  0.73602  1.0000
  H   H2675     1.0  0.82282  0.62757  0.63910  1.0000
  H   H2676     1.0  0.78164  0.56081  0.79315  1.0000
  S   S452      1.0  0.74209  0.33663  0.80578  1.0000
  C   C3324     1.0  0.77933  0.43901  0.55380  1.0000
  C   C3325     1.0  0.82484  0.63811  0.64492  1.0000
  H   H2677     1.0  0.79591  0.49410  0.52192  1.0000
  H   H2678     1.0  0.82962  0.56438  0.77058  1.0000
  H   H2679     1.0  0.88379  0.61802  0.57075  1.0000
  H   H2680     1.0  0.76765  0.50424  0.53807  1.0000
  S   S453      1.0  0.75259  0.58049  0.81079  1.0000
  C   C3326     1.0  0.78933  0.51272  0.86519  1.0000
  H   H2681     1.0  0.81587  0.52278  0.83331  1.0000
  C   C3327     1.0  0.80139  0.48520  0.90806  1.0000
  C   C3328     1.0  0.82515  0.58967  0.97552  1.0000
  C   C3329     1.0  0.75148  0.54455  0.86402  1.0000
  C   C3330     1.0  0.76465  0.43508  0.56073  1.0000
  H   H2682     1.0  0.86552  0.58561  0.96737  1.0000
  H   H2683     1.0  0.80072  0.64572  0.66540  1.0000
  C   C3331     1.0  0.74578  0.56318  0.90370  1.0000
  H   H2684     1.0  0.74127  0.38617  0.61769  1.0000
  H   H2685     1.0  0.76014  0.50938  0.84537  1.0000
  H   H2686     1.0  0.78178  0.52186  0.91427  1.0000
  H   H2687     1.0  0.84110  0.56699  0.67299  1.0000
  H   H2688     1.0  0.82256  0.60101  0.88810  1.0000
  C   C3332     1.0  0.81801  0.63813  0.77186  1.0000
  H   H2689     1.0  0.80644  0.63715  0.78594  1.0000
  H   H2690     1.0  0.84616  0.61859  0.95054  1.0000
  C   C3333     1.0  0.82589  0.60069  0.91327  1.0000
  C   C3334     1.0  0.76296  0.51394  0.81739  1.0000
  H   H2691     1.0  0.80900  0.47576  0.85985  1.0000
  C   C3335     1.0  0.80526  0.56397  0.77880  1.0000
  H   H2692     1.0  0.83388  0.58674  0.71248  1.0000
  H   H2693     1.0  0.76308  0.42397  0.57678  1.0000
  C   C3336     1.0  0.75221  0.44552  0.54724  1.0000
  C   C3337     1.0  0.83426  0.59993  0.97867  1.0000
  C   C3338     1.0  0.78770  0.51196  0.90189  1.0000
  H   H2694     1.0  0.84047  0.61255  0.69086  1.0000
  P   P110      1.0  0.78167  0.53029  0.83706  1.0000
  C   C3339     1.0  0.76163  0.56176  0.90300  1.0000
  H   H2695     1.0  0.86950  0.61077  0.68665  1.0000
  C   C3340     1.0  0.73583  0.34357  0.76452  1.0000
  C   C3341     1.0  0.75739  0.56460  0.71763  1.0000
  C   C3342     1.0  0.79356  0.55557  0.79529  1.0000
  H   H2696     1.0  0.89233  0.61266  0.70918  1.0000
  C   C3343     1.0  0.77666  0.53011  0.76894  1.0000
  H   H2697     1.0  0.76112  0.63491  0.96911  1.0000
  H   H2698     1.0  0.74725  0.53847  0.84828  1.0000
  C   C3344     1.0  0.86038  0.63148  0.57501  1.0000
  H   H2699     1.0  0.85509  0.57344  0.61155  1.0000
  P   P111      1.0  0.85631  0.62708  0.62284  1.0000
  C   C3345     1.0  0.85168  0.60792  0.63845  1.0000
  C   C3346     1.0  0.83482  0.61104  0.91623  1.0000
  C   C3347     1.0  0.76746  0.54307  0.86313  1.0000
  C   C3348     1.0  0.79708  0.49958  0.85019  1.0000
  C   C3349     1.0  0.84378  0.60412  0.67321  1.0000
  C   C3350     1.0  0.84000  0.58944  0.68559  1.0000
  C   C3351     1.0  0.84407  0.57837  0.66339  1.0000
  C   C3352     1.0  0.85194  0.58202  0.62878  1.0000
  C   C3353     1.0  0.85575  0.59674  0.61630  1.0000
  C   C3354     1.0  0.77003  0.52533  0.74501  1.0000
  C   C3355     1.0  0.87060  0.59109  0.98288  1.0000
  H   H2700     1.0  0.78439  0.53825  0.75865  1.0000
  C   C3356     1.0  0.73732  0.56408  0.78234  1.0000
  C   C3357     1.0  0.73759  0.41006  0.59096  1.0000
  H   H2701     1.0  0.74334  0.40711  0.56543  1.0000
  C   C3358     1.0  0.78942  0.50100  0.50174  1.0000
  H   H2702     1.0  0.74546  0.63386  0.89251  1.0000
  H   H2703     1.0  0.81415  0.58200  0.94052  1.0000
  C   C3359     1.0  0.84793  0.64105  0.73508  1.0000
  C   C3360     1.0  0.82116  0.58996  0.94282  1.0000
  C   C3361     1.0  0.86723  0.63901  0.50088  1.0000
  C   C3362     1.0  0.78171  0.45335  0.53341  1.0000
  H   H2704     1.0  0.74270  0.61975  0.77402  1.0000
  H   H2705     1.0  0.89372  0.58487  0.95404  1.0000
  C   C3363     1.0  0.74480  0.55690  0.72370  1.0000
  H   H2706     1.0  0.83790  0.64598  0.56934  1.0000
  H   H2707     1.0  0.75289  0.51976  0.49271  1.0000
  C   C3364     1.0  0.73642  0.34144  0.70357  1.0000
  C   C3365     1.0  0.84917  0.64109  0.55589  1.0000
  C   C3366     1.0  0.89595  0.63947  0.63379  1.0000
  H   H2708     1.0  0.90591  0.59696  0.98943  1.0000
  H   H2709     1.0  0.88977  0.62495  0.50555  1.0000
  C   C3367     1.0  0.83993  0.64116  0.63894  1.0000
  C   C3368     1.0  0.85263  0.64485  0.51898  1.0000
  H   H2710     1.0  0.74527  0.46822  0.51623  1.0000
  H   H2711     1.0  0.79308  0.45638  0.52822  1.0000
  C   C3369     1.0  0.73647  0.64317  0.88369  1.0000
  H   H2712     1.0  0.88010  0.64651  0.59708  1.0000
  C   C3370     1.0  0.75716  0.64662  0.95631  1.0000
  H   H2713     1.0  0.73574  0.62583  0.98363  1.0000
  C   C3371     1.0  0.81806  0.67001  0.24564  1.0000
  S   S454      1.0  0.77546  0.72633  0.40300  1.0000
  H   H2714     1.0  0.92758  0.83152  0.19874  1.0000
  H   H2715     1.0  0.80489  0.70756  0.41181  1.0000
  S   S455      1.0  0.76342  0.77188  0.38797  1.0000
  C   C3372     1.0  0.76191  0.71732  0.22620  1.0000
  Fe  Fe225     1.0  0.85416  0.69637  0.32049  1.0000
  S   S456      1.0  0.84502  0.67749  0.36097  1.0000
  S   S457      1.0  0.83947  0.71888  0.29963  1.0000
  Fe  Fe226     1.0  0.88677  0.67893  0.31534  1.0000
  S   S458      1.0  0.88027  0.65838  0.35654  1.0000
  S   S459      1.0  0.91032  0.68107  0.28143  1.0000
  Fe  Fe227     1.0  0.86036  0.66082  0.32737  1.0000
  C   C3373     1.0  0.75831  0.74429  0.23290  1.0000
  Fe  Fe228     1.0  0.86516  0.67667  0.38733  1.0000
  S   S460      1.0  0.85683  0.67797  0.44643  1.0000
  S   S461      1.0  0.86797  0.67995  0.28469  1.0000
  S   S462      1.0  0.87325  0.69678  0.34820  1.0000
  H   H2716     1.0  0.84444  0.77630  0.47329  1.0000
  Fe  Fe229     1.0  0.94848  0.75222  0.18672  1.0000
  S   S463      1.0  0.95050  0.77747  0.17478  1.0000
  S   S464      1.0  0.93784  0.74298  0.24310  1.0000
  Fe  Fe230     1.0  0.95924  0.74854  0.10999  1.0000
  S   S465      1.0  0.96152  0.77338  0.09212  1.0000
  S   S466      1.0  0.96595  0.73229  0.07038  1.0000
  Fe  Fe231     1.0  0.97307  0.77025  0.13935  1.0000
  H   H2717     1.0  0.92826  0.84888  0.06815  1.0000
  Fe  Fe232     1.0  0.93898  0.77858  0.12893  1.0000
  S   S467      1.0  0.91995  0.79804  0.11143  1.0000
  S   S468      1.0  0.97225  0.74477  0.15515  1.0000
  S   S469      1.0  0.93558  0.75392  0.14270  1.0000
  Fe  Fe233     1.0  0.83928  0.85652  0.15388  1.0000
  S   S470      1.0  0.85670  0.86905  0.16260  1.0000
  S   S471      1.0  0.84541  0.84867  0.10069  1.0000
  Fe  Fe234     1.0  0.82331  0.85340  0.23214  1.0000
  S   S472      1.0  0.83960  0.86618  0.24553  1.0000
  S   S473      1.0  0.80752  0.84289  0.28078  1.0000
  Fe  Fe235     1.0  0.83654  0.88285  0.19442  1.0000
  S   S474      1.0  0.83102  0.90952  0.18207  1.0000
  Fe  Fe236     1.0  0.85815  0.85140  0.21216  1.0000
  S   S475      1.0  0.88026  0.83660  0.22833  1.0000
  S   S476      1.0  0.81876  0.87110  0.18315  1.0000
  S   S477      1.0  0.84214  0.83797  0.20155  1.0000
  H   H2718     1.0  0.83124  0.82694  0.32539  1.0000
  C   C3374     1.0  0.91459  0.84256  0.03657  1.0000
  C   C3375     1.0  0.84104  0.92360  0.18758  1.0000
  C   C3376     1.0  0.83602  0.93936  0.17373  1.0000
  C   C3377     1.0  0.84317  0.95103  0.17864  1.0000
  C   C3378     1.0  0.85541  0.94708  0.19772  1.0000
  C   C3379     1.0  0.86061  0.93131  0.21101  1.0000
  C   C3380     1.0  0.85353  0.91963  0.20590  1.0000
  H   H2719     1.0  0.82641  0.94258  0.15940  1.0000
  H   H2720     1.0  0.82905  0.95090  0.43118  1.0000
  H   H2721     1.0  0.87008  0.92810  0.22573  1.0000
  H   H2722     1.0  0.85753  0.90759  0.21672  1.0000
  C   C3381     1.0  0.91668  0.84922  0.06390  1.0000
  H   H2723     1.0  0.93894  0.75567  0.05512  1.0000
  C   C3382     1.0  0.90760  0.80718  0.14544  1.0000
  C   C3383     1.0  0.89578  0.81971  0.13670  1.0000
  C   C3384     1.0  0.88690  0.82836  0.16244  1.0000
  C   C3385     1.0  0.89000  0.82469  0.19700  1.0000
  C   C3386     1.0  0.90136  0.81172  0.20623  1.0000
  C   C3387     1.0  0.91002  0.80285  0.18057  1.0000
  H   H2724     1.0  0.89373  0.82299  0.10974  1.0000
  H   H2725     1.0  0.87798  0.83816  0.15519  1.0000
  H   H2726     1.0  0.90357  0.80863  0.23310  1.0000
  H   H2727     1.0  0.91880  0.79294  0.18774  1.0000
  P   P112      1.0  0.73670  0.65092  0.01973  1.0000
  H   H2728     1.0  0.82759  0.97427  0.23695  1.0000
  H   H2729     1.0  0.85268  0.72845  0.00583  1.0000
  C   C3388     1.0  0.91618  0.69932  0.26907  1.0000
  C   C3389     1.0  0.92623  0.70250  0.23683  1.0000
  C   C3390     1.0  0.93237  0.71622  0.22772  1.0000
  C   C3391     1.0  0.92879  0.72669  0.25132  1.0000
  C   C3392     1.0  0.91848  0.72368  0.28321  1.0000
  C   C3393     1.0  0.91195  0.71021  0.29179  1.0000
  H   H2730     1.0  0.92936  0.69423  0.21897  1.0000
  H   H2731     1.0  0.94028  0.71842  0.20303  1.0000
  H   H2732     1.0  0.91587  0.73159  0.30179  1.0000
  H   H2733     1.0  0.90436  0.70783  0.31683  1.0000
  C   C3394     1.0  0.81044  0.80764  0.41179  1.0000
  C   C3395     1.0  0.81474  0.91940  0.00891  1.0000
  H   H2734     1.0  0.94226  0.82112  0.09407  1.0000
  H   H2735     1.0  0.89007  0.67064  0.45028  1.0000
  H   H2736     1.0  0.78039  0.97261  0.03687  1.0000
  H   H2737     1.0  0.92212  0.83287  0.13954  1.0000
  H   H2738     1.0  0.83020  0.70563  0.37227  1.0000
  H   H2739     1.0  0.76715  0.87940  0.12451  1.0000
  C   C3396     1.0  0.94362  0.75000  0.03238  1.0000
  C   C3397     1.0  0.75910  0.67137  0.08995  1.0000
  C   C3398     1.0  0.81820  0.86148  0.07386  1.0000
  C   C3399     1.0  0.77814  0.80652  0.28523  1.0000
  C   C3400     1.0  0.78251  0.80840  0.31587  1.0000
  C   C3401     1.0  0.79201  0.81915  0.31388  1.0000
  C   C3402     1.0  0.79718  0.82819  0.28132  1.0000
  C   C3403     1.0  0.79335  0.82582  0.25047  1.0000
  C   C3404     1.0  0.78385  0.81505  0.25247  1.0000
  H   H2740     1.0  0.79538  0.82043  0.33769  1.0000
  H   H2741     1.0  0.79730  0.83263  0.22521  1.0000
  H   H2742     1.0  0.78062  0.81356  0.22857  1.0000
  H   H2743     1.0  0.81276  0.86346  0.10026  1.0000
  C   C3405     1.0  0.79292  0.72403  0.37342  1.0000
  C   C3406     1.0  0.79425  0.73253  0.33892  1.0000
  C   C3407     1.0  0.80850  0.73069  0.31579  1.0000
  C   C3408     1.0  0.82147  0.72076  0.32762  1.0000
  C   C3409     1.0  0.82009  0.71245  0.36219  1.0000
  C   C3410     1.0  0.80579  0.71387  0.38491  1.0000
  H   H2744     1.0  0.78434  0.74046  0.33000  1.0000
  H   H2745     1.0  0.80949  0.73699  0.28891  1.0000
  C   C3411     1.0  0.87115  0.96831  0.05549  1.0000
  C   C3412     1.0  0.78095  0.80220  0.41298  1.0000
  C   C3413     1.0  0.87344  0.97263  0.08578  1.0000
  C   C3414     1.0  0.79621  0.67471  0.18313  1.0000
  C   C3415     1.0  0.87449  0.95257  0.05185  1.0000
  C   C3416     1.0  0.77219  0.74103  0.24600  1.0000
  H   H2746     1.0  0.78213  0.70228  0.24532  1.0000
  H   H2747     1.0  0.88539  0.93686  0.13210  1.0000
  H   H2748     1.0  0.96909  0.79600  0.28812  1.0000
  C   C3417     1.0  0.80103  0.93735  0.06861  1.0000
  H   H2749     1.0  0.79149  0.72336  0.26050  1.0000
  H   H2750     1.0  0.76399  0.67548  0.10830  1.0000
  C   C3418     1.0  0.95966  0.67478  0.29333  1.0000
  H   H2751     1.0  0.79872  0.65938  0.27162  1.0000
  C   C3419     1.0  0.78573  0.96573  0.08960  1.0000
  C   C3420     1.0  0.78190  0.85375  0.36799  1.0000
  H   H2752     1.0  0.96601  0.66555  0.27909  1.0000
  C   C3421     1.0  0.98441  0.82652  0.99620  1.0000
  C   C3422     1.0  0.83253  0.72106  0.45265  1.0000
  C   C3423     1.0  0.86240  0.92060  0.00396  1.0000
  H   H2753     1.0  0.77860  0.65270  0.08076  1.0000
  C   C3424     1.0  0.85091  0.76031  0.43656  1.0000
  C   C3425     1.0  0.75430  0.83486  0.35556  1.0000
  H   H2754     1.0  0.79931  0.83124  0.41477  1.0000
  H   H2755     1.0  0.83915  0.73579  0.36453  1.0000
  H   H2756     1.0  0.79337  0.87001  0.32843  1.0000
  C   C3426     1.0  0.95719  0.77688  0.29884  1.0000
  C   C3427     1.0  0.93834  0.68384  0.33788  1.0000
  H   H2757     1.0  0.74606  0.83540  0.30757  1.0000
  C   C3428     1.0  0.98381  0.70341  0.17792  1.0000
  C   C3429     1.0  0.77560  0.71402  0.24056  1.0000
  H   H2758     1.0  0.97478  0.80878  0.16534  1.0000
  C   C3430     1.0  0.82111  0.65315  0.40589  1.0000
  C   C3431     1.0  0.80325  0.67441  0.30330  1.0000
  H   H2759     1.0  0.85040  0.71465  0.40934  1.0000
  C   C3432     1.0  0.83995  0.72283  0.41731  1.0000
  C   C3433     1.0  0.78601  0.96341  0.05537  1.0000
  H   H2760     1.0  0.82179  0.80981  0.41150  1.0000
  C   C3434     1.0  0.83218  0.85593  0.00549  1.0000
  H   H2761     1.0  0.83768  0.68133  0.22649  1.0000
  H   H2762     1.0  0.76306  0.66785  0.30821  1.0000
  C   C3435     1.0  0.81322  0.90706  0.99399  1.0000
  H   H2763     1.0  0.94366  0.75930  0.30319  1.0000
  Fe  Fe237     1.0  0.75422  0.77949  0.33672  1.0000
  H   H2764     1.0  0.75719  0.67155  0.38203  1.0000
  H   H2765     1.0  0.75631  0.66790  0.23812  1.0000
  H   H2766     1.0  0.82729  0.86132  0.38861  1.0000
  H   H2767     1.0  0.81856  0.85185  0.34265  1.0000
  H   H2768     1.0  0.95824  0.71260  0.29800  1.0000
  C   C3436     1.0  0.90382  0.85619  0.08598  1.0000
  C   C3437     1.0  0.88887  0.85674  0.08033  1.0000
  H   H2769     1.0  0.90537  0.86104  0.10769  1.0000
  H   H2770     1.0  0.87889  0.86191  0.09771  1.0000
  C   C3438     1.0  0.82531  0.68690  0.27683  1.0000
  H   H2771     1.0  0.79220  0.77851  0.41058  1.0000
  C   C3439     1.0  0.82926  0.79777  0.28541  1.0000
  C   C3440     1.0  0.83798  0.80052  0.25153  1.0000
  C   C3441     1.0  0.85312  0.80299  0.24725  1.0000
  C   C3442     1.0  0.85937  0.80317  0.27671  1.0000
  C   C3443     1.0  0.85058  0.80063  0.31086  1.0000
  C   C3444     1.0  0.83557  0.79765  0.31502  1.0000
  P   P113      1.0  0.85751  0.80292  0.34896  1.0000
  C   C3445     1.0  0.85434  0.78648  0.38358  1.0000
  C   C3446     1.0  0.87798  0.80337  0.33784  1.0000
  C   C3447     1.0  0.88909  0.79053  0.34935  1.0000
  C   C3448     1.0  0.90491  0.79096  0.33949  1.0000
  C   C3449     1.0  0.90973  0.80418  0.31820  1.0000
  C   C3450     1.0  0.89877  0.81702  0.30678  1.0000
  C   C3451     1.0  0.88295  0.81668  0.31681  1.0000
  C   C3452     1.0  0.84992  0.78807  0.41939  1.0000
  C   C3453     1.0  0.84800  0.77504  0.44570  1.0000
  C   C3454     1.0  0.85564  0.75863  0.40109  1.0000
  C   C3455     1.0  0.85702  0.77166  0.37465  1.0000
  C   C3456     1.0  0.84764  0.82130  0.36195  1.0000
  C   C3457     1.0  0.83524  0.83049  0.34594  1.0000
  C   C3458     1.0  0.82793  0.84481  0.35569  1.0000
  C   C3459     1.0  0.83293  0.85014  0.38137  1.0000
  C   C3460     1.0  0.84541  0.84121  0.39706  1.0000
  C   C3461     1.0  0.85283  0.82691  0.38717  1.0000
  H   H2772     1.0  0.83280  0.80114  0.22864  1.0000
  H   H2773     1.0  0.85985  0.80552  0.22099  1.0000
  H   H2774     1.0  0.87088  0.80574  0.27227  1.0000
  H   H2775     1.0  0.88566  0.78014  0.36573  1.0000
  H   H2776     1.0  0.91345  0.78099  0.34815  1.0000
  H   H2777     1.0  0.92196  0.80442  0.31036  1.0000
  H   H2778     1.0  0.90244  0.82719  0.28953  1.0000
  H   H2779     1.0  0.87460  0.82665  0.30720  1.0000
  H   H2780     1.0  0.84790  0.79926  0.42725  1.0000
  H   H2781     1.0  0.86046  0.77015  0.34724  1.0000
  H   H2782     1.0  0.84945  0.84549  0.41653  1.0000
  H   H2783     1.0  0.86270  0.82027  0.39898  1.0000
  H   H2784     1.0  0.92570  0.76292  0.00286  1.0000
  H   H2785     1.0  0.81846  0.78325  0.40959  1.0000
  P   P114      1.0  0.81024  0.91874  0.05625  1.0000
  C   C3462     1.0  0.74445  0.83167  0.33605  1.0000
  H   H2786     1.0  0.81741  0.79622  0.28857  1.0000
  C   C3463     1.0  0.86165  0.81262  0.05218  1.0000
  H   H2787     1.0  0.82045  0.66392  0.22352  1.0000
  C   C3464     1.0  0.97999  0.70533  0.14435  1.0000
  C   C3465     1.0  0.83770  0.97335  0.28250  1.0000
  H   H2788     1.0  0.81501  0.75415  0.38277  1.0000
  C   C3466     1.0  0.78442  0.68748  0.18942  1.0000
  H   H2789     1.0  0.82842  0.79602  0.34097  1.0000
  C   C3467     1.0  0.86184  0.72071  0.99176  1.0000
  C   C3468     1.0  0.96400  0.68939  0.28513  1.0000
  H   H2790     1.0  0.86665  0.97731  0.03492  1.0000
  H   H2791     1.0  0.79235  0.95543  0.14041  1.0000
  C   C3469     1.0  0.81980  0.76487  0.28185  1.0000
  C   C3470     1.0  0.81069  0.77133  0.25569  1.0000
  C   C3471     1.0  0.81753  0.77241  0.22000  1.0000
  C   C3472     1.0  0.83350  0.76715  0.21045  1.0000
  C   C3473     1.0  0.84286  0.76117  0.23660  1.0000
  C   C3474     1.0  0.83579  0.75976  0.27242  1.0000
  P   P115      1.0  0.86355  0.75436  0.22418  1.0000
  C   C3475     1.0  0.87155  0.76627  0.18404  1.0000
  C   C3476     1.0  0.87340  0.75520  0.25913  1.0000
  C   C3477     1.0  0.87368  0.74332  0.28896  1.0000
  C   C3478     1.0  0.88175  0.74359  0.31548  1.0000
  C   C3479     1.0  0.88962  0.75569  0.31239  1.0000
  C   C3480     1.0  0.88927  0.76764  0.28298  1.0000
  C   C3481     1.0  0.88118  0.76742  0.25644  1.0000
  C   C3482     1.0  0.86463  0.78194  0.17500  1.0000
  C   C3483     1.0  0.87131  0.79139  0.14521  1.0000
  C   C3484     1.0  0.88489  0.78523  0.12393  1.0000
  C   C3485     1.0  0.89196  0.76971  0.13278  1.0000
  C   C3486     1.0  0.88539  0.76027  0.16279  1.0000
  C   C3487     1.0  0.86725  0.73446  0.21745  1.0000
  C   C3488     1.0  0.85570  0.72841  0.20889  1.0000
  C   C3489     1.0  0.85871  0.71308  0.20316  1.0000
  C   C3490     1.0  0.87327  0.70371  0.20578  1.0000
  C   C3491     1.0  0.88478  0.70957  0.21464  1.0000
  C   C3492     1.0  0.88181  0.72487  0.22048  1.0000
  H   H2792     1.0  0.81440  0.76365  0.30951  1.0000
  H   H2793     1.0  0.79829  0.77536  0.26311  1.0000
  H   H2794     1.0  0.81040  0.77727  0.19977  1.0000
  H   H2795     1.0  0.83854  0.76778  0.18266  1.0000
  H   H2796     1.0  0.84250  0.75455  0.29320  1.0000
  H   H2797     1.0  0.86786  0.73370  0.29144  1.0000
  H   H2798     1.0  0.88223  0.73415  0.33790  1.0000
  H   H2799     1.0  0.89621  0.75565  0.33249  1.0000
  H   H2800     1.0  0.89551  0.77695  0.28027  1.0000
  H   H2801     1.0  0.88128  0.77669  0.23368  1.0000
  H   H2802     1.0  0.85420  0.78696  0.19114  1.0000
  H   H2803     1.0  0.86611  0.80358  0.13894  1.0000
  H   H2804     1.0  0.89019  0.79257  0.10102  1.0000
  H   H2805     1.0  0.90274  0.76512  0.11671  1.0000
  H   H2806     1.0  0.89131  0.74841  0.16949  1.0000
  H   H2807     1.0  0.84427  0.73536  0.20728  1.0000
  H   H2808     1.0  0.84965  0.70840  0.19731  1.0000
  P   P116      1.0  0.75449  0.70197  0.21598  1.0000
  H   H2809     1.0  0.89593  0.70215  0.21756  1.0000
  H   H2810     1.0  0.89091  0.72914  0.22746  1.0000
  C   C3493     1.0  0.78560  0.86837  0.35368  1.0000
  H   H2811     1.0  0.81971  0.97133  0.38331  1.0000
  C   C3494     1.0  0.77910  0.88085  0.37149  1.0000
  C   C3495     1.0  0.84078  0.85187  0.03307  1.0000
  H   H2812     1.0  0.79327  0.94755  0.01862  1.0000
  C   C3496     1.0  0.75320  0.73252  0.22296  1.0000
  H   H2813     1.0  0.74016  0.81572  0.43683  1.0000
  H   H2814     1.0  0.97274  0.72153  0.00395  1.0000
  C   C3497     1.0  0.94339  0.83374  0.25319  1.0000
  C   C3498     1.0  0.93842  0.83073  0.29000  1.0000
  C   C3499     1.0  0.92851  0.84230  0.30733  1.0000
  C   C3500     1.0  0.92369  0.85701  0.28813  1.0000
  C   C3501     1.0  0.92895  0.86024  0.25167  1.0000
  C   C3502     1.0  0.93888  0.84871  0.23428  1.0000
  C   C3503     1.0  0.93979  0.79411  0.24755  1.0000
  C   C3504     1.0  0.93686  0.77953  0.26517  1.0000
  C   C3505     1.0  0.86580  0.70511  0.00708  1.0000
  C   C3506     1.0  0.93100  0.79602  0.99976  1.0000
  H   H2815     1.0  0.92468  0.83728  0.01961  1.0000
  C   C3507     1.0  0.95187  0.82072  0.18632  1.0000
  C   C3508     1.0  0.95992  0.81475  0.12680  1.0000
  H   H2816     1.0  0.93601  0.70747  0.34441  1.0000
  C   C3509     1.0  0.94512  0.82149  0.11927  1.0000
  C   C3510     1.0  0.93373  0.82802  0.14499  1.0000
  C   C3511     1.0  0.93695  0.82736  0.17860  1.0000
  C   C3512     1.0  0.86522  0.90498  0.00048  1.0000
  H   H2817     1.0  0.88066  0.96468  0.13643  1.0000
  C   C3513     1.0  0.79763  0.81984  0.41343  1.0000
  C   C3514     1.0  0.84804  0.97874  0.43700  1.0000
  H   H2818     1.0  0.96400  0.77011  0.31854  1.0000
  H   H2819     1.0  0.94218  0.81949  0.30541  1.0000
  H   H2820     1.0  0.92456  0.83986  0.33569  1.0000
  H   H2821     1.0  0.91592  0.86595  0.30151  1.0000
  H   H2822     1.0  0.92528  0.87169  0.23682  1.0000
  H   H2823     1.0  0.94296  0.85148  0.20605  1.0000
  H   H2824     1.0  0.93296  0.80052  0.22769  1.0000
  H   H2825     1.0  0.92801  0.77478  0.25843  1.0000
  C   C3515     1.0  0.78015  0.73448  0.48733  1.0000
  H   H2826     1.0  0.85842  0.64780  0.24556  1.0000
  C   C3516     1.0  0.95679  0.73819  0.03296  1.0000
  H   H2827     1.0  0.87556  0.69176  0.20186  1.0000
  C   C3517     1.0  0.83389  0.85455  0.06728  1.0000
  S   S478      1.0  0.76554  0.79375  0.28659  1.0000
  C   C3518     1.0  0.75857  0.68315  0.36869  1.0000
  C   C3519     1.0  0.96011  0.79151  0.28131  1.0000
  H   H2828     1.0  0.88083  0.81991  0.06378  1.0000
  H   H2829     1.0  0.77605  0.75017  0.25395  1.0000
  C   C3520     1.0  0.82785  0.67973  0.24739  1.0000
  H   H2830     1.0  0.76738  0.70091  0.13997  1.0000
  H   H2831     1.0  0.79735  0.87077  0.05136  1.0000
  C   C3521     1.0  0.81556  0.66161  0.43347  1.0000
  H   H2832     1.0  0.73689  0.65038  0.12649  1.0000
  C   C3522     1.0  0.75726  0.83147  0.46363  1.0000
  H   H2833     1.0  0.83086  0.93329  0.08346  1.0000
  H   H2834     1.0  0.83312  0.69414  0.27847  1.0000
  H   H2835     1.0  0.95085  0.68485  0.16538  1.0000
  S   S479      1.0  0.75304  0.75539  0.33105  1.0000
  H   H2836     1.0  0.77833  0.80177  0.34112  1.0000
  C   C3523     1.0  0.88674  0.85024  0.05287  1.0000
  H   H2837     1.0  0.81332  0.69952  0.48088  1.0000
  C   C3524     1.0  0.88173  0.94560  0.11024  1.0000
  C   C3525     1.0  0.81315  0.68421  0.30481  1.0000
  C   C3526     1.0  0.98236  0.73846  0.24309  1.0000
  C   C3527     1.0  0.85728  0.89983  0.09347  1.0000
  H   H2838     1.0  0.85728  0.80850  0.07970  1.0000
  C   C3528     1.0  0.87888  0.96129  0.11298  1.0000
  H   H2839     1.0  0.86816  0.89520  0.10293  1.0000
  H   H2840     1.0  0.80860  0.65162  0.02408  1.0000
  H   H2841     1.0  0.78663  0.69907  0.17845  1.0000
  H   H2842     1.0  0.84327  0.80689  0.03308  1.0000
  C   C3529     1.0  0.84032  0.96088  0.03659  1.0000
  C   C3530     1.0  0.78279  0.81723  0.41369  1.0000
  C   C3531     1.0  0.80012  0.93954  0.10343  1.0000
  C   C3532     1.0  0.87957  0.94122  0.07977  1.0000
  C   C3533     1.0  0.95544  0.70113  0.30398  1.0000
  C   C3534     1.0  0.80576  0.66737  0.27333  1.0000
  C   C3535     1.0  0.73773  0.67285  0.05999  1.0000
  H   H2843     1.0  0.96770  0.72540  0.23026  1.0000
  C   C3536     1.0  0.88008  0.82547  0.00757  1.0000
  C   C3537     1.0  0.80854  0.79272  0.41075  1.0000
  C   C3538     1.0  0.76886  0.87870  0.40361  1.0000
  C   C3539     1.0  0.76908  0.65612  0.31638  1.0000
  C   C3540     1.0  0.74654  0.70926  0.17557  1.0000
  H   H2844     1.0  0.83065  0.88858  0.05981  1.0000
  C   C3541     1.0  0.79272  0.95376  0.11367  1.0000
  C   C3542     1.0  0.95165  0.80009  0.25490  1.0000
  C   C3543     1.0  0.75274  0.82947  0.39227  1.0000
  H   H2845     1.0  0.82255  0.66047  0.45352  1.0000
  C   C3544     1.0  0.74803  0.71074  0.35783  1.0000
  C   C3545     1.0  0.83598  0.89613  0.06950  1.0000
  C   C3546     1.0  0.77429  0.70087  0.33065  1.0000
  Fe  Fe238     1.0  0.75981  0.74839  0.38462  1.0000
  C   C3547     1.0  0.85138  0.95674  0.00724  1.0000
  H   H2846     1.0  0.96934  0.82346  0.04674  1.0000
  H   H2847     1.0  0.89119  0.97123  0.99706  1.0000
  C   C3548     1.0  0.85023  0.89029  0.08073  1.0000
  C   C3549     1.0  0.88802  0.91710  0.01809  1.0000
  H   H2848     1.0  0.77999  0.97674  0.09760  1.0000
  C   C3550     1.0  0.74440  0.67861  0.08231  1.0000
  C   C3551     1.0  0.80136  0.67201  0.43419  1.0000
  C   C3552     1.0  0.80951  0.86556  0.04619  1.0000
  H   H2849     1.0  0.91591  0.80968  0.03659  1.0000
  C   C3553     1.0  0.89958  0.84276  0.03132  1.0000
  C   C3554     1.0  0.87491  0.81928  0.04305  1.0000
  C   C3555     1.0  0.93616  0.75411  0.00276  1.0000
  C   C3556     1.0  0.83365  0.73477  0.39215  1.0000
  C   C3557     1.0  0.96396  0.68793  0.20246  1.0000
  H   H2850     1.0  0.78192  0.89220  0.36023  1.0000
  C   C3558     1.0  0.79379  0.79003  0.41133  1.0000
  H   H2851     1.0  0.75614  0.71107  0.08595  1.0000
  H   H2852     1.0  0.76959  0.79984  0.41378  1.0000
  C   C3559     1.0  0.76985  0.68531  0.20933  1.0000
  H   H2853     1.0  0.87505  0.85087  0.04887  1.0000
  H   H2854     1.0  0.76289  0.78066  0.46758  1.0000
  C   C3560     1.0  0.82002  0.74509  0.40242  1.0000
  S   S480      1.0  0.86441  0.96136  0.20622  1.0000
  P   P117      1.0  0.76605  0.83271  0.41737  1.0000
  H   H2855     1.0  0.88160  0.92901  0.07861  1.0000
  C   C3561     1.0  0.79831  0.89685  0.11083  1.0000
  H   H2856     1.0  0.76331  0.84116  0.34153  1.0000
  H   H2857     1.0  0.78706  0.84431  0.35364  1.0000
  H   H2858     1.0  0.92809  0.68187  0.35728  1.0000
  C   C3562     1.0  0.77264  0.68570  0.34669  1.0000
  H   H2859     1.0  0.73777  0.68826  0.09493  1.0000
  H   H2860     1.0  0.83909  0.96307  0.16803  1.0000
  H   H2861     1.0  0.85567  0.87829  0.07986  1.0000
  C   C3563     1.0  0.91959  0.80866  0.00889  1.0000
  C   C3564     1.0  0.97584  0.81956  0.22856  1.0000
  H   H2862     1.0  0.76342  0.72489  0.32338  1.0000
  C   C3565     1.0  0.83600  0.92124  0.08275  1.0000
  H   H2863     1.0  0.85530  0.92257  0.10547  1.0000
  C   C3566     1.0  0.94677  0.67210  0.31929  1.0000
  C   C3567     1.0  0.77531  0.88693  0.11154  1.0000
  H   H2864     1.0  0.76404  0.89599  0.06618  1.0000
  C   C3568     1.0  0.81257  0.74334  0.43778  1.0000
  C   C3569     1.0  0.76198  0.71327  0.33587  1.0000
  H   H2865     1.0  0.80523  0.93027  0.12269  1.0000
  H   H2866     1.0  0.79722  0.67893  0.45497  1.0000
  C   C3570     1.0  0.85013  0.91529  0.09455  1.0000
  C   C3571     1.0  0.77357  0.89627  0.07869  1.0000
  C   C3572     1.0  0.78759  0.88732  0.12772  1.0000
  C   C3573     1.0  0.82865  0.91159  0.07090  1.0000
  C   C3574     1.0  0.96890  0.80652  0.01578  1.0000
  H   H2867     1.0  0.85835  0.74719  0.39405  1.0000
  C   C3575     1.0  0.78087  0.72591  0.24969  1.0000
  C   C3576     1.0  0.74919  0.71284  0.11144  1.0000
  C   C3577     1.0  0.78420  0.90589  0.06185  1.0000
  H   H2868     1.0  0.81174  0.68946  0.32799  1.0000
  C   C3578     1.0  0.75553  0.70706  0.14236  1.0000
  C   C3579     1.0  0.73887  0.69689  0.25112  1.0000
  H   H2869     1.0  0.85966  0.70073  0.03291  1.0000
  P   P118      1.0  0.95577  0.81864  0.23059  1.0000
  C   C3580     1.0  0.79683  0.90598  0.07746  1.0000
  H   H2870     1.0  0.78261  0.91318  0.03657  1.0000
  H   H2871     1.0  0.78886  0.88017  0.15332  1.0000
  H   H2872     1.0  0.80768  0.89711  0.12393  1.0000
  C   C3581     1.0  0.94278  0.69828  0.33051  1.0000
  C   C3582     1.0  0.81650  0.86277  0.01193  1.0000
  H   H2873     1.0  0.78212  0.68260  0.40780  1.0000
  C   C3583     1.0  0.76064  0.65277  0.05232  1.0000
  C   C3584     1.0  0.96263  0.73075  0.00352  1.0000
  H   H2874     1.0  0.80739  0.67644  0.16764  1.0000
  H   H2875     1.0  0.78511  0.70330  0.31468  1.0000
  H   H2876     1.0  0.80202  0.75143  0.44528  1.0000
  C   C3585     1.0  0.83734  0.98042  0.31118  1.0000
  C   C3586     1.0  0.81847  0.73096  0.46291  1.0000
  H   H2877     1.0  0.75137  0.75593  0.23094  1.0000
  C   C3587     1.0  0.96333  0.81446  0.16004  1.0000
  C   C3588     1.0  0.77144  0.85149  0.39998  1.0000
  C   C3589     1.0  0.79274  0.67399  0.40724  1.0000
  P   P119      1.0  0.78867  0.66964  0.34129  1.0000
  C   C3590     1.0  0.76737  0.67011  0.22304  1.0000
  C   C3591     1.0  0.86746  0.67805  0.47984  1.0000
  C   C3592     1.0  0.74124  0.82071  0.40893  1.0000
  C   C3593     1.0  0.81263  0.65527  0.37871  1.0000
  H   H2878     1.0  0.94302  0.66106  0.32441  1.0000
  C   C3594     1.0  0.88363  0.67373  0.47520  1.0000
  H   H2879     1.0  0.88106  0.68316  0.00143  1.0000
  H   H2880     1.0  0.85282  0.84650  0.02796  1.0000
  C   C3595     1.0  0.79367  0.65966  0.19723  1.0000
  H   H2881     1.0  0.90173  0.89396  0.01940  1.0000
  C   C3596     1.0  0.74159  0.83819  0.47340  1.0000
  P   P120      1.0  0.98048  0.69276  0.25086  1.0000
  H   H2882     1.0  0.84313  0.95797  0.06297  1.0000
  H   H2883     1.0  0.76376  0.88839  0.41737  1.0000
  C   C3597     1.0  0.82163  0.97348  0.99821  1.0000
  H   H2884     1.0  0.75805  0.73916  0.47030  1.0000
  C   C3598     1.0  0.77928  0.65738  0.21719  1.0000
  C   C3599     1.0  0.79829  0.66554  0.37926  1.0000
  H   H2885     1.0  0.84962  0.75018  0.45698  1.0000
  H   H2886     1.0  0.74225  0.73527  0.21354  1.0000
  C   C3600     1.0  0.74559  0.65951  0.04590  1.0000
  H   H2887     1.0  0.96864  0.80918  0.10742  1.0000
  C   C3601     1.0  0.87371  0.92679  0.01314  1.0000
  P   P121      1.0  0.87107  0.94745  0.01239  1.0000
  C   C3602     1.0  0.76729  0.65854  0.07462  1.0000
  C   C3603     1.0  0.96017  0.68989  0.16883  1.0000
  C   C3604     1.0  0.85372  0.81174  0.02592  1.0000
  H   H2888     1.0  0.84606  0.97565  0.32782  1.0000
  H   H2889     1.0  0.80963  0.65062  0.08725  1.0000
  H   H2890     1.0  0.84654  0.96326  0.27729  1.0000
  C   C3605     1.0  0.96811  0.69867  0.13984  1.0000
  H   H2891     1.0  0.96048  0.80102  0.03560  1.0000
  H   H2892     1.0  0.83765  0.71172  0.47168  1.0000
  C   C3606     1.0  0.82699  0.97956  0.25971  1.0000
  C   C3607     1.0  0.76500  0.86410  0.41779  1.0000
  H   H2893     1.0  0.84718  0.95553  0.46566  1.0000
  C   C3608     1.0  0.82555  0.96930  0.03199  1.0000
  H   H2894     1.0  0.93607  0.78750  0.02030  1.0000
  H   H2895     1.0  0.75691  0.86278  0.44246  1.0000
  H   H2896     1.0  0.80288  0.64975  0.19283  1.0000
  H   H2897     1.0  0.89721  0.92181  0.02334  1.0000
  C   C3609     1.0  0.97995  0.83351  0.23044  1.0000
  H   H2898     1.0  0.78625  0.72957  0.46415  1.0000
  H   H2899     1.0  0.85642  0.90037  0.99322  1.0000
  H   H2900     1.0  0.95743  0.68131  0.22447  1.0000
  C   C3610     1.0  0.79349  0.94922  0.04498  1.0000
  H   H2901     1.0  0.77815  0.81882  0.48367  1.0000
  Fe  Fe239     1.0  0.73839  0.77542  0.41415  1.0000
  H   H2902     1.0  0.80926  0.89692  0.01045  1.0000
  H   H2903     1.0  0.82294  0.94099  0.99809  1.0000
  H   H2904     1.0  0.97123  0.84387  0.23343  1.0000
  C   C3611     1.0  0.74633  0.69566  0.37427  1.0000
  H   H2905     1.0  0.97547  0.74960  0.23364  1.0000
  H   H2906     1.0  0.88143  0.88321  0.00400  1.0000
  C   C3612     1.0  0.94567  0.77082  0.29048  1.0000
  H   H2907     1.0  0.98484  0.79569  0.22105  1.0000
  C   C3613     1.0  0.83288  0.96192  0.42527  1.0000
  C   C3614     1.0  0.84309  0.96453  0.44469  1.0000
  C   C3615     1.0  0.82764  0.97350  0.39811  1.0000
  C   C3616     1.0  0.73569  0.70293  0.28263  1.0000
  H   H2908     1.0  0.73862  0.72051  0.36229  1.0000
  H   H2909     1.0  0.85148  0.92782  0.99878  1.0000
  P   P122      1.0  0.89671  0.83475  0.99536  1.0000
  C   C3617     1.0  0.97383  0.81920  0.02203  1.0000
  C   C3618     1.0  0.78143  0.65335  0.33510  1.0000
  C   C3619     1.0  0.87931  0.89533  0.00649  1.0000
  C   C3620     1.0  0.89071  0.90139  0.01534  1.0000
  H   H2910     1.0  0.74266  0.71049  0.28687  1.0000
  H   H2911     1.0  0.96493  0.70052  0.11390  1.0000
  H   H2912     1.0  0.81766  0.64941  0.35637  1.0000
  C   C3621     1.0  0.97570  0.69484  0.20739  1.0000
  C   C3622     1.0  0.97794  0.72475  0.24124  1.0000
  H   H2913     1.0  0.81732  0.97300  0.05448  1.0000
  C   C3623     1.0  0.76606  0.82406  0.49022  1.0000
  C   C3624     1.0  0.85918  0.81732  0.99044  1.0000
  Fe  Fe240     1.0  0.88486  0.68430  0.62307  1.0000
  S   S481      1.0  0.85983  0.69470  0.63904  1.0000
  S   S482      1.0  0.89388  0.67528  0.57066  1.0000
  Fe  Fe241     1.0  0.89426  0.69088  0.68938  1.0000
  S   S483      1.0  0.86978  0.70156  0.70944  1.0000
  S   S484      1.0  0.91179  0.68856  0.72590  1.0000
  Fe  Fe242     1.0  0.86253  0.68188  0.69401  1.0000
  S   S485      1.0  0.84157  0.67328  0.73004  1.0000
  Fe  Fe243     1.0  0.86921  0.71320  0.65315  1.0000
  S   S486      1.0  0.85846  0.73835  0.63926  1.0000
  S   S487      1.0  0.88717  0.67006  0.67763  1.0000
  S   S488      1.0  0.89419  0.70392  0.63355  1.0000
  Fe  Fe244     1.0  0.76488  0.80321  0.70599  1.0000
  S   S489      1.0  0.78087  0.78806  0.66948  1.0000
  S   S490      1.0  0.77449  0.82399  0.71236  1.0000
  Fe  Fe245     1.0  0.77486  0.76819  0.71135  1.0000
  S   S491      1.0  0.79177  0.74758  0.73267  1.0000
  C   C3625     1.0  0.76532  0.87364  0.87968  1.0000
  H   H2914     1.0  0.86683  0.73861  0.94761  1.0000
  Fe  Fe246     1.0  0.84659  0.84449  0.88145  1.0000
  S   S492      1.0  0.83920  0.85516  0.82906  1.0000
  S   S493      1.0  0.86592  0.82419  0.89339  1.0000
  Fe  Fe247     1.0  0.81838  0.86275  0.92364  1.0000
  S   S494      1.0  0.80854  0.87447  0.87449  1.0000
  H   H2915     1.0  0.73939  0.69923  0.74265  1.0000
  Fe  Fe248     1.0  0.81532  0.85118  0.85640  1.0000
  S   S495      1.0  0.79968  0.83727  0.84184  1.0000
  Fe  Fe249     1.0  0.83311  0.87756  0.85144  1.0000
  S   S496      1.0  0.83712  0.90134  0.82067  1.0000
  S   S497      1.0  0.82314  0.83941  0.90802  1.0000
  S   S498      1.0  0.84249  0.86699  0.90157  1.0000
  H   H2916     1.0  0.79874  0.69600  0.68714  1.0000
  Fe  Fe250     1.0  0.94513  0.75527  0.88068  1.0000
  S   S499      1.0  0.95735  0.77540  0.86427  1.0000
  S   S500      1.0  0.93213  0.75190  0.93705  1.0000
  Fe  Fe251     1.0  0.94940  0.74935  0.80391  1.0000
  S   S501      1.0  0.96285  0.76886  0.78296  1.0000
  S   S502      1.0  0.94085  0.74148  0.76056  1.0000
  Fe  Fe252     1.0  0.97501  0.76026  0.83009  1.0000
  Fe  Fe253     1.0  0.94427  0.78228  0.81901  1.0000
  S   S503      1.0  0.93182  0.80647  0.79933  1.0000
  S   S504      1.0  0.96316  0.73942  0.84865  1.0000
  S   S505      1.0  0.93058  0.76337  0.83808  1.0000
  C   C3626     1.0  0.88435  0.82055  0.86683  1.0000
  C   C3627     1.0  0.89573  0.80885  0.88100  1.0000
  C   C3628     1.0  0.91017  0.80435  0.86017  1.0000
  C   C3629     1.0  0.91359  0.81199  0.82534  1.0000
  C   C3630     1.0  0.90241  0.82408  0.81133  1.0000
  C   C3631     1.0  0.88771  0.82827  0.83194  1.0000
  H   H2917     1.0  0.89324  0.80308  0.90819  1.0000
  H   H2918     1.0  0.91868  0.79499  0.87112  1.0000
  H   H2919     1.0  0.90502  0.83001  0.78434  1.0000
  H   H2920     1.0  0.87899  0.83733  0.82078  1.0000
  C   C3632     1.0  0.84435  0.91428  0.83869  1.0000
  C   C3633     1.0  0.84177  0.93024  0.82445  1.0000
  C   C3634     1.0  0.84747  0.94080  0.83791  1.0000
  C   C3635     1.0  0.85603  0.93546  0.86545  1.0000
  C   C3636     1.0  0.85868  0.91948  0.87957  1.0000
  C   C3637     1.0  0.85285  0.90896  0.86637  1.0000
  H   H2921     1.0  0.83531  0.93448  0.80292  1.0000
  C   C3638     1.0  0.83966  0.73849  0.55992  1.0000
  H   H2922     1.0  0.86526  0.91523  0.90091  1.0000
  H   H2923     1.0  0.85505  0.89673  0.87734  1.0000
  C   C3639     1.0  0.75286  0.71375  0.65459  1.0000
  H   H2924     1.0  0.92238  0.77393  0.76004  1.0000
  H   H2925     1.0  0.85022  0.73246  0.56983  1.0000
  C   C3640     1.0  0.92431  0.71470  0.87143  1.0000
  C   C3641     1.0  0.73933  0.72684  0.78975  1.0000
  C   C3642     1.0  0.74706  0.84960  0.77881  1.0000
  C   C3643     1.0  0.78060  0.73147  0.64952  1.0000
  C   C3644     1.0  0.94004  0.71049  0.87405  1.0000
  H   H2926     1.0  0.83740  0.71915  0.53875  1.0000
  C   C3645     1.0  0.74543  0.65684  0.97429  1.0000
  H   H2927     1.0  0.85349  0.65804  0.64063  1.0000
  C   C3646     1.0  0.95538  0.73514  0.97356  1.0000
  H   H2928     1.0  0.86888  0.85682  0.97661  1.0000
  C   C3647     1.0  0.92839  0.80468  0.93818  1.0000
  H   H2929     1.0  0.76434  0.67024  0.87679  1.0000
  H   H2930     1.0  0.84509  0.71884  0.85608  1.0000
  H   H2931     1.0  0.95988  0.72930  0.95103  1.0000
  C   C3648     1.0  0.76993  0.68725  0.70108  1.0000
  C   C3649     1.0  0.78253  0.82644  0.74826  1.0000
  C   C3650     1.0  0.79318  0.83649  0.74176  1.0000
  C   C3651     1.0  0.79895  0.83963  0.76976  1.0000
  C   C3652     1.0  0.79385  0.83300  0.80483  1.0000
  C   C3653     1.0  0.78339  0.82279  0.81124  1.0000
  C   C3654     1.0  0.77782  0.81946  0.78324  1.0000
  H   H2932     1.0  0.79686  0.84203  0.71489  1.0000
  H   H2933     1.0  0.80708  0.84740  0.76424  1.0000
  H   H2934     1.0  0.77933  0.81760  0.83819  1.0000
  H   H2935     1.0  0.76949  0.81189  0.78884  1.0000
  C   C3655     1.0  0.91962  0.70349  0.73531  1.0000
  C   C3656     1.0  0.91837  0.71838  0.71468  1.0000
  C   C3657     1.0  0.92492  0.72977  0.72295  1.0000
  C   C3658     1.0  0.93254  0.72661  0.75227  1.0000
  C   C3659     1.0  0.93376  0.71174  0.77293  1.0000
  C   C3660     1.0  0.92741  0.70027  0.76440  1.0000
  H   H2936     1.0  0.91256  0.72103  0.69205  1.0000
  H   H2937     1.0  0.92418  0.74111  0.70632  1.0000
  H   H2938     1.0  0.93999  0.70893  0.79480  1.0000
  H   H2939     1.0  0.92856  0.68879  0.78040  1.0000
  C   C3661     1.0  0.83988  0.74108  0.66469  1.0000
  C   C3662     1.0  0.83027  0.75574  0.66166  1.0000
  C   C3663     1.0  0.81538  0.75780  0.68216  1.0000
  C   C3664     1.0  0.81021  0.74532  0.70620  1.0000
  C   C3665     1.0  0.81988  0.73073  0.70918  1.0000
  C   C3666     1.0  0.83459  0.72856  0.68816  1.0000
  H   H2940     1.0  0.83430  0.76546  0.64349  1.0000
  H   H2941     1.0  0.80810  0.76910  0.67996  1.0000
  H   H2942     1.0  0.81577  0.72090  0.72664  1.0000
  H   H2943     1.0  0.84165  0.71709  0.68989  1.0000
  H   H2944     1.0  0.80478  0.66991  0.67949  1.0000
  C   C3667     1.0  0.88334  0.67684  0.53600  1.0000
  C   C3668     1.0  0.86717  0.68133  0.54052  1.0000
  C   C3669     1.0  0.91073  0.78032  0.75781  1.0000
  H   H2945     1.0  0.86071  0.68417  0.56563  1.0000
  S   S506      1.0  0.76692  0.78550  0.58773  1.0000
  C   C3670     1.0  0.79649  0.77659  0.79236  1.0000
  C   C3671     1.0  0.89704  0.95335  0.91270  1.0000
  C   C3672     1.0  0.74345  0.82923  0.53537  1.0000
  H   H2946     1.0  0.84420  0.65271  0.50428  1.0000
  C   C3673     1.0  0.85930  0.68184  0.51267  1.0000
  C   C3674     1.0  0.90586  0.78416  0.72502  1.0000
  C   C3675     1.0  0.88576  0.79342  0.78482  1.0000
  C   C3676     1.0  0.88064  0.79723  0.75211  1.0000
  C   C3677     1.0  0.89098  0.79278  0.72202  1.0000
  P   P123      1.0  0.86202  0.80974  0.74746  1.0000
  C   C3678     1.0  0.84792  0.80691  0.78759  1.0000
  C   C3679     1.0  0.86436  0.82971  0.74012  1.0000
  C   C3680     1.0  0.85128  0.84157  0.74510  1.0000
  C   C3681     1.0  0.85304  0.85698  0.74091  1.0000
  C   C3682     1.0  0.86784  0.86062  0.73257  1.0000
  C   C3683     1.0  0.88091  0.84889  0.72785  1.0000
  C   C3684     1.0  0.87921  0.83351  0.73147  1.0000
  C   C3685     1.0  0.83475  0.80086  0.78812  1.0000
  C   C3686     1.0  0.82345  0.79968  0.81866  1.0000
  C   C3687     1.0  0.82545  0.80398  0.84927  1.0000
  C   C3688     1.0  0.83851  0.80995  0.84900  1.0000
  C   C3689     1.0  0.84946  0.81185  0.81806  1.0000
  C   C3690     1.0  0.85467  0.80569  0.71157  1.0000
  C   C3691     1.0  0.85746  0.79041  0.70511  1.0000
  C   C3692     1.0  0.85148  0.78704  0.67819  1.0000
  C   C3693     1.0  0.84219  0.79881  0.65825  1.0000
  C   C3694     1.0  0.83902  0.81398  0.66501  1.0000
  C   C3695     1.0  0.84528  0.81744  0.69143  1.0000
  H   H2947     1.0  0.87858  0.79720  0.80824  1.0000
  H   H2948     1.0  0.88769  0.79619  0.69609  1.0000
  H   H2949     1.0  0.83973  0.83889  0.75289  1.0000
  H   H2950     1.0  0.84294  0.86607  0.74517  1.0000
  H   H2951     1.0  0.88956  0.82464  0.72818  1.0000
  H   H2952     1.0  0.83279  0.79755  0.76480  1.0000
  H   H2953     1.0  0.81292  0.79581  0.81834  1.0000
  H   H2954     1.0  0.81649  0.80345  0.87265  1.0000
  H   H2955     1.0  0.86417  0.78105  0.72103  1.0000
  H   H2956     1.0  0.85383  0.77522  0.67315  1.0000
  H   H2957     1.0  0.83728  0.79612  0.63788  1.0000
  H   H2958     1.0  0.83156  0.82305  0.64997  1.0000
  H   H2959     1.0  0.84256  0.82924  0.69629  1.0000
  H   H2960     1.0  0.81329  0.66546  0.57615  1.0000
  H   H2961     1.0  0.85307  0.81666  0.96998  1.0000
  C   C3696     1.0  0.84204  0.65523  0.64547  1.0000
  C   C3697     1.0  0.77370  0.85052  0.92133  1.0000
  C   C3698     1.0  0.82930  0.66573  0.65929  1.0000
  C   C3699     1.0  0.97778  0.80474  0.85708  1.0000
  H   H2962     1.0  0.78458  0.66035  0.76731  1.0000
  C   C3700     1.0  0.77970  0.66503  0.74336  1.0000
  H   H2963     1.0  0.76137  0.85957  0.73221  1.0000
  C   C3701     1.0  0.78038  0.90453  0.81279  1.0000
  H   H2964     1.0  0.83104  0.67641  0.66506  1.0000
  C   C3702     1.0  0.81370  0.68126  0.52623  1.0000
  P   P124      1.0  0.89273  0.72374  0.89809  1.0000
  C   C3703     1.0  0.88777  0.74468  0.88945  1.0000
  C   C3704     1.0  0.91310  0.71798  0.90114  1.0000
  H   H2965     1.0  0.88108  0.93887  0.94200  1.0000
  H   H2966     1.0  0.81769  0.90233  0.76930  1.0000
  C   C3705     1.0  0.94472  0.70959  0.90626  1.0000
  C   C3706     1.0  0.87511  0.75226  0.87262  1.0000
  C   C3707     1.0  0.87064  0.76845  0.86803  1.0000
  C   C3708     1.0  0.87872  0.77714  0.88050  1.0000
  C   C3709     1.0  0.89585  0.75352  0.90162  1.0000
  C   C3710     1.0  0.88861  0.71620  0.86263  1.0000
  C   C3711     1.0  0.88163  0.70309  0.86963  1.0000
  C   C3712     1.0  0.87952  0.69681  0.84171  1.0000
  C   C3713     1.0  0.88426  0.70360  0.80671  1.0000
  C   C3714     1.0  0.89067  0.71692  0.79964  1.0000
  C   C3715     1.0  0.89288  0.72321  0.82734  1.0000
  H   H2967     1.0  0.81558  0.89815  0.94592  1.0000
  C   C3716     1.0  0.90264  0.97138  0.94366  1.0000
  H   H2968     1.0  0.95694  0.70670  0.90803  1.0000
  H   H2969     1.0  0.86858  0.74560  0.86357  1.0000
  H   H2970     1.0  0.86085  0.77432  0.85514  1.0000
  H   H2971     1.0  0.87805  0.69747  0.89640  1.0000
  H   H2972     1.0  0.87452  0.68647  0.84708  1.0000
  H   H2973     1.0  0.88320  0.69845  0.78493  1.0000
  H   H2974     1.0  0.89440  0.72207  0.77250  1.0000
  H   H2975     1.0  0.89840  0.73325  0.82108  1.0000
  C   C3717     1.0  0.87673  0.87355  0.93274  1.0000
  C   C3718     1.0  0.88945  0.87825  0.90897  1.0000
  C   C3719     1.0  0.90439  0.86964  0.91110  1.0000
  C   C3720     1.0  0.90660  0.85626  0.93685  1.0000
  C   C3721     1.0  0.89382  0.85117  0.96007  1.0000
  C   C3722     1.0  0.87890  0.86012  0.95828  1.0000
  C   C3723     1.0  0.75916  0.82300  0.52591  1.0000
  C   C3724     1.0  0.74246  0.91001  0.80854  1.0000
  C   C3725     1.0  0.79443  0.90920  0.79664  1.0000
  P   P125      1.0  0.76094  0.88274  0.83636  1.0000
  H   H2976     1.0  0.83989  0.81370  0.87239  1.0000
  H   H2977     1.0  0.87515  0.78967  0.87742  1.0000
  H   H2978     1.0  0.83765  0.85358  0.97937  1.0000
  C   C3726     1.0  0.91259  0.81951  0.98266  1.0000
  C   C3727     1.0  0.83711  0.65439  0.74232  1.0000
  H   H2979     1.0  0.74489  0.68898  0.90939  1.0000
  C   C3728     1.0  0.91688  0.81728  0.94725  1.0000
  H   H2980     1.0  0.76901  0.73294  0.72187  1.0000
  H   H2981     1.0  0.77075  0.70431  0.61412  1.0000
  H   H2982     1.0  0.83782  0.74306  0.94306  1.0000
  C   C3729     1.0  0.76679  0.88287  0.90302  1.0000
  H   H2983     1.0  0.84539  0.95304  0.82670  1.0000
  C   C3730     1.0  0.82096  0.93180  0.98683  1.0000
  H   H2984     1.0  0.86516  0.88030  0.93136  1.0000
  H   H2985     1.0  0.88769  0.88861  0.88899  1.0000
  H   H2986     1.0  0.91424  0.87340  0.89281  1.0000
  C   C3731     1.0  0.76410  0.73969  0.49099  1.0000
  H   H2987     1.0  0.79602  0.92077  0.79694  1.0000
  C   C3732     1.0  0.74139  0.67228  0.95753  1.0000
  C   C3733     1.0  0.76913  0.66109  0.69500  1.0000
  H   H2988     1.0  0.90397  0.66946  0.49945  1.0000
  C   C3734     1.0  0.84707  0.96035  0.97375  1.0000
  H   H2989     1.0  0.77119  0.91262  0.82565  1.0000
  H   H2990     1.0  0.93158  0.80290  0.91091  1.0000
  H   H2991     1.0  0.91103  0.82493  0.92678  1.0000
  H   H2992     1.0  0.87643  0.82836  0.95365  1.0000
  C   C3735     1.0  0.74125  0.84970  0.81476  1.0000
  C   C3736     1.0  0.79105  0.87889  0.79843  1.0000
  H   H2993     1.0  0.80889  0.68636  0.61156  1.0000
  C   C3737     1.0  0.79370  0.73794  0.63378  1.0000
  C   C3738     1.0  0.80849  0.72910  0.63635  1.0000
  H   H2994     1.0  0.79236  0.74991  0.62019  1.0000
  H   H2995     1.0  0.81862  0.73421  0.62492  1.0000
  Fe  Fe254     1.0  0.74074  0.78188  0.72219  1.0000
  C   C3739     1.0  0.81835  0.73859  0.53070  1.0000
  C   C3740     1.0  0.83325  0.75368  0.56533  1.0000
  C   C3741     1.0  0.81956  0.76146  0.55295  1.0000
  C   C3742     1.0  0.81225  0.75403  0.53521  1.0000
  H   H2996     1.0  0.96978  0.78178  0.92376  1.0000
  C   C3743     1.0  0.76370  0.74626  0.54781  1.0000
  C   C3744     1.0  0.77977  0.74113  0.54412  1.0000
  C   C3745     1.0  0.80671  0.89877  0.78111  1.0000
  H   H2997     1.0  0.83884  0.75930  0.57956  1.0000
  H   H2998     1.0  0.76595  0.65333  0.68135  1.0000
  C   C3746     1.0  0.81448  0.66214  0.66721  1.0000
  H   H2999     1.0  0.80700  0.71362  0.58219  1.0000
  H   H3000     1.0  0.75732  0.75098  0.57112  1.0000
  H   H3001     1.0  0.78554  0.74157  0.56524  1.0000
  C   C3747     1.0  0.85536  0.74624  0.77156  1.0000
  C   C3748     1.0  0.86000  0.74101  0.73899  1.0000
  C   C3749     1.0  0.87435  0.74291  0.71808  1.0000
  C   C3750     1.0  0.88420  0.75006  0.72951  1.0000
  C   C3751     1.0  0.87967  0.75534  0.76185  1.0000
  C   C3752     1.0  0.86520  0.75369  0.78252  1.0000
  C   C3753     1.0  0.81577  0.72505  0.79911  1.0000
  C   C3754     1.0  0.81182  0.71097  0.79819  1.0000
  C   C3755     1.0  0.83384  0.75737  0.89314  1.0000
  C   C3756     1.0  0.83370  0.75764  0.85748  1.0000
  H   H3002     1.0  0.85249  0.73554  0.72957  1.0000
  H   H3003     1.0  0.87785  0.73875  0.69302  1.0000
  H   H3004     1.0  0.89538  0.75138  0.71344  1.0000
  H   H3005     1.0  0.88740  0.76069  0.77089  1.0000
  H   H3006     1.0  0.86173  0.75829  0.80683  1.0000
  H   H3007     1.0  0.80654  0.73501  0.80212  1.0000
  H   H3008     1.0  0.79976  0.71032  0.80026  1.0000
  H   H3009     1.0  0.83080  0.76813  0.90353  1.0000
  H   H3010     1.0  0.83067  0.76865  0.84058  1.0000
  S   S507      1.0  0.75804  0.65093  0.82558  1.0000
  C   C3757     1.0  0.90067  0.78502  0.78760  1.0000
  H   H3011     1.0  0.97263  0.75361  0.92942  1.0000
  H   H3012     1.0  0.89240  0.85168  0.72192  1.0000
  H   H3013     1.0  0.90556  0.74805  0.91493  1.0000
  C   C3758     1.0  0.83228  0.73096  0.54259  1.0000
  H   H3014     1.0  0.81370  0.66308  0.76637  1.0000
  C   C3759     1.0  0.88714  0.94783  0.94313  1.0000
  C   C3760     1.0  0.95403  0.82272  0.84622  1.0000
  C   C3761     1.0  0.75160  0.73344  0.76850  1.0000
  H   H3015     1.0  0.91380  0.78069  0.70187  1.0000
  H   H3016     1.0  0.77318  0.88303  0.95290  1.0000
  C   C3762     1.0  0.96628  0.81093  0.83620  1.0000
  C   C3763     1.0  0.83741  0.74378  0.84382  1.0000
  C   C3764     1.0  0.82344  0.69798  0.79289  1.0000
  H   H3017     1.0  0.80524  0.75768  0.83100  1.0000
  H   H3018     1.0  0.82044  0.68719  0.79103  1.0000
  H   H3019     1.0  0.85893  0.81749  0.81791  1.0000
  C   C3765     1.0  0.75958  0.72767  0.73790  1.0000
  P   P126      1.0  0.83659  0.74414  0.79806  1.0000
  C   C3766     1.0  0.83140  0.72622  0.79497  1.0000
  C   C3767     1.0  0.75893  0.71049  0.62033  1.0000
  H   H3020     1.0  0.94866  0.70825  0.85086  1.0000
  C   C3768     1.0  0.80905  0.70465  0.56630  1.0000
  C   C3769     1.0  0.81260  0.69678  0.50938  1.0000
  H   H3021     1.0  0.82965  0.94190  0.93312  1.0000
  C   C3770     1.0  0.83900  0.69902  0.78891  1.0000
  C   C3771     1.0  0.84298  0.71304  0.79009  1.0000
  H   H3022     1.0  0.92104  0.71556  0.84609  1.0000
  C   C3772     1.0  0.81065  0.70854  0.52933  1.0000
  H   H3023     1.0  0.85508  0.71359  0.78687  1.0000
  H   H3024     1.0  0.84799  0.68898  0.78407  1.0000
  C   C3773     1.0  0.97728  0.81054  0.88789  1.0000
  H   H3025     1.0  0.74415  0.84155  0.76541  1.0000
  C   C3774     1.0  0.74825  0.67713  0.92253  1.0000
  H   H3026     1.0  0.82169  0.70727  0.65801  1.0000
  H   H3027     1.0  0.76867  0.84999  0.87087  1.0000
  C   C3775     1.0  0.89137  0.76965  0.89712  1.0000
  C   C3776     1.0  0.81019  0.71389  0.65510  1.0000
  C   C3777     1.0  0.82225  0.76054  0.78295  1.0000
  S   S508      1.0  0.74426  0.80341  0.68085  1.0000
  C   C3778     1.0  0.82215  0.65283  0.76067  1.0000
  C   C3779     1.0  0.83789  0.74325  0.91535  1.0000
  H   H3028     1.0  0.84537  0.71848  0.91888  1.0000
  C   C3780     1.0  0.74023  0.78523  0.49923  1.0000
  P   P127      1.0  0.76504  0.70807  0.68808  1.0000
  C   C3781     1.0  0.88192  0.71651  0.94049  1.0000
  C   C3782     1.0  0.80785  0.76437  0.80477  1.0000
  C   C3783     1.0  0.93367  0.71288  0.93591  1.0000
  C   C3784     1.0  0.76611  0.67714  0.68297  1.0000
  C   C3785     1.0  0.84207  0.72942  0.90175  1.0000
  H   H3029     1.0  0.86917  0.87251  0.73033  1.0000
  S   S509      1.0  0.76003  0.78319  0.74914  1.0000
  C   C3786     1.0  0.84186  0.72967  0.86610  1.0000
  C   C3787     1.0  0.79710  0.70753  0.67167  1.0000
  P   P128      1.0  0.80891  0.72867  0.50862  1.0000
  H   H3030     1.0  0.82519  0.92088  0.90699  1.0000
  H   H3031     1.0  0.89542  0.69315  0.94301  1.0000
  S   S510      1.0  0.86382  0.94808  0.88305  1.0000
  H   H3032     1.0  0.89777  0.77624  0.90680  1.0000
  C   C3788     1.0  0.82507  0.76916  0.74869  1.0000
  C   C3789     1.0  0.75621  0.78547  0.55434  1.0000
  H   H3033     1.0  0.78523  0.77927  0.80876  1.0000
  H   H3034     1.0  0.90454  0.78257  0.81281  1.0000
  C   C3790     1.0  0.75645  0.78283  0.49317  1.0000
  C   C3791     1.0  0.78219  0.71623  0.66872  1.0000
  H   H3035     1.0  0.76589  0.81694  0.54634  1.0000
  C   C3792     1.0  0.75934  0.66665  0.90425  1.0000
  C   C3793     1.0  0.90470  0.96521  0.91289  1.0000
  C   C3794     1.0  0.94214  0.74687  0.97308  1.0000
  H   H3036     1.0  0.83574  0.76611  0.73077  1.0000
  C   C3795     1.0  0.78819  0.73564  0.51329  1.0000
  C   C3796     1.0  0.74473  0.89875  0.83880  1.0000
  C   C3797     1.0  0.77851  0.88937  0.81323  1.0000
  C   C3798     1.0  0.77501  0.85977  0.94452  1.0000
  H   H3037     1.0  0.81471  0.87534  0.77129  1.0000
  Fe  Fe255     1.0  0.86066  0.97466  0.87098  1.0000
  C   C3799     1.0  0.80503  0.88360  0.78214  1.0000
  C   C3800     1.0  0.75589  0.74571  0.52107  1.0000
  H   H3038     1.0  0.76853  0.87772  0.76210  1.0000
  H   H3039     1.0  0.90964  0.72011  0.95644  1.0000
  H   H3040     1.0  0.77936  0.68866  0.74646  1.0000
  C   C3801     1.0  0.81002  0.68918  0.58306  1.0000
  H   H3041     1.0  0.76045  0.68155  0.66019  1.0000
  H   H3042     1.0  0.84679  0.68506  0.51674  1.0000
  C   C3802     1.0  0.81694  0.90763  0.95733  1.0000
  H   H3043     1.0  0.74350  0.75013  0.52342  1.0000
  C   C3803     1.0  0.81380  0.78155  0.73667  1.0000
  H   H3044     1.0  0.79008  0.86697  0.80022  1.0000
  H   H3045     1.0  0.76921  0.73848  0.64724  1.0000
  H   H3046     1.0  0.81448  0.77318  0.55752  1.0000
  H   H3047     1.0  0.85518  0.95693  0.95094  1.0000
  C   C3804     1.0  0.81246  0.67746  0.56306  1.0000
  C   C3805     1.0  0.79947  0.78510  0.75827  1.0000
  Fe  Fe256     1.0  0.76022  0.78642  0.64745  1.0000
  H   H3048     1.0  0.77699  0.83800  0.92771  1.0000
  C   C3806     1.0  0.89148  0.67302  0.50320  1.0000
  C   C3807     1.0  0.83234  0.96886  0.96917  1.0000
  C   C3808     1.0  0.77154  0.87594  0.93540  1.0000
  C   C3809     1.0  0.73979  0.65375  0.85263  1.0000
  C   C3810     1.0  0.98112  0.77453  0.92482  1.0000
  H   H3049     1.0  0.91191  0.96993  0.88897  1.0000
  C   C3811     1.0  0.74544  0.85978  0.83211  1.0000
  H   H3050     1.0  0.89829  0.94879  0.88861  1.0000
  S   S511      1.0  0.75542  0.76523  0.68753  1.0000
  C   C3812     1.0  0.76435  0.78314  0.52040  1.0000
  C   C3813     1.0  0.76107  0.86985  0.77732  1.0000
  H   H3051     1.0  0.79055  0.79420  0.74810  1.0000
  C   C3814     1.0  0.91794  0.71709  0.93340  1.0000
  H   H3052     1.0  0.75479  0.74323  0.77530  1.0000
  C   C3815     1.0  0.86988  0.72642  0.95862  1.0000
  H   H3053     1.0  0.93731  0.71270  0.96061  1.0000
  C   C3816     1.0  0.98544  0.80822  0.95785  1.0000
  H   H3054     1.0  0.94495  0.82720  0.83033  1.0000
  C   C3817     1.0  0.88593  0.70089  0.95625  1.0000
  H   H3055     1.0  0.81589  0.78805  0.71004  1.0000
  C   C3818     1.0  0.95341  0.82854  0.87686  1.0000
  H   H3056     1.0  0.96659  0.80630  0.81263  1.0000
  C   C3819     1.0  0.75525  0.71537  0.72812  1.0000
  C   C3820     1.0  0.74000  0.78782  0.56044  1.0000
  C   C3821     1.0  0.77667  0.68106  0.73150  1.0000
  C   C3822     1.0  0.76393  0.65146  0.92128  1.0000
  C   C3823     1.0  0.82250  0.92036  0.93542  1.0000
  C   C3824     1.0  0.82479  0.93231  0.95018  1.0000
  C   C3825     1.0  0.76889  0.85741  0.88903  1.0000
  C   C3826     1.0  0.96501  0.82254  0.89759  1.0000
  H   H3057     1.0  0.94384  0.83762  0.88461  1.0000
  S   S512      1.0  0.80553  0.86797  0.97746  1.0000
  H   H3058     1.0  0.76477  0.89540  0.89572  1.0000
  C   C3827     1.0  0.74985  0.71538  0.59373  1.0000
  H   H3059     1.0  0.96423  0.82719  0.92125  1.0000
  H   H3060     1.0  0.77687  0.78135  0.51525  1.0000
  H   H3061     1.0  0.80176  0.76032  0.52548  1.0000
  C   C3828     1.0  0.75683  0.85978  0.76006  1.0000
  H   H3062     1.0  0.75461  0.71291  0.56728  1.0000
  H   H3063     1.0  0.91827  0.84992  0.93869  1.0000
  C   C3829     1.0  0.77592  0.65506  0.72518  1.0000
  C   C3830     1.0  0.75582  0.86957  0.81381  1.0000
  C   C3831     1.0  0.89266  0.96598  0.97407  1.0000
  C   C3832     1.0  0.88461  0.95428  0.97397  1.0000
  C   C3833     1.0  0.74300  0.70869  0.74976  1.0000
  H   H3064     1.0  0.81557  0.67220  0.51064  1.0000
  C   C3834     1.0  0.73777  0.72240  0.66148  1.0000
  H   H3065     1.0  0.82938  0.97225  0.94288  1.0000
  H   H3066     1.0  0.90334  0.64758  0.61928  1.0000
  C   C3835     1.0  0.93536  0.79400  0.96443  1.0000
  C   C3836     1.0  0.81221  0.64846  0.65949  1.0000
  C   C3837     1.0  0.98265  0.75848  0.92857  1.0000
  H   H3067     1.0  0.75052  0.90923  0.78383  1.0000
  H   H3068     1.0  0.94372  0.78385  0.95754  1.0000
  H   H3069     1.0  0.74075  0.85981  0.85991  1.0000
  C   C3838     1.0  0.97466  0.80103  0.98383  1.0000
  C   C3839     1.0  0.87785  0.69521  0.98934  1.0000
  H   H3070     1.0  0.77922  0.85444  0.96906  1.0000
  H   H3071     1.0  0.73807  0.82790  0.56307  1.0000
  C   C3840     1.0  0.87238  0.82405  0.98126  1.0000
  H   H3072     1.0  0.97047  0.79137  0.97936  1.0000
