data_image0
_chemical_formula_structural       C5PSHFeS2FeS2FeSFeS3HCFeS2FeCS2FeS2FeS2FeSFeS3C3HCH2C4HC7H7C2H2C6H4C4HCH2CHC6H4CHCHC4PC3H2C5HC7H11CPCH5CHCHCHCHC2H2CHC3H2PC13HCHC2HC2HCH3FeH4FeHCH4CH3C2HC3HCSHC2HCH4CHCH2CHCHCSH2CHCHCSC2H2CH2CH5C10H2C2H2CHCFeH4CH2CPC2HC2HCPC14H2C2HCHC2H3C2SH2CHCH2C3H3C2HCH6CH3C3HSFeS2FeS2FeSFeS3FeS2FeCFeSHSCFeS2FeS2FeSFeS3C3H4C6H4C3HC3HC9H5CHCH2C6H5CH2C7PC18H22CH3CH2CHCH5C2HSC9PHC2SC15H4C2FeCHC2H7CH2CH2C9PC18HCH22C2H3CHCH2CHC2H5CHCHCH2C3H2CHCHC2HCHCH5CHC4HC6H2C5HC3H3CH2CHC2HCH4C6H3C3HCH2CHCFeS2FeS2FeSFeS3CSFeS2FeS2FeSFeS3FeSHSCHCHC5H4C7H4C2HCHCHC7H4C4H3C6H4C4HC4PC18H17CH2CHPC7HC5H5C2FeSH5C3H2SC3HC2H3C2H3C6PC18H20C2PC11H2CH6CH3CH4C2HSHC2SC2H3C5HCPC2HFeHC14H3CSCH9CH2CHCHC5H2CHC5HCHC3SCH3CH2CHPC3HCHC3HC2HC4H3CHCFeHPH2CHCHFeS2FeS2FeSFeS3HSCFeS2FeS2FeSFeS3FeS2FeHFeH2SC3H3C3SHC6H4C3H2C6H4C6H4CH2C2H3C2H2CHC4H2C3FeHC2H2CH2CHCH5C4HSHCHC5H2CH2CHPH3C6H2PHCHC2HCHCHCH2C5H2C2H4CH2C6HCH6CH2C3HC8PCH3CHCHCPC8H5C5HCHCH8CHC2HCHC2H3CH2C6PC2HC4H3CHC2H2CHC5H2CHC3HCHC2HCHC2HC4H2CHCH3SCHC2SCHCHCH3CHCH2C3H2CHCH2CHC2HCFeSCSFeS2FeS2FeSFeS3FeCFeS2FeS2CFeS2FeS2FeSFeS3C4HC4H3C7H4C4H2C6H4C2SCHCHC6H4CH2SHC2PC12H10C7PC3H2C13H5C2H11CH4C6PC18H20PHC2HC2FePCH2C7HCH3CHSH4CHC2HCHCHCHCHC2HC2SHC3H3CH3C3H3CH2SCH2C3HCFeC4HC7HCHC4HC2H3C3HCHCH4CH2CHC2H5C3HC2HPHCHC2HCH2CH3CHC3HCH4CHC5H3CPH3C2HCHC2HC2H3C2HCHCS2FeS2FeS2FeSFeS3PSFeS2FeS2FeSFeS3C5HCHCHC6H4C3HC6H5C2H3CH2C7H5C2HCHCHCHC2H2C2H2CHC3H2C3H2C3HC2H2CH3C3HC3HC3HCH2CH4C2H4CHCHCSHC3HCH2C2SHCHCHC2H2CHCH3C2H2C2HC4H4CHC4FeC4HCHC3HCHCH3C2HCH4CHC2HCHC2HC2HC2HCHCH2C5PCH2PC4HPC3H6PFeHC2HCHC2H3C2HC4FeS2FeS2FeSFeS3H2SFeS2FeS2FeSFeS3C5FeSH9C6H5C3H3C6H3C6H4C2H3C6H4C4H3C5PC2H3C9HC3H2CHCH3C2H5C2HC4PC16H15CHCHCH2CH4C2H8PHC6HC3H3CSHCH8PHCHCH3C4HC2HCH3C4HC3PH3CHCH3CHC3HC5HC2H6C2HC7HC2PC2HCH3C11HC2H3C4H4FeH4C7PC2H2C14H2CH2C2H11C6PC11H4CHCHCHC3HCHCHC2H2C2FeS2FeS2FeSFeS4CSCFeSFeS2FeS2FeS2FeSFeCS2FeSH2CFe2S2C4H2C3PCHCHC8H5C2H3CHC6H6CH2CH2C7H5CHC2H2C3PCHC4H3C2H2CHC2H4CH2CHC2HCHCHCHFeC6HC2H3CH3C8HC5HCH3CPC2HCH5C7H2C3SC6H2CHCHCH3CHCH3C6PC18H17C2H3CHC2HCH2SHC2H5C2HC2H2C3HC3H3CSCPCSHC3HCHC2H3CH3C7HSCHCFeSCFeS2FeS2FeSFeS3CHSFeS2FeS2FeSFeS3C2HCH3C2H2C6H6C6H4C2HC2HC5HCH2C6H7C2H2C7HCHC2H3C2HC2HCH2C2H5CHCH2C2SC2H2CH2C6PC8HCH2CHCHCH4CH3CHCH3C3PCSC3PC2H2C12HC2HC3H11CHC3H2CHCH3C2H2C3H3C4FeH3C5HCHC2HC2HC4HCSCH3CFeHPHCHC4HC6PC18H19C2HCPH3CHC3HPC4H2CHCH6C6H2CPCH3CHCHFeSFeHSFeHS2FeS2FeS2FeSFeS3HSC3FeSHFeS2FeS2FeSFeS3C2H2C10H4CH3C6H4C3HPHC7H4C2H3CH2PC3H3CPC2H2SC2HCHC6SCHC2H5CHCHCH2C2H5C2SCHC2HPHC2H2C3H2CHC2H3C5PH3CHCH6CHC19H11CHC3HC19HSC2HC2H9CH2CHCPH3C2H2CHC3H2C4HC3H4PCHC2HC5HC2HC3HC3H2CH7CHCH2C2H2C2H2C4FeS2FeS2FeSFeS3FeHSFeSH3S2FeS2FeS2FeSFeS3FeSCHC7H4C3H3CHC4HC6H4C4HCH2CHC2HCHC6H2C3H2C2PHC4HPC9H2C4H10C3HC3H4CHC3HCH2C3H2CH2C2H2CSHCHC2P2C19HC2H10C2H2CH4CH2C6HCH4C4HCH2C6PC5HC12H2CH3CH14CHPCH3C2HCH2C3HC4H4CH5C6H2C2SC2HCH2CHC2H2CH3CHC2HCFeCH3C3HCHC2SH2CHCHC2H2PCH2CH4C4HCHC4FeS2FeS2FeSFeS4FeSFeS2FeS2FeCFeS3H2SC5HC6H5SC2H3C2HC8H4C6H4CHC5H5C3HC7PC18H21CPH2C2HC3H2C3H2C3H5C2H2CH3CSC2HC2HC2PC3HC9H4C2H2CH2C2HCH5CH4C2FeCH2C2HC2HC2H3C3HCHCHC5SH2C2H10CHC2HCHC3HCFeH4CH4CPCHC5H2CHC2H2C5SHC2H3C2HCHC2FeS2FeS2FeS2FeSFeS3C2SFeS2FeS2FeSFeS3H3CH2C4H4C6H5C6H4C7H2CHC2H4C6H4CH2C8H2C7PC18H20C3HCHCH3CHCH2C2H5C2H3C2HCHCH3C8HCHPC2HCPC2HCH3CH2CHCHCH2C2HCHC10HCHC2HCHPCH3CHC2H2C2PHC5HCHC2H2CH2C3H5CHCHC4HC5HC2HCH2CHCS2CSHPC2H3CHCHCHC2HCHC2H2CHC6FeHCH2FeCSCHCFeS2FeS2FeSCFeSFeS3FeSCSFeS2FeS2FeSFeS3HC2HC6H4SHC9H5CH2C3HC6H4C2H3C2HC6HCH2CH4CHCH2C3SCH3FeC3HCHC3HC2H4C6PC18H21C4H5C2HC2PC3SCPCHPFeCHCH3C3H8C9HCH4C6H2C10H9C2SHC2HC4HPCH3C3HC3HCH3C2H8CHCH3CH2C7FeC3H7CHCHC2HSC7H5CHC2HC2HCH2C3HCSC2HFeS2FeS2FeSFeS3FeS2FeSFeS2HFeS2FeS2FeSFeS3CHSHFeSCH2CHC2HC6H4C4H4C4HC9H4C6H4C3HC5H3CHCH5CH2C2HPC5H2CH3SCHC4PC18HSH18CH2C2H3C2HC4HC2H3PHC2H2FeC6PC16HCH6PCH9C5HC3PC5H2C2HFeHC6HC2HCH4CH2C3SH4C2HCHCHC3H5C3SCHC2H2C6H4CH2C7H5CHC2H2CHCHSC2H2CHCHCH3FeS2FeS2FeSFeS3FeCSC2HPSHFeS2FeS2FeSFeS3HSC2HCH2C2H2C6H5C2H2CHC10H4C2HC6H4C3H3CHCHCH2C4H4C2HC3HC2HCPC5HCH2C4HC2HCH2CHCHCH2CHC3HCH4C3H3C5HCH2C3H2CHSH3CHC5H4C6PC18H20CH2CHCH2CH2C4PH2PC2H2CH3CHC3H2CPC6PC8SC3HC6H8CH5C3FeCH3CH2C3HC2H4CHCSHC2H2C2HCSCHCH4CHFeC
_chemical_formula_sum              "C2880 P96 S384 H2304 Fe192"
_cell_length_a       53.9503
_cell_length_b       54.0327
_cell_length_c       88.3345
_cell_angle_alpha    86.1806
_cell_angle_beta     87.6629
_cell_angle_gamma    89.2421

_space_group_name_H-M_alt    "P 1"
_space_group_IT_number       1

loop_
  _space_group_symop_operation_xyz
  'x, y, z'

loop_
  _atom_site_type_symbol
  _atom_site_label
  _atom_site_symmetry_multiplicity
  _atom_site_fract_x
  _atom_site_fract_y
  _atom_site_fract_z
  _atom_site_occupancy
  C   C1        1.0  0.25240  0.30349  0.05702  1.0000
  C   C2        1.0  0.47548  0.10109  0.14860  1.0000
  C   C3        1.0  0.20968  0.48565  0.16888  1.0000
  C   C4        1.0  0.11296  0.33611  0.21097  1.0000
  C   C5        1.0  0.25815  0.08943  0.22977  1.0000
  P   P1        1.0  0.26497  0.16236  0.23899  1.0000
  S   S1        1.0  0.42093  0.02939  0.08455  1.0000
  H   H1        1.0  0.17539  0.37053  0.23761  1.0000
  Fe  Fe1       1.0  0.38156  0.14675  0.13636  1.0000
  S   S2        1.0  0.40135  0.18332  0.13715  1.0000
  S   S3        1.0  0.37717  0.12750  0.11405  1.0000
  Fe  Fe2       1.0  0.36713  0.14588  0.17049  1.0000
  S   S4        1.0  0.38660  0.18154  0.17360  1.0000
  S   S5        1.0  0.34379  0.12459  0.18904  1.0000
  Fe  Fe3       1.0  0.36844  0.19583  0.15199  1.0000
  S   S6        1.0  0.35103  0.23565  0.15014  1.0000
  Fe  Fe4       1.0  0.41772  0.16643  0.15867  1.0000
  S   S7        1.0  0.45819  0.16102  0.16597  1.0000
  S   S8        1.0  0.34775  0.16050  0.14954  1.0000
  S   S9        1.0  0.39901  0.12947  0.15716  1.0000
  H   H2        1.0  0.10944  0.42502  0.11625  1.0000
  C   C6        1.0  0.10730  0.28415  0.23810  1.0000
  Fe  Fe5       1.0  0.05582  0.36423  0.06339  1.0000
  S   S10       1.0  0.03564  0.33696  0.04994  1.0000
  S   S11       1.0  0.09515  0.36287  0.07258  1.0000
  Fe  Fe6       1.0  0.02851  0.36867  0.03236  1.0000
  C   C7        1.0  0.26881  0.38423  0.12681  1.0000
  S   S12       1.0  0.05089  0.39482  0.04519  1.0000
  S   S13       1.0  0.02170  0.37487  0.07687  1.0000
  Fe  Fe7       1.0  0.22437  0.33384  0.15781  1.0000
  S   S14       1.0  0.18593  0.32813  0.16878  1.0000
  S   S15       1.0  0.24766  0.29703  0.15752  1.0000
  Fe  Fe8       1.0  0.21351  0.39055  0.15232  1.0000
  S   S16       1.0  0.17517  0.38765  0.16291  1.0000
  S   S17       1.0  0.22688  0.42834  0.14178  1.0000
  Fe  Fe9       1.0  0.19275  0.36250  0.18081  1.0000
  S   S18       1.0  0.18325  0.37024  0.20537  1.0000
  Fe  Fe10      1.0  0.17125  0.35373  0.14981  1.0000
  S   S19       1.0  0.13321  0.34573  0.14036  1.0000
  S   S20       1.0  0.23177  0.36726  0.17107  1.0000
  S   S21       1.0  0.20891  0.35753  0.13799  1.0000
  C   C8        1.0  0.17861  0.34586  0.21942  1.0000
  C   C9        1.0  0.17784  0.32118  0.21566  1.0000
  C   C10       1.0  0.17356  0.30223  0.22709  1.0000
  H   H3        1.0  0.40996  0.06689  0.16850  1.0000
  C   C11       1.0  0.06743  0.37172  0.15715  1.0000
  H   H4        1.0  0.18045  0.31669  0.20394  1.0000
  H   H5        1.0  0.17282  0.28320  0.22411  1.0000
  C   C12       1.0  0.07335  0.40913  0.11711  1.0000
  C   C13       1.0  0.21262  0.46155  0.16366  1.0000
  C   C14       1.0  0.22086  0.45837  0.14866  1.0000
  C   C15       1.0  0.09145  0.42583  0.11128  1.0000
  H   H6        1.0  0.20907  0.44544  0.17134  1.0000
  C   C16       1.0  0.17762  0.47188  0.10840  1.0000
  C   C17       1.0  0.10474  0.35985  0.09171  1.0000
  C   C18       1.0  0.08924  0.35003  0.10362  1.0000
  C   C19       1.0  0.09823  0.34599  0.11838  1.0000
  C   C20       1.0  0.12262  0.35229  0.12159  1.0000
  C   C21       1.0  0.13796  0.36274  0.10976  1.0000
  C   C22       1.0  0.12916  0.36616  0.09489  1.0000
  H   H7        1.0  0.07060  0.34479  0.10133  1.0000
  H   H8        1.0  0.08629  0.33746  0.12727  1.0000
  H   H9        1.0  0.15682  0.36750  0.11197  1.0000
  H   H10       1.0  0.14143  0.37352  0.08574  1.0000
  H   H11       1.0  0.18067  0.40952  0.10527  1.0000
  H   H12       1.0  0.38129  0.03374  0.13013  1.0000
  H   H13       1.0  0.27386  0.32247  0.03879  1.0000
  C   C23       1.0  0.02047  0.46553  0.06026  1.0000
  C   C24       1.0  0.04295  0.46264  0.05212  1.0000
  H   H14       1.0  0.20618  0.32640  0.08565  1.0000
  H   H15       1.0  0.04968  0.44448  0.04966  1.0000
  C   C25       1.0  0.32205  0.25212  0.15288  1.0000
  C   C26       1.0  0.29924  0.24015  0.15559  1.0000
  C   C27       1.0  0.27688  0.25410  0.15711  1.0000
  C   C28       1.0  0.27679  0.28030  0.15607  1.0000
  C   C29       1.0  0.29969  0.29224  0.15372  1.0000
  C   C30       1.0  0.32196  0.27830  0.15200  1.0000
  H   H16       1.0  0.29882  0.22013  0.15611  1.0000
  H   H17       1.0  0.25945  0.24448  0.15894  1.0000
  H   H18       1.0  0.30029  0.31226  0.15311  1.0000
  H   H19       1.0  0.33936  0.28793  0.14996  1.0000
  C   C31       1.0  0.35249  0.12441  0.20817  1.0000
  C   C32       1.0  0.33693  0.11338  0.21983  1.0000
  C   C33       1.0  0.38162  0.13406  0.22712  1.0000
  C   C34       1.0  0.37478  0.13487  0.21191  1.0000
  H   H20       1.0  0.31967  0.10516  0.21704  1.0000
  C   C35       1.0  0.11364  0.45662  0.07033  1.0000
  H   H21       1.0  0.38697  0.14333  0.20305  1.0000
  H   H22       1.0  0.07218  0.33259  0.15465  1.0000
  C   C36       1.0  0.46459  0.12250  0.10853  1.0000
  H   H23       1.0  0.46627  0.05058  0.09307  1.0000
  C   C37       1.0  0.38903  0.09965  0.10636  1.0000
  C   C38       1.0  0.38093  0.09311  0.09220  1.0000
  C   C39       1.0  0.39028  0.07172  0.08538  1.0000
  C   C40       1.0  0.40796  0.05647  0.09264  1.0000
  C   C41       1.0  0.41605  0.06300  0.10683  1.0000
  C   C42       1.0  0.40662  0.08433  0.11366  1.0000
  H   H24       1.0  0.36738  0.10479  0.08639  1.0000
  H   H25       1.0  0.38389  0.06717  0.07447  1.0000
  H   H26       1.0  0.42978  0.05153  0.11258  1.0000
  H   H27       1.0  0.41320  0.08920  0.12445  1.0000
  C   C43       1.0  0.05671  0.48353  0.04693  1.0000
  H   H28       1.0  0.07784  0.39537  0.12608  1.0000
  C   C44       1.0  0.27542  0.36086  0.13322  1.0000
  H   H29       1.0  0.34243  0.22354  0.19302  1.0000
  C   C45       1.0  0.17392  0.48157  0.21394  1.0000
  C   C46       1.0  0.25222  0.36505  0.10541  1.0000
  C   C47       1.0  0.25946  0.34155  0.11157  1.0000
  C   C48       1.0  0.27053  0.33960  0.12571  1.0000
  P   P2        1.0  0.25140  0.31403  0.10245  1.0000
  C   C49       1.0  0.21879  0.30948  0.10698  1.0000
  C   C50       1.0  0.25804  0.31740  0.08225  1.0000
  C   C51       1.0  0.24684  0.30153  0.07266  1.0000
  H   H30       1.0  0.19383  0.44814  0.20868  1.0000
  H   H31       1.0  0.29471  0.34980  0.05573  1.0000
  C   C52       1.0  0.28119  0.33646  0.06044  1.0000
  C   C53       1.0  0.27564  0.33455  0.07608  1.0000
  C   C54       1.0  0.21107  0.29968  0.12149  1.0000
  C   C55       1.0  0.18582  0.29751  0.12550  1.0000
  C   C56       1.0  0.16808  0.30510  0.11503  1.0000
  H   H32       1.0  0.15614  0.47456  0.21101  1.0000
  C   C57       1.0  0.20083  0.31764  0.09664  1.0000
  C   C58       1.0  0.27017  0.28776  0.10889  1.0000
  C   C59       1.0  0.29585  0.29052  0.11011  1.0000
  C   C60       1.0  0.31069  0.27019  0.11470  1.0000
  C   C61       1.0  0.30009  0.24689  0.11786  1.0000
  C   C62       1.0  0.27463  0.24386  0.11641  1.0000
  C   C63       1.0  0.25972  0.26416  0.11182  1.0000
  H   H33       1.0  0.28365  0.35915  0.14423  1.0000
  H   H34       1.0  0.18351  0.22982  0.21769  1.0000
  H   H35       1.0  0.33038  0.27248  0.11612  1.0000
  H   H36       1.0  0.27479  0.32164  0.13114  1.0000
  H   H37       1.0  0.23387  0.28757  0.07729  1.0000
  H   H38       1.0  0.09578  0.38072  0.22522  1.0000
  H   H39       1.0  0.36561  0.01871  0.08556  1.0000
  H   H40       1.0  0.41658  0.04358  0.14529  1.0000
  H   H41       1.0  0.28532  0.34628  0.08332  1.0000
  H   H42       1.0  0.22459  0.29419  0.12982  1.0000
  H   H43       1.0  0.17999  0.29051  0.13685  1.0000
  C   C64       1.0  0.35508  0.01256  0.09582  1.0000
  P   P3        1.0  0.10975  0.46296  0.09011  1.0000
  C   C65       1.0  0.19517  0.46667  0.21263  1.0000
  H   H44       1.0  0.30440  0.30844  0.10768  1.0000
  H   H45       1.0  0.25105  0.40443  0.10840  1.0000
  H   H46       1.0  0.07406  0.48135  0.04058  1.0000
  H   H47       1.0  0.26645  0.22581  0.11900  1.0000
  H   H48       1.0  0.24011  0.26134  0.11058  1.0000
  C   C66       1.0  0.99408  0.33862  0.12374  1.0000
  H   H49       1.0  0.31914  0.16346  0.23205  1.0000
  C   C67       1.0  0.17558  0.31509  0.10060  1.0000
  H   H50       1.0  0.05806  0.45644  0.08374  1.0000
  C   C68       1.0  0.21822  0.47586  0.21606  1.0000
  H   H51       1.0  0.42817  0.12713  0.07796  1.0000
  C   C69       1.0  0.46322  0.10745  0.07887  1.0000
  H   H52       1.0  0.02905  0.35262  0.11396  1.0000
  C   C70       1.0  0.29399  0.34294  0.21873  1.0000
  C   C71       1.0  0.46628  0.07978  0.14287  1.0000
  H   H53       1.0  0.13833  0.48205  0.03678  1.0000
  H   H54       1.0  0.44647  0.07682  0.14321  1.0000
  C   C72       1.0  0.48260  0.06275  0.13647  1.0000
  H   H55       1.0  0.27202  0.40069  0.13282  1.0000
  C   C73       1.0  0.01836  0.31990  0.10359  1.0000
  C   C74       1.0  0.26597  0.01269  0.16737  1.0000
  C   C75       1.0  0.34927  0.02925  0.10687  1.0000
  H   H56       1.0  0.23474  0.46444  0.21474  1.0000
  H   H57       1.0  0.02621  0.42725  0.09430  1.0000
  P   P4        1.0  0.26243  0.27425  0.22238  1.0000
  C   C76       1.0  0.23563  0.26500  0.21258  1.0000
  C   C77       1.0  0.26685  0.30729  0.21945  1.0000
  C   C78       1.0  0.24699  0.32316  0.21554  1.0000
  C   C79       1.0  0.25073  0.34867  0.21298  1.0000
  C   C80       1.0  0.27423  0.35855  0.21447  1.0000
  C   C81       1.0  0.48305  0.04176  0.09720  1.0000
  C   C82       1.0  0.29029  0.31740  0.22130  1.0000
  C   C83       1.0  0.23296  0.27312  0.19729  1.0000
  C   C84       1.0  0.21245  0.26597  0.18951  1.0000
  C   C85       1.0  0.19461  0.25041  0.19684  1.0000
  C   C86       1.0  0.19737  0.24183  0.21196  1.0000
  C   C87       1.0  0.21778  0.24907  0.21981  1.0000
  C   C88       1.0  0.28836  0.25828  0.21354  1.0000
  H   H58       1.0  0.28228  0.08865  0.09263  1.0000
  C   C89       1.0  0.22549  0.47970  0.13893  1.0000
  H   H59       1.0  0.13964  0.41800  0.09445  1.0000
  C   C90       1.0  0.32000  0.25677  0.19318  1.0000
  C   C91       1.0  0.30040  0.26915  0.20037  1.0000
  H   H60       1.0  0.24239  0.36688  0.09494  1.0000
  C   C92       1.0  0.01027  0.46390  0.00630  1.0000
  C   C93       1.0  0.48877  0.05317  0.05796  1.0000
  H   H61       1.0  0.32096  0.20363  0.21586  1.0000
  C   C94       1.0  0.05149  0.39221  0.15532  1.0000
  H   H62       1.0  0.22864  0.31593  0.21436  1.0000
  H   H63       1.0  0.23539  0.36076  0.20970  1.0000
  H   H64       1.0  0.27710  0.37830  0.21228  1.0000
  Fe  Fe11      1.0  0.41358  0.00289  0.06566  1.0000
  H   H65       1.0  0.05208  0.31975  0.21158  1.0000
  H   H66       1.0  0.24664  0.28512  0.19136  1.0000
  H   H67       1.0  0.21041  0.27260  0.17776  1.0000
  H   H68       1.0  0.21948  0.24214  0.23146  1.0000
  Fe  Fe12      1.0  0.00071  0.35050  0.06240  1.0000
  H   H69       1.0  0.08598  0.37395  0.16115  1.0000
  C   C95       1.0  0.06095  0.45969  0.01229  1.0000
  H   H70       1.0  0.32933  0.26529  0.18309  1.0000
  H   H71       1.0  0.29452  0.28708  0.19546  1.0000
  H   H72       1.0  0.14849  0.30386  0.11824  1.0000
  H   H73       1.0  0.36750  0.07977  0.17659  1.0000
  C   C96       1.0  0.29561  0.23433  0.21894  1.0000
  H   H74       1.0  0.33177  0.06970  0.16172  1.0000
  H   H75       1.0  0.17866  0.24507  0.19079  1.0000
  H   H76       1.0  0.29458  0.13044  0.09953  1.0000
  C   C97       1.0  0.49296  0.19269  0.15049  1.0000
  C   C98       1.0  0.48136  0.01935  0.10603  1.0000
  H   H77       1.0  0.24356  0.29129  0.04967  1.0000
  C   C99       1.0  0.04983  0.40967  0.11104  1.0000
  C   C100      1.0  0.10612  0.43383  0.06532  1.0000
  C   C101      1.0  0.25855  0.11536  0.22830  1.0000
  H   H78       1.0  0.46279  0.11445  0.15344  1.0000
  C   C102      1.0  0.17499  0.35143  0.23467  1.0000
  S   S22       1.0  0.03886  0.37210  0.00642  1.0000
  H   H79       1.0  0.46194  0.10142  0.06749  1.0000
  C   C103      1.0  0.12145  0.44602  0.03980  1.0000
  C   C104      1.0  0.17329  0.42830  0.10444  1.0000
  H   H80       1.0  0.25313  0.07911  0.22027  1.0000
  C   C105      1.0  0.11003  0.42861  0.05012  1.0000
  H   H81       1.0  0.39910  0.14195  0.22986  1.0000
  H   H82       1.0  0.10601  0.49269  0.11664  1.0000
  H   H83       1.0  0.18843  0.48688  0.11222  1.0000
  H   H84       1.0  0.03598  0.39650  0.11538  1.0000
  C   C106      1.0  0.34359  0.11296  0.23513  1.0000
  H   H85       1.0  0.12436  0.44191  0.02803  1.0000
  C   C107      1.0  0.12937  0.46855  0.04474  1.0000
  H   H86       1.0  0.47598  0.03152  0.04028  1.0000
  H   H87       1.0  0.25158  0.00529  0.17526  1.0000
  C   C108      1.0  0.10405  0.37742  0.23615  1.0000
  H   H88       1.0  0.33551  0.09785  0.13635  1.0000
  C   C109      1.0  0.07606  0.32397  0.19156  1.0000
  H   H89       1.0  0.20386  0.48781  0.18058  1.0000
  C   C110      1.0  0.07057  0.32443  0.20719  1.0000
  S   S23       1.0  0.38845  0.99534  0.00970  1.0000
  H   H90       1.0  0.48021  0.04101  0.06681  1.0000
  H   H91       1.0  0.36923  0.05298  0.23390  1.0000
  C   C111      1.0  0.09996  0.32965  0.18567  1.0000
  H   H92       1.0  0.38185  0.00901  0.23192  1.0000
  C   C112      1.0  0.11835  0.33580  0.19538  1.0000
  H   H93       1.0  0.24055  0.03469  0.15375  1.0000
  C   C113      1.0  0.02191  0.44048  0.00772  1.0000
  S   S24       1.0  0.00173  0.44013  0.06577  1.0000
  C   C114      1.0  0.06244  0.44353  0.09320  1.0000
  C   C115      1.0  0.04431  0.42700  0.09918  1.0000
  H   H94       1.0  0.29631  0.05125  0.10759  1.0000
  H   H95       1.0  0.13691  0.34023  0.19087  1.0000
  C   C116      1.0  0.29353  0.09050  0.10237  1.0000
  H   H96       1.0  0.46335  0.01102  0.10846  1.0000
  H   H97       1.0  0.31162  0.23130  0.12172  1.0000
  C   C117      1.0  0.46440  0.99530  0.00199  1.0000
  H   H98       1.0  0.00264  0.28764  0.09480  1.0000
  H   H99       1.0  0.09753  0.41982  0.07311  1.0000
  H   H100      1.0  0.10432  0.41087  0.04645  1.0000
  H   H101      1.0  0.31221  0.35060  0.21989  1.0000
  H   H102      1.0  0.03053  0.32727  0.14499  1.0000
  C   C118      1.0  0.29073  0.00573  0.16932  1.0000
  C   C119      1.0  0.26821  0.17353  0.21918  1.0000
  C   C120      1.0  0.25276  0.19264  0.21324  1.0000
  C   C121      1.0  0.25593  0.20176  0.19809  1.0000
  C   C122      1.0  0.27429  0.19165  0.18868  1.0000
  C   C123      1.0  0.28930  0.17220  0.19434  1.0000
  C   C124      1.0  0.28618  0.16308  0.20947  1.0000
  C   C125      1.0  0.48365  0.10755  0.10279  1.0000
  C   C126      1.0  0.02800  0.38948  0.14950  1.0000
  C   C127      1.0  0.31529  0.22203  0.21170  1.0000
  H   H103      1.0  0.28589  0.22490  0.22856  1.0000
  H   H104      1.0  0.30577  0.30549  0.22455  1.0000
  C   C128      1.0  0.01519  0.33837  0.11388  1.0000
  C   C129      1.0  0.32744  0.23322  0.19881  1.0000
  H   H105      1.0  0.46697  0.00530  0.23079  1.0000
  H   H106      1.0  0.25331  0.12474  0.21769  1.0000
  C   C130      1.0  0.04960  0.48305  0.01081  1.0000
  H   H107      1.0  0.32115  0.13462  0.12142  1.0000
  C   C131      1.0  0.26950  0.32102  0.05090  1.0000
  Fe  Fe13      1.0  0.01564  0.40356  0.05797  1.0000
  H   H108      1.0  0.23836  0.20070  0.22023  1.0000
  H   H109      1.0  0.24431  0.21683  0.19364  1.0000
  H   H110      1.0  0.27689  0.19885  0.17700  1.0000
  H   H111      1.0  0.30352  0.16423  0.18702  1.0000
  C   C132      1.0  0.36613  0.12315  0.23880  1.0000
  H   H112      1.0  0.27299  0.05169  0.13578  1.0000
  H   H113      1.0  0.46491  0.12828  0.12004  1.0000
  C   C133      1.0  0.48338  0.10032  0.08782  1.0000
  P   P5        1.0  0.08286  0.33035  0.23726  1.0000
  C   C134      1.0  0.30929  0.01531  0.15915  1.0000
  C   C135      1.0  0.25706  0.38632  0.11297  1.0000
  H   H114      1.0  0.35522  0.04831  0.10501  1.0000
  C   C136      1.0  0.18704  0.44765  0.10947  1.0000
  C   C137      1.0  0.08627  0.44280  0.09904  1.0000
  H   H115      1.0  0.10443  0.32920  0.17360  1.0000
  C   C138      1.0  0.04712  0.43845  0.01073  1.0000
  P   P6        1.0  0.32746  0.04397  0.13386  1.0000
  C   C139      1.0  0.35378  0.05075  0.14485  1.0000
  C   C140      1.0  0.31657  0.07160  0.12334  1.0000
  C   C141      1.0  0.32336  0.09533  0.12715  1.0000
  C   C142      1.0  0.31519  0.11642  0.11866  1.0000
  C   C143      1.0  0.30038  0.11404  0.10625  1.0000
  C   C144      1.0  0.02443  0.48521  0.00776  1.0000
  C   C145      1.0  0.30158  0.06936  0.11086  1.0000
  C   C146      1.0  0.35016  0.06356  0.15811  1.0000
  C   C147      1.0  0.37037  0.06923  0.16661  1.0000
  C   C148      1.0  0.39432  0.06197  0.16203  1.0000
  C   C149      1.0  0.39803  0.04893  0.14897  1.0000
  C   C150      1.0  0.37788  0.04338  0.14036  1.0000
  C   C151      1.0  0.30320  0.03194  0.14692  1.0000
  C   C152      1.0  0.48597  0.04785  0.04285  1.0000
  H   H116      1.0  0.06184  0.31905  0.18403  1.0000
  H   H117      1.0  0.12759  0.34046  0.21835  1.0000
  C   C153      1.0  0.25975  0.02924  0.15524  1.0000
  C   C154      1.0  0.27827  0.03885  0.14504  1.0000
  H   H118      1.0  0.47538  0.04635  0.13191  1.0000
  C   C155      1.0  0.08902  0.33059  0.21699  1.0000
  H   H119      1.0  0.29781  0.14776  0.21348  1.0000
  C   C156      1.0  0.00065  0.30139  0.10317  1.0000
  C   C157      1.0  0.44479  0.12980  0.09949  1.0000
  H   H120      1.0  0.01153  0.42368  0.00662  1.0000
  H   H121      1.0  0.16171  0.32148  0.09264  1.0000
  H   H122      1.0  0.20506  0.44391  0.11414  1.0000
  C   C158      1.0  0.44400  0.12209  0.08473  1.0000
  C   C159      1.0  0.12580  0.47370  0.06000  1.0000
  S   S25       1.0  0.43464  0.99914  0.04317  1.0000
  H   H123      1.0  0.05585  0.42030  0.01205  1.0000
  H   H124      1.0  0.08031  0.45803  0.01500  1.0000
  C   C160      1.0  0.05964  0.34838  0.15351  1.0000
  H   H125      1.0  0.03423  0.32021  0.09566  1.0000
  C   C161      1.0  0.33562  0.02153  0.12017  1.0000
  H   H126      1.0  0.42973  0.14097  0.10404  1.0000
  H   H127      1.0  0.05760  0.41033  0.15810  1.0000
  C   C162      1.0  0.15428  0.47678  0.10245  1.0000
  C   C163      1.0  0.14998  0.43313  0.09848  1.0000
  C   C164      1.0  0.01244  0.48917  0.06388  1.0000
  H   H128      1.0  0.99442  0.34764  0.99592  1.0000
  H   H129      1.0  0.42477  0.99813  0.14079  1.0000
  H   H130      1.0  0.23208  0.47758  0.12736  1.0000
  C   C165      1.0  0.03611  0.34552  0.14784  1.0000
  C   C166      1.0  0.02031  0.36616  0.14544  1.0000
  H   H131      1.0  0.47757  0.20129  0.14459  1.0000
  C   C167      1.0  0.13991  0.45727  0.09791  1.0000
  H   H132      1.0  0.99573  0.49139  0.07079  1.0000
  H   H133      1.0  0.11533  0.28952  0.22697  1.0000
  H   H134      1.0  0.32841  0.00974  0.16081  1.0000
  H   H135      1.0  0.01623  0.40570  0.14791  1.0000
  H   H136      1.0  0.41357  0.00097  0.11367  1.0000
  H   H137      1.0  0.44430  0.99587  0.00212  1.0000
  C   C168      1.0  0.48853  0.17303  0.16136  1.0000
  H   H138      1.0  0.12601  0.24865  0.23895  1.0000
  H   H139      1.0  0.13240  0.49107  0.06372  1.0000
  H   H140      1.0  0.12128  0.41328  0.23489  1.0000
  C   C169      1.0  0.32829  0.99663  0.12240  1.0000
  C   C170      1.0  0.26557  0.12887  0.24047  1.0000
  C   C171      1.0  0.19146  0.44133  0.29518  1.0000
  H   H141      1.0  0.11785  0.45591  0.45487  1.0000
  S   S26       1.0  0.45502  0.09003  0.38255  1.0000
  Fe  Fe14      1.0  0.36005  0.11739  0.31359  1.0000
  S   S27       1.0  0.32268  0.10009  0.31951  1.0000
  S   S28       1.0  0.38842  0.13455  0.32844  1.0000
  Fe  Fe15      1.0  0.35361  0.11287  0.27943  1.0000
  S   S29       1.0  0.31653  0.09460  0.28304  1.0000
  S   S30       1.0  0.37630  0.12225  0.25763  1.0000
  Fe  Fe16      1.0  0.30802  0.12424  0.29971  1.0000
  S   S31       1.0  0.27016  0.14481  0.29683  1.0000
  Fe  Fe17      1.0  0.33380  0.07212  0.30240  1.0000
  S   S32       1.0  0.33337  0.03038  0.30967  1.0000
  S   S33       1.0  0.34460  0.14320  0.29500  1.0000
  S   S34       1.0  0.37167  0.08859  0.29755  1.0000
  Fe  Fe18      1.0  0.14348  0.44496  0.38722  1.0000
  S   S35       1.0  0.11038  0.46216  0.37617  1.0000
  S   S36       1.0  0.16417  0.41268  0.37643  1.0000
  Fe  Fe19      1.0  0.13737  0.47820  0.41486  1.0000
  C   C172      1.0  0.48772  0.10261  0.31086  1.0000
  Fe  Fe20      1.0  0.09294  0.45947  0.39954  1.0000
  S   S37       1.0  0.05499  0.44378  0.40359  1.0000
  H   H142      1.0  0.35427  0.17616  0.24627  1.0000
  S   S38       1.0  0.12487  0.43977  0.41059  1.0000
  C   C173      1.0  0.14208  0.45628  0.29971  1.0000
  Fe  Fe21      1.0  0.17255  0.26307  0.31011  1.0000
  S   S39       1.0  0.18211  0.29941  0.29723  1.0000
  S   S40       1.0  0.20654  0.23944  0.31786  1.0000
  Fe  Fe22      1.0  0.11573  0.27299  0.30629  1.0000
  S   S41       1.0  0.12285  0.30818  0.29217  1.0000
  S   S42       1.0  0.07583  0.26014  0.31243  1.0000
  Fe  Fe23      1.0  0.15444  0.28791  0.28090  1.0000
  S   S43       1.0  0.16553  0.28316  0.25623  1.0000
  Fe  Fe24      1.0  0.14971  0.31671  0.31001  1.0000
  S   S44       1.0  0.14308  0.35699  0.31650  1.0000
  S   S45       1.0  0.14523  0.25147  0.29353  1.0000
  S   S46       1.0  0.14223  0.28146  0.32446  1.0000
  C   C174      1.0  0.02447  0.26221  0.31233  1.0000
  C   C175      1.0  0.04675  0.27359  0.30688  1.0000
  C   C176      1.0  0.04524  0.29494  0.29706  1.0000
  H   H143      1.0  0.02528  0.24577  0.31999  1.0000
  H   H144      1.0  0.06206  0.30437  0.29314  1.0000
  H   H145      1.0  0.48000  0.08691  0.27457  1.0000
  H   H146      1.0  0.16831  0.33671  0.25786  1.0000
  C   C177      1.0  0.15558  0.39598  0.36066  1.0000
  C   C178      1.0  0.13826  0.40531  0.35028  1.0000
  C   C179      1.0  0.13430  0.39293  0.33698  1.0000
  C   C180      1.0  0.14692  0.37061  0.33412  1.0000
  C   C181      1.0  0.16335  0.36070  0.34482  1.0000
  C   C182      1.0  0.16783  0.37345  0.35789  1.0000
  H   H147      1.0  0.12856  0.42247  0.35229  1.0000
  H   H148      1.0  0.12148  0.40079  0.32883  1.0000
  H   H149      1.0  0.17309  0.34354  0.34283  1.0000
  H   H150      1.0  0.18109  0.36597  0.36588  1.0000
  C   C183      1.0  0.03227  0.46494  0.39739  1.0000
  C   C184      1.0  0.45086  0.10003  0.28947  1.0000
  C   C185      1.0  0.02193  0.30406  0.29228  1.0000
  H   H151      1.0  0.05094  0.40780  0.38106  1.0000
  C   C186      1.0  0.00738  0.45832  0.39915  1.0000
  C   C187      1.0  0.08233  0.29290  0.26056  1.0000
  C   C188      1.0  0.12613  0.36956  0.26418  1.0000
  H   H152      1.0  0.09156  0.41485  0.46290  1.0000
  C   C189      1.0  0.11332  0.26078  0.24483  1.0000
  C   C190      1.0  0.30769  0.18803  0.27192  1.0000
  C   C191      1.0  0.10400  0.25354  0.25942  1.0000
  C   C192      1.0  0.25371  0.17247  0.30187  1.0000
  C   C193      1.0  0.26341  0.18953  0.31127  1.0000
  C   C194      1.0  0.24899  0.21016  0.31565  1.0000
  C   C195      1.0  0.22485  0.21458  0.31044  1.0000
  C   C196      1.0  0.21560  0.19820  0.30045  1.0000
  C   C197      1.0  0.22983  0.17726  0.29632  1.0000
  H   H153      1.0  0.28186  0.18664  0.31542  1.0000
  H   H154      1.0  0.25649  0.22260  0.32336  1.0000
  H   H155      1.0  0.19710  0.20110  0.29635  1.0000
  H   H156      1.0  0.22208  0.16443  0.28894  1.0000
  H   H157      1.0  0.01936  0.43338  0.48111  1.0000
  C   C198      1.0  0.03117  0.42962  0.47134  1.0000
  H   H158      1.0  0.31050  0.02119  0.28073  1.0000
  C   C199      1.0  0.42300  0.00768  0.40280  1.0000
  H   H159      1.0  0.45380  0.16486  0.48699  1.0000
  H   H160      1.0  0.03158  0.44769  0.33945  1.0000
  C   C200      1.0  0.43756  0.10262  0.36704  1.0000
  C   C201      1.0  0.41839  0.08838  0.36180  1.0000
  C   C202      1.0  0.40357  0.09753  0.34980  1.0000
  C   C203      1.0  0.40745  0.12137  0.34302  1.0000
  C   C204      1.0  0.42670  0.13562  0.34820  1.0000
  C   C205      1.0  0.44184  0.12623  0.36000  1.0000
  H   H161      1.0  0.41489  0.07018  0.36715  1.0000
  H   H162      1.0  0.38886  0.08631  0.34601  1.0000
  H   H163      1.0  0.42989  0.15410  0.34308  1.0000
  H   H164      1.0  0.45642  0.13748  0.36390  1.0000
  H   H165      1.0  0.39048  0.02906  0.30724  1.0000
  C   C206      1.0  0.09150  0.30031  0.24587  1.0000
  H   H166      1.0  0.02113  0.32026  0.28444  1.0000
  H   H167      1.0  0.04158  0.44744  0.36672  1.0000
  C   C207      1.0  0.11198  0.35089  0.25862  1.0000
  C   C208      1.0  0.25903  0.07516  0.30835  1.0000
  C   C209      1.0  0.27100  0.05281  0.31254  1.0000
  C   C210      1.0  0.27695  0.04738  0.32765  1.0000
  C   C211      1.0  0.27098  0.06430  0.33859  1.0000
  C   C212      1.0  0.25854  0.08661  0.33452  1.0000
  C   C213      1.0  0.25292  0.09204  0.31928  1.0000
  P   P7        1.0  0.25348  0.10942  0.34839  1.0000
  C   C214      1.0  0.24133  0.09515  0.36613  1.0000
  C   C215      1.0  0.28354  0.12283  0.35039  1.0000
  C   C216      1.0  0.29960  0.11281  0.36139  1.0000
  C   C217      1.0  0.32356  0.12216  0.36213  1.0000
  C   C218      1.0  0.33171  0.14138  0.35183  1.0000
  C   C219      1.0  0.31597  0.15119  0.34072  1.0000
  C   C220      1.0  0.29206  0.14178  0.33991  1.0000
  C   C221      1.0  0.24378  0.10706  0.37963  1.0000
  C   C222      1.0  0.23389  0.09639  0.39339  1.0000
  C   C223      1.0  0.22121  0.07394  0.39373  1.0000
  C   C224      1.0  0.21826  0.06225  0.38028  1.0000
  C   C225      1.0  0.22812  0.07288  0.36650  1.0000
  C   C226      1.0  0.23056  0.13260  0.34280  1.0000
  C   C227      1.0  0.20901  0.12569  0.33581  1.0000
  C   C228      1.0  0.19121  0.14358  0.33150  1.0000
  C   C229      1.0  0.19448  0.16837  0.33449  1.0000
  C   C230      1.0  0.21536  0.17522  0.34200  1.0000
  C   C231      1.0  0.23329  0.15743  0.34622  1.0000
  H   H168      1.0  0.25509  0.07980  0.29657  1.0000
  H   H169      1.0  0.27635  0.03993  0.30405  1.0000
  H   H170      1.0  0.28702  0.03040  0.33074  1.0000
  H   H171      1.0  0.27663  0.06022  0.35012  1.0000
  H   H172      1.0  0.24444  0.10956  0.31569  1.0000
  H   H173      1.0  0.29394  0.09736  0.36913  1.0000
  H   H174      1.0  0.33612  0.11414  0.37043  1.0000
  H   H175      1.0  0.35052  0.14816  0.35216  1.0000
  H   H176      1.0  0.32268  0.16542  0.33239  1.0000
  H   H177      1.0  0.28054  0.14857  0.33075  1.0000
  H   H178      1.0  0.25327  0.12463  0.37950  1.0000
  H   H179      1.0  0.23594  0.10559  0.40379  1.0000
  H   H180      1.0  0.21352  0.06570  0.40440  1.0000
  H   H181      1.0  0.20821  0.04498  0.38052  1.0000
  H   H182      1.0  0.22525  0.06377  0.35616  1.0000
  H   H183      1.0  0.20608  0.10652  0.33355  1.0000
  H   H184      1.0  0.17493  0.13830  0.32575  1.0000
  H   H185      1.0  0.18097  0.18239  0.33092  1.0000
  H   H186      1.0  0.21783  0.19450  0.34425  1.0000
  H   H187      1.0  0.24924  0.16318  0.35207  1.0000
  H   H188      1.0  0.20936  0.22578  0.26080  1.0000
  H   H189      1.0  0.34744  0.19164  0.27186  1.0000
  C   C232      1.0  0.33169  0.18683  0.26545  1.0000
  H   H190      1.0  0.36207  0.04107  0.28234  1.0000
  H   H191      1.0  0.21498  0.27524  0.27134  1.0000
  H   H192      1.0  0.08948  0.45210  0.34528  1.0000
  C   C233      1.0  0.44467  0.10763  0.30396  1.0000
  H   H193      1.0  0.17480  0.19687  0.26684  1.0000
  H   H194      1.0  0.06167  0.36905  0.27374  1.0000
  C   C234      1.0  0.19175  0.19034  0.26131  1.0000
  H   H195      1.0  0.13280  0.42236  0.28981  1.0000
  C   C235      1.0  0.41711  0.04926  0.31899  1.0000
  H   H196      1.0  0.43665  0.09959  0.28113  1.0000
  H   H197      1.0  0.42570  0.11301  0.30689  1.0000
  H   H198      1.0  0.08141  0.26402  0.27865  1.0000
  H   H199      1.0  0.01180  0.32022  0.32219  1.0000
  H   H200      1.0  0.41691  0.06517  0.31091  1.0000
  C   C236      1.0  0.12171  0.46266  0.47864  1.0000
  C   C237      1.0  0.14765  0.43402  0.29303  1.0000
  H   H201      1.0  0.12281  0.46180  0.30124  1.0000
  S   S47       1.0  0.15949  0.48207  0.39226  1.0000
  C   C238      1.0  0.03787  0.42491  0.44439  1.0000
  C   C239      1.0  0.03867  0.48848  0.39100  1.0000
  C   C240      1.0  0.02196  0.43083  0.45664  1.0000
  C   C241      1.0  0.07803  0.29208  0.34810  1.0000
  C   C242      1.0  0.10001  0.30046  0.35374  1.0000
  C   C243      1.0  0.10364  0.32585  0.35467  1.0000
  C   C244      1.0  0.08524  0.34286  0.35007  1.0000
  C   C245      1.0  0.06270  0.33455  0.34485  1.0000
  C   C246      1.0  0.05947  0.30901  0.34364  1.0000
  P   P8        1.0  0.03998  0.35659  0.33744  1.0000
  H   H202      1.0  0.20104  0.47416  0.30580  1.0000
  C   C247      1.0  0.04149  0.38555  0.34650  1.0000
  C   C248      1.0  0.03607  0.40812  0.33842  1.0000
  S   S48       1.0  0.15094  0.49179  0.43737  1.0000
  C   C249      1.0  0.04154  0.43027  0.36102  1.0000
  C   C250      1.0  0.04683  0.40789  0.36914  1.0000
  C   C251      1.0  0.04659  0.38559  0.36197  1.0000
  C   C252      1.0  0.41628  0.00863  0.34047  1.0000
  C   C253      1.0  0.40206  0.00847  0.32749  1.0000
  C   C254      1.0  0.41001  0.01597  0.37701  1.0000
  C   C255      1.0  0.21132  0.20667  0.25790  1.0000
  C   C256      1.0  0.05621  0.42392  0.47356  1.0000
  C   C257      1.0  0.04685  0.36165  0.31727  1.0000
  C   C258      1.0  0.07136  0.35945  0.31149  1.0000
  C   C259      1.0  0.07664  0.36229  0.29587  1.0000
  C   C260      1.0  0.05756  0.36739  0.28586  1.0000
  C   C261      1.0  0.03316  0.37003  0.29152  1.0000
  C   C262      1.0  0.02781  0.36732  0.30718  1.0000
  C   C263      1.0  0.14333  0.48552  0.45727  1.0000
  H   H203      1.0  0.11447  0.28731  0.35700  1.0000
  H   H204      1.0  0.12097  0.33242  0.35863  1.0000
  H   H205      1.0  0.08900  0.36247  0.35024  1.0000
  H   H206      1.0  0.40819  0.04277  0.39407  1.0000
  C   C264      1.0  0.00004  0.32697  0.33127  1.0000
  C   C265      1.0  0.37937  0.99988  0.25619  1.0000
  Fe  Fe25      1.0  0.49193  0.09979  0.39292  1.0000
  C   C266      1.0  0.43185  0.02880  0.34217  1.0000
  H   H207      1.0  0.05015  0.36838  0.36858  1.0000
  C   C267      1.0  0.33552  0.17818  0.25100  1.0000
  C   C268      1.0  0.19418  0.16557  0.25780  1.0000
  H   H208      1.0  0.04301  0.30200  0.33889  1.0000
  H   H209      1.0  0.46063  0.20930  0.47187  1.0000
  H   H210      1.0  0.47292  0.20020  0.44555  1.0000
  H   H211      1.0  0.08649  0.35518  0.31895  1.0000
  H   H212      1.0  0.09558  0.36007  0.29163  1.0000
  H   H213      1.0  0.27428  0.08037  0.26652  1.0000
  H   H214      1.0  0.06341  0.42360  0.48485  1.0000
  C   C269      1.0  0.06634  0.49110  0.45573  1.0000
  H   H215      1.0  0.24848  0.21114  0.24858  1.0000
  H   H216      1.0  0.10916  0.23570  0.26478  1.0000
  C   C270      1.0  0.47876  0.20125  0.46952  1.0000
  H   H217      1.0  0.44357  0.06496  0.33317  1.0000
  H   H218      1.0  0.22149  0.28429  0.24379  1.0000
  C   C271      1.0  0.06286  0.41925  0.44664  1.0000
  C   C272      1.0  0.00066  0.34241  0.25185  1.0000
  C   C273      1.0  0.27103  0.11609  0.25431  1.0000
  C   C274      1.0  0.19776  0.36077  0.28672  1.0000
  C   C275      1.0  0.21288  0.36909  0.27426  1.0000
  C   C276      1.0  0.23626  0.37872  0.27657  1.0000
  C   C277      1.0  0.24460  0.37982  0.29132  1.0000
  C   C278      1.0  0.22966  0.37101  0.30388  1.0000
  C   C279      1.0  0.20611  0.36172  0.30145  1.0000
  P   P9        1.0  0.24013  0.37193  0.32305  1.0000
  C   C280      1.0  0.22673  0.39838  0.33200  1.0000
  C   C281      1.0  0.23076  0.34400  0.33409  1.0000
  C   C282      1.0  0.22894  0.32153  0.32710  1.0000
  C   C283      1.0  0.22154  0.30000  0.33563  1.0000
  C   C284      1.0  0.21603  0.30060  0.35118  1.0000
  C   C285      1.0  0.21820  0.32276  0.35828  1.0000
  C   C286      1.0  0.22565  0.34437  0.34981  1.0000
  C   C287      1.0  0.23873  0.40849  0.34396  1.0000
  C   C288      1.0  0.22763  0.42786  0.35161  1.0000
  C   C289      1.0  0.20458  0.43736  0.34733  1.0000
  C   C290      1.0  0.19268  0.42763  0.33535  1.0000
  C   C291      1.0  0.20350  0.40799  0.32783  1.0000
  C   C292      1.0  0.27359  0.37361  0.32261  1.0000
  C   C293      1.0  0.28534  0.39660  0.31976  1.0000
  C   C294      1.0  0.31123  0.39801  0.31942  1.0000
  C   C295      1.0  0.32557  0.37649  0.32184  1.0000
  C   C296      1.0  0.31404  0.35352  0.32455  1.0000
  C   C297      1.0  0.28815  0.35204  0.32491  1.0000
  H   H219      1.0  0.06507  0.47477  0.44934  1.0000
  C   C298      1.0  0.28750  0.18088  0.26386  1.0000
  H   H220      1.0  0.24803  0.38506  0.26688  1.0000
  H   H221      1.0  0.26282  0.38716  0.29279  1.0000
  H   H222      1.0  0.19430  0.35490  0.31098  1.0000
  H   H223      1.0  0.23317  0.32053  0.31506  1.0000
  H   H224      1.0  0.21999  0.28279  0.33016  1.0000
  H   H225      1.0  0.21005  0.28386  0.35769  1.0000
  H   H226      1.0  0.21381  0.32329  0.37034  1.0000
  H   H227      1.0  0.22694  0.36132  0.35556  1.0000
  H   H228      1.0  0.25620  0.40081  0.34780  1.0000
  H   H229      1.0  0.23642  0.43495  0.36123  1.0000
  H   H230      1.0  0.19542  0.45143  0.35378  1.0000
  H   H231      1.0  0.17442  0.43445  0.33241  1.0000
  H   H232      1.0  0.19319  0.39985  0.31922  1.0000
  H   H233      1.0  0.27448  0.41343  0.31781  1.0000
  H   H234      1.0  0.32020  0.41580  0.31731  1.0000
  H   H235      1.0  0.13487  0.36631  0.27498  1.0000
  H   H236      1.0  0.34564  0.37758  0.32161  1.0000
  H   H237      1.0  0.27967  0.33403  0.32702  1.0000
  H   H238      1.0  0.45759  0.11395  0.32596  1.0000
  H   H239      1.0  0.17959  0.35332  0.28503  1.0000
  H   H240      1.0  0.30476  0.19353  0.28344  1.0000
  H   H241      1.0  0.48295  0.09004  0.35262  1.0000
  C   C299      1.0  0.27021  0.09017  0.25580  1.0000
  C   C300      1.0  0.48563  0.19621  0.45460  1.0000
  H   H242      1.0  0.10902  0.44817  0.48271  1.0000
  H   H243      1.0  0.42583  0.01396  0.41399  1.0000
  H   H244      1.0  0.32517  0.33682  0.32641  1.0000
  C   C301      1.0  0.36500  0.04976  0.25824  1.0000
  H   H245      1.0  0.27571  0.12614  0.26403  1.0000
  C   C302      1.0  0.23339  0.19829  0.25100  1.0000
  H   H246      1.0  0.26931  0.18090  0.26947  1.0000
  H   H247      1.0  0.00250  0.43978  0.40349  1.0000
  C   C303      1.0  0.31491  0.00354  0.28655  1.0000
  H   H248      1.0  0.07513  0.41547  0.43700  1.0000
  C   C304      1.0  0.07208  0.41893  0.46120  1.0000
  C   C305      1.0  0.43210  0.04913  0.33152  1.0000
  H   H249      1.0  0.17906  0.15286  0.26058  1.0000
  H   H250      1.0  0.43131  0.00323  0.24920  1.0000
  H   H251      1.0  0.02765  0.47130  0.43528  1.0000
  H   H252      1.0  0.40192  0.02861  0.36852  1.0000
  H   H253      1.0  0.48231  0.06538  0.48690  1.0000
  C   C306      1.0  0.03605  0.43038  0.34568  1.0000
  H   H254      1.0  0.20657  0.36789  0.26283  1.0000
  C   C307      1.0  0.11746  0.47268  0.33188  1.0000
  H   H255      1.0  0.07560  0.27245  0.34676  1.0000
  C   C308      1.0  0.40222  0.02890  0.31692  1.0000
  H   H256      1.0  0.03153  0.40852  0.32659  1.0000
  H   H257      1.0  0.03113  0.42531  0.43297  1.0000
  C   C309      1.0  0.23608  0.17336  0.24750  1.0000
  C   C310      1.0  0.16116  0.47093  0.30462  1.0000
  C   C311      1.0  0.29106  0.17267  0.24915  1.0000
  H   H258      1.0  0.29569  0.25369  0.24635  1.0000
  H   H259      1.0  0.24793  0.25421  0.28638  1.0000
  C   C312      1.0  0.36649  0.03401  0.27136  1.0000
  H   H260      1.0  0.13085  0.45760  0.33271  1.0000
  C   C313      1.0  0.17231  0.42654  0.29078  1.0000
  H   H261      1.0  0.17655  0.40915  0.28578  1.0000
  C   C314      1.0  0.27376  0.25245  0.26714  1.0000
  C   C315      1.0  0.00897  0.34438  0.34077  1.0000
  H   H262      1.0  0.03798  0.47942  0.47232  1.0000
  C   C316      1.0  0.23248  0.27022  0.26581  1.0000
  H   H263      1.0  0.49245  0.19073  0.35819  1.0000
  C   C317      1.0  0.00952  0.31864  0.24921  1.0000
  H   H264      1.0  0.99940  0.36603  0.36008  1.0000
  H   H265      1.0  0.11009  0.33343  0.26516  1.0000
  H   H266      1.0  0.07034  0.30513  0.26683  1.0000
  H   H267      1.0  0.21057  0.43535  0.29355  1.0000
  H   H268      1.0  0.28838  0.24383  0.27379  1.0000
  C   C318      1.0  0.37352  0.00913  0.27039  1.0000
  H   H269      1.0  0.47819  0.12600  0.47638  1.0000
  C   C319      1.0  0.13321  0.47668  0.48927  1.0000
  C   C320      1.0  0.27766  0.25767  0.25148  1.0000
  C   C321      1.0  0.99963  0.29264  0.29769  1.0000
  C   C322      1.0  0.12942  0.39208  0.25566  1.0000
  H   H270      1.0  0.44361  0.02901  0.35182  1.0000
  C   C323      1.0  0.46288  0.10839  0.31471  1.0000
  C   C324      1.0  0.08849  0.26959  0.26728  1.0000
  C   C325      1.0  0.00110  0.27173  0.30788  1.0000
  C   C326      1.0  0.25107  0.25845  0.27427  1.0000
  C   C327      1.0  0.01023  0.48126  0.43592  1.0000
  C   C328      1.0  0.32617  0.00295  0.30058  1.0000
  H   H271      1.0  0.36361  0.99517  0.34966  1.0000
  H   H272      1.0  0.35970  0.06908  0.25908  1.0000
  C   C329      1.0  0.37040  0.04062  0.24405  1.0000
  C   C330      1.0  0.41310  0.02390  0.39156  1.0000
  C   C331      1.0  0.17083  0.33240  0.24613  1.0000
  C   C332      1.0  0.47530  0.09299  0.28578  1.0000
  C   C333      1.0  0.18594  0.46339  0.30214  1.0000
  H   H273      1.0  0.21772  0.13777  0.24842  1.0000
  C   C334      1.0  0.09399  0.46949  0.33900  1.0000
  C   C335      1.0  0.12671  0.46700  0.46280  1.0000
  C   C336      1.0  0.04093  0.35937  0.24401  1.0000
  H   H274      1.0  0.47904  0.00120  0.39179  1.0000
  H   H275      1.0  0.33146  0.10456  0.24403  1.0000
  H   H276      1.0  0.26365  0.05674  0.24468  1.0000
  C   C337      1.0  0.01624  0.36281  0.24904  1.0000
  H   H277      1.0  0.00874  0.36914  0.31132  1.0000
  H   H278      1.0  0.14076  0.40636  0.25982  1.0000
  C   C338      1.0  0.10086  0.35462  0.24458  1.0000
  H   H279      1.0  0.01824  0.37354  0.28380  1.0000
  C   C339      1.0  0.07664  0.48892  0.33839  1.0000
  C   C340      1.0  0.37753  0.01577  0.24300  1.0000
  H   H280      1.0  0.37427  0.99731  0.28076  1.0000
  C   C341      1.0  0.23619  0.27515  0.25014  1.0000
  H   H281      1.0  0.99744  0.30283  0.25159  1.0000
  H   H282      1.0  0.04053  0.29648  0.24214  1.0000
  H   H283      1.0  0.48171  0.05078  0.36859  1.0000
  H   H284      1.0  0.48474  0.15285  0.31758  1.0000
  C   C342      1.0  0.25843  0.26799  0.24273  1.0000
  C   C343      1.0  0.17007  0.30775  0.24233  1.0000
  C   C344      1.0  0.05018  0.33543  0.24170  1.0000
  C   C345      1.0  0.46314  0.27279  0.49071  1.0000
  C   C346      1.0  0.31537  0.17098  0.24292  1.0000
  C   C347      1.0  0.03404  0.31515  0.24395  1.0000
  H   H285      1.0  0.15500  0.49175  0.34781  1.0000
  H   H286      1.0  0.47613  0.18916  0.33239  1.0000
  H   H287      1.0  0.46892  0.28812  0.48288  1.0000
  C   C348      1.0  0.26404  0.07683  0.24350  1.0000
  C   C349      1.0  0.21623  0.15708  0.25090  1.0000
  C   C350      1.0  0.47598  0.25013  0.49068  1.0000
  H   H288      1.0  0.05874  0.48668  0.34428  1.0000
  C   C351      1.0  0.48673  0.17365  0.33725  1.0000
  H   H289      1.0  0.49176  0.24823  0.48283  1.0000
  H   H290      1.0  0.05278  0.37535  0.24222  1.0000
  C   C352      1.0  0.49139  0.15280  0.32896  1.0000
  H   H291      1.0  0.00923  0.38124  0.25101  1.0000
  C   C353      1.0  0.11840  0.39600  0.24164  1.0000
  Fe  Fe26      1.0  0.32745  0.07600  0.66252  1.0000
  S   S49       1.0  0.36293  0.09653  0.65614  1.0000
  S   S50       1.0  0.33470  0.03468  0.66997  1.0000
  Fe  Fe27      1.0  0.29593  0.12509  0.65787  1.0000
  S   S51       1.0  0.32958  0.14755  0.65049  1.0000
  S   S52       1.0  0.25730  0.14240  0.66338  1.0000
  Fe  Fe28      1.0  0.34223  0.11524  0.63699  1.0000
  S   S53       1.0  0.35846  0.11464  0.61250  1.0000
  Fe  Fe29      1.0  0.34771  0.12690  0.67020  1.0000
  S   S54       1.0  0.37010  0.15060  0.68495  1.0000
  S   S55       1.0  0.30689  0.09375  0.64280  1.0000
  S   S56       1.0  0.31391  0.10539  0.67815  1.0000
  C   C354      1.0  0.34046  0.03393  0.55228  1.0000
  S   S57       1.0  0.45529  0.15310  0.57448  1.0000
  Fe  Fe30      1.0  0.16198  0.26664  0.65443  1.0000
  S   S58       1.0  0.17039  0.30770  0.65290  1.0000
  S   S59       1.0  0.19566  0.24303  0.64644  1.0000
  Fe  Fe31      1.0  0.10841  0.27677  0.66661  1.0000
  S   S60       1.0  0.11475  0.31756  0.66655  1.0000
  S   S61       1.0  0.06995  0.26572  0.67661  1.0000
  Fe  Fe32      1.0  0.13273  0.31424  0.64344  1.0000
  S   S62       1.0  0.11655  0.34246  0.62600  1.0000
  Fe  Fe33      1.0  0.15169  0.30775  0.67607  1.0000
  S   S63       1.0  0.16968  0.33092  0.69305  1.0000
  S   S64       1.0  0.12511  0.27329  0.64301  1.0000
  S   S65       1.0  0.14457  0.26683  0.67810  1.0000
  Fe  Fe34      1.0  0.14473  0.45372  0.56672  1.0000
  S   S66       1.0  0.16745  0.42387  0.57953  1.0000
  H   H292      1.0  0.44526  0.07532  0.55934  1.0000
  S   S67       1.0  0.11729  0.44378  0.54984  1.0000
  C   C355      1.0  0.15197  0.47485  0.74052  1.0000
  H   H293      1.0  0.23855  0.28175  0.64526  1.0000
  C   C356      1.0  0.03301  0.33789  0.65272  1.0000
  H   H294      1.0  0.38150  0.02624  0.71787  1.0000
  C   C357      1.0  0.02991  0.47595  0.56142  1.0000
  C   C358      1.0  0.01712  0.27208  0.64457  1.0000
  C   C359      1.0  0.04030  0.27065  0.65148  1.0000
  C   C360      1.0  0.04146  0.27059  0.66727  1.0000
  C   C361      1.0  0.01920  0.27283  0.67600  1.0000
  H   H295      1.0  0.06804  0.35062  0.64268  1.0000
  H   H296      1.0  0.03665  0.28576  0.72118  1.0000
  H   H297      1.0  0.05722  0.26860  0.64467  1.0000
  H   H298      1.0  0.01986  0.27263  0.68822  1.0000
  C   C362      1.0  0.06338  0.45124  0.51460  1.0000
  C   C363      1.0  0.13139  0.36578  0.61391  1.0000
  C   C364      1.0  0.11658  0.38301  0.60560  1.0000
  C   C365      1.0  0.12740  0.40135  0.59541  1.0000
  C   C366      1.0  0.15322  0.40243  0.59323  1.0000
  C   C367      1.0  0.16805  0.38526  0.60159  1.0000
  C   C368      1.0  0.15721  0.36710  0.61194  1.0000
  H   H299      1.0  0.09660  0.38209  0.60700  1.0000
  H   H300      1.0  0.11579  0.41438  0.58903  1.0000
  H   H301      1.0  0.18801  0.38589  0.59993  1.0000
  H   H302      1.0  0.16879  0.35389  0.61820  1.0000
  C   C369      1.0  0.16744  0.32473  0.71293  1.0000
  C   C370      1.0  0.15588  0.30349  0.71966  1.0000
  H   H303      1.0  0.43816  0.07836  0.52706  1.0000
  C   C371      1.0  0.17748  0.34182  0.72222  1.0000
  H   H304      1.0  0.14824  0.29016  0.71258  1.0000
  C   C372      1.0  0.45334  0.11610  0.66299  1.0000
  H   H305      1.0  0.18647  0.35827  0.71708  1.0000
  C   C373      1.0  0.02090  0.34724  0.71809  1.0000
  C   C374      1.0  0.21313  0.21563  0.65214  1.0000
  C   C375      1.0  0.23666  0.21157  0.64510  1.0000
  C   C376      1.0  0.25070  0.18973  0.64861  1.0000
  C   C377      1.0  0.24132  0.17131  0.65915  1.0000
  C   C378      1.0  0.21801  0.17558  0.66640  1.0000
  C   C379      1.0  0.20406  0.19751  0.66297  1.0000
  H   H306      1.0  0.24397  0.22530  0.63668  1.0000
  H   H307      1.0  0.26852  0.18689  0.64290  1.0000
  H   H308      1.0  0.21042  0.16155  0.67452  1.0000
  H   H309      1.0  0.18593  0.19997  0.66832  1.0000
  C   C380      1.0  0.37099  0.14491  0.70491  1.0000
  C   C381      1.0  0.36324  0.12235  0.71212  1.0000
  C   C382      1.0  0.35668  0.02415  0.62844  1.0000
  C   C383      1.0  0.38048  0.16313  0.71369  1.0000
  H   H310      1.0  0.35594  0.10817  0.70550  1.0000
  H   H311      1.0  0.46755  0.09420  0.61454  1.0000
  H   H312      1.0  0.38648  0.18066  0.70821  1.0000
  C   C384      1.0  0.38726  0.12602  0.60441  1.0000
  C   C385      1.0  0.38920  0.15069  0.59857  1.0000
  C   C386      1.0  0.41047  0.15880  0.58994  1.0000
  C   C387      1.0  0.42995  0.14228  0.58664  1.0000
  C   C388      1.0  0.42815  0.11757  0.59248  1.0000
  C   C389      1.0  0.40680  0.10948  0.60117  1.0000
  H   H313      1.0  0.37393  0.16347  0.60040  1.0000
  H   H314      1.0  0.41148  0.17788  0.58543  1.0000
  H   H315      1.0  0.44272  0.10449  0.58978  1.0000
  H   H316      1.0  0.40500  0.09017  0.60494  1.0000
  C   C390      1.0  0.99768  0.47617  0.61176  1.0000
  C   C391      1.0  0.32366  0.00627  0.66346  1.0000
  C   C392      1.0  0.30373  0.00545  0.65385  1.0000
  C   C393      1.0  0.47514  0.99622  0.61050  1.0000
  H   H317      1.0  0.29421  0.02247  0.65027  1.0000
  C   C394      1.0  0.06025  0.47279  0.50516  1.0000
  C   C395      1.0  0.27651  0.27661  0.72258  1.0000
  C   C396      1.0  0.25276  0.27644  0.71662  1.0000
  C   C397      1.0  0.23323  0.28904  0.72398  1.0000
  P   P10       1.0  0.24647  0.25982  0.70001  1.0000
  C   C398      1.0  0.23992  0.28096  0.68387  1.0000
  C   C399      1.0  0.27209  0.24061  0.69362  1.0000
  C   C400      1.0  0.29528  0.25131  0.68973  1.0000
  C   C401      1.0  0.31473  0.23701  0.68380  1.0000
  C   C402      1.0  0.31087  0.21221  0.68106  1.0000
  C   C403      1.0  0.28750  0.20183  0.68408  1.0000
  C   C404      1.0  0.26824  0.21579  0.69048  1.0000
  C   C405      1.0  0.23295  0.30577  0.68569  1.0000
  C   C406      1.0  0.22846  0.32184  0.67301  1.0000
  C   C407      1.0  0.23099  0.31338  0.65842  1.0000
  C   C408      1.0  0.23758  0.28867  0.65651  1.0000
  C   C409      1.0  0.24201  0.27252  0.66915  1.0000
  C   C410      1.0  0.22015  0.24033  0.70519  1.0000
  C   C411      1.0  0.21843  0.22799  0.71970  1.0000
  C   C412      1.0  0.19836  0.21253  0.72384  1.0000
  C   C413      1.0  0.17998  0.20915  0.71350  1.0000
  C   C414      1.0  0.18165  0.22126  0.69903  1.0000
  C   C415      1.0  0.20165  0.23681  0.69484  1.0000
  H   H318      1.0  0.29174  0.26631  0.71771  1.0000
  H   H319      1.0  0.21457  0.28882  0.71983  1.0000
  H   H320      1.0  0.29818  0.27085  0.69101  1.0000
  H   H321      1.0  0.33265  0.24527  0.68095  1.0000
  H   H322      1.0  0.32578  0.20113  0.67624  1.0000
  H   H323      1.0  0.28416  0.18304  0.68111  1.0000
  H   H324      1.0  0.25022  0.20732  0.69237  1.0000
  H   H325      1.0  0.23053  0.31290  0.69679  1.0000
  H   H326      1.0  0.22233  0.34073  0.67454  1.0000
  H   H327      1.0  0.22699  0.32575  0.64864  1.0000
  H   H328      1.0  0.24659  0.25331  0.66738  1.0000
  H   H329      1.0  0.23260  0.23035  0.72781  1.0000
  H   H330      1.0  0.35276  0.02383  0.64050  1.0000
  H   H331      1.0  0.16445  0.19711  0.71665  1.0000
  H   H332      1.0  0.16746  0.21857  0.69097  1.0000
  H   H333      1.0  0.20256  0.24589  0.68352  1.0000
  H   H334      1.0  0.11401  0.33217  0.74033  1.0000
  C   C416      1.0  0.06423  0.37149  0.57065  1.0000
  H   H335      1.0  0.01638  0.27125  0.63241  1.0000
  H   H336      1.0  0.00144  0.48792  0.51716  1.0000
  C   C417      1.0  0.28496  0.17395  0.73007  1.0000
  H   H337      1.0  0.00719  0.45016  0.53342  1.0000
  P   P11       1.0  0.37141  0.02637  0.57665  1.0000
  C   C418      1.0  0.36643  0.02556  0.59700  1.0000
  C   C419      1.0  0.38758  0.05433  0.56992  1.0000
  C   C420      1.0  0.37462  0.07709  0.56883  1.0000
  C   C421      1.0  0.38710  0.09904  0.56432  1.0000
  C   C422      1.0  0.41252  0.09841  0.56070  1.0000
  C   C423      1.0  0.42546  0.07585  0.56167  1.0000
  C   C424      1.0  0.41311  0.05388  0.56618  1.0000
  H   H338      1.0  0.47121  0.07520  0.69174  1.0000
  C   C425      1.0  0.45908  0.07389  0.50608  1.0000
  C   C426      1.0  0.99745  0.34478  0.63703  1.0000
  C   C427      1.0  0.36136  0.04673  0.62033  1.0000
  C   C428      1.0  0.36620  0.04750  0.60468  1.0000
  C   C429      1.0  0.43627  0.14332  0.50553  1.0000
  H   H339      1.0  0.19707  0.20319  0.73507  1.0000
  H   H340      1.0  0.35116  0.00858  0.70134  1.0000
  H   H341      1.0  0.04102  0.32987  0.66301  1.0000
  H   H342      1.0  0.03568  0.40326  0.59842  1.0000
  H   H343      1.0  0.43297  0.29328  0.50087  1.0000
  C   C430      1.0  0.01269  0.35589  0.62526  1.0000
  C   C431      1.0  0.02547  0.30249  0.71986  1.0000
  Fe  Fe35      1.0  0.13032  0.47690  0.53478  1.0000
  S   S68       1.0  0.16052  0.48505  0.55097  1.0000
  H   H344      1.0  0.04709  0.42700  0.53254  1.0000
  H   H345      1.0  0.35501  0.07804  0.57198  1.0000
  H   H346      1.0  0.37724  0.11667  0.56417  1.0000
  H   H347      1.0  0.42237  0.11552  0.55775  1.0000
  H   H348      1.0  0.42384  0.03686  0.56689  1.0000
  C   C432      1.0  0.43897  0.13227  0.67171  1.0000
  C   C433      1.0  0.03595  0.32605  0.72065  1.0000
  C   C434      1.0  0.17344  0.46044  0.73863  1.0000
  H   H349      1.0  0.36081  0.06379  0.62616  1.0000
  H   H350      1.0  0.36927  0.06537  0.59871  1.0000
  S   S69       1.0  0.12660  0.46990  0.50924  1.0000
  C   C435      1.0  0.04975  0.35013  0.57181  1.0000
  C   C436      1.0  0.43378  0.13893  0.52129  1.0000
  C   C437      1.0  0.31982  0.02080  0.57632  1.0000
  H   H351      1.0  0.42472  0.14010  0.69405  1.0000
  C   C438      1.0  0.26069  0.17150  0.72517  1.0000
  C   C439      1.0  0.03792  0.48644  0.50580  1.0000
  H   H352      1.0  0.47445  0.13919  0.61248  1.0000
  H   H353      1.0  0.30975  0.21655  0.71873  1.0000
  H   H354      1.0  0.49168  0.12316  0.50312  1.0000
  C   C440      1.0  0.34029  0.23833  0.72482  1.0000
  C   C441      1.0  0.44290  0.27571  0.50084  1.0000
  H   H355      1.0  0.27822  0.02895  0.54839  1.0000
  H   H356      1.0  0.35977  0.10023  0.73333  1.0000
  H   H357      1.0  0.05128  0.34265  0.69236  1.0000
  C   C442      1.0  0.12890  0.23963  0.55711  1.0000
  C   C443      1.0  0.15316  0.23095  0.55466  1.0000
  C   C444      1.0  0.17310  0.24406  0.55966  1.0000
  C   C445      1.0  0.16882  0.26580  0.56717  1.0000
  C   C446      1.0  0.14448  0.27442  0.56988  1.0000
  C   C447      1.0  0.12455  0.26135  0.56463  1.0000
  P   P12       1.0  0.13877  0.30264  0.57938  1.0000
  C   C448      1.0  0.11136  0.29861  0.59174  1.0000
  C   C449      1.0  0.16492  0.30777  0.59096  1.0000
  C   C450      1.0  0.16711  0.29451  0.60508  1.0000
  C   C451      1.0  0.18799  0.29733  0.61364  1.0000
  C   C452      1.0  0.20667  0.31372  0.60835  1.0000
  C   C453      1.0  0.20472  0.32697  0.59431  1.0000
  C   C454      1.0  0.18413  0.32377  0.58554  1.0000
  C   C455      1.0  0.09520  0.31865  0.59411  1.0000
  C   C456      1.0  0.07429  0.31555  0.60386  1.0000
  C   C457      1.0  0.06932  0.29255  0.61140  1.0000
  C   C458      1.0  0.08527  0.27245  0.60914  1.0000
  C   C459      1.0  0.10622  0.27543  0.59934  1.0000
  C   C460      1.0  0.13445  0.32845  0.56554  1.0000
  C   C461      1.0  0.12875  0.32453  0.55051  1.0000
  C   C462      1.0  0.12591  0.34472  0.53990  1.0000
  C   C463      1.0  0.12878  0.36891  0.54420  1.0000
  C   C464      1.0  0.13426  0.37294  0.55914  1.0000
  C   C465      1.0  0.13693  0.35284  0.56977  1.0000
  H   H358      1.0  0.11345  0.22950  0.55321  1.0000
  H   H359      1.0  0.15653  0.21406  0.54890  1.0000
  H   H360      1.0  0.19192  0.23735  0.55776  1.0000
  H   H361      1.0  0.18453  0.27571  0.57091  1.0000
  H   H362      1.0  0.10566  0.26793  0.56638  1.0000
  H   H363      1.0  0.15290  0.28181  0.60953  1.0000
  H   H364      1.0  0.18968  0.28672  0.62441  1.0000
  H   H365      1.0  0.22264  0.31611  0.61513  1.0000
  H   H366      1.0  0.21915  0.33978  0.59021  1.0000
  H   H367      1.0  0.18336  0.33384  0.57456  1.0000
  H   H368      1.0  0.09904  0.33695  0.58894  1.0000
  H   H369      1.0  0.06250  0.33128  0.60601  1.0000
  H   H370      1.0  0.05344  0.29053  0.61925  1.0000
  H   H371      1.0  0.08172  0.25473  0.61528  1.0000
  H   H372      1.0  0.11866  0.25977  0.59799  1.0000
  H   H373      1.0  0.12672  0.30599  0.54686  1.0000
  H   H374      1.0  0.12179  0.34163  0.52828  1.0000
  H   H375      1.0  0.12696  0.38461  0.53598  1.0000
  H   H376      1.0  0.13672  0.39168  0.56247  1.0000
  H   H377      1.0  0.14124  0.35626  0.58128  1.0000
  C   C466      1.0  0.29593  0.02836  0.55379  1.0000
  C   C467      1.0  0.04820  0.34946  0.64124  1.0000
  P   P13       1.0  0.06892  0.32931  0.72321  1.0000
  C   C468      1.0  0.08250  0.34679  0.70676  1.0000
  C   C469      1.0  0.10668  0.35607  0.70704  1.0000
  C   C470      1.0  0.11712  0.36965  0.69439  1.0000
  C   C471      1.0  0.10363  0.37407  0.68132  1.0000
  C   C472      1.0  0.07974  0.36461  0.68081  1.0000
  C   C473      1.0  0.06933  0.35071  0.69336  1.0000
  C   C474      1.0  0.08323  0.29889  0.72444  1.0000
  C   C475      1.0  0.09072  0.28747  0.71118  1.0000
  C   C476      1.0  0.10051  0.26336  0.71209  1.0000
  C   C477      1.0  0.10327  0.25062  0.72621  1.0000
  C   C478      1.0  0.25634  0.15822  0.71249  1.0000
  H   H378      1.0  0.35715  0.03882  0.54556  1.0000
  H   H379      1.0  0.07952  0.37334  0.56233  1.0000
  C   C479      1.0  0.38890  0.99889  0.57202  1.0000
  H   H380      1.0  0.11794  0.35240  0.71677  1.0000
  H   H381      1.0  0.13610  0.37600  0.69455  1.0000
  H   H382      1.0  0.11209  0.38397  0.67138  1.0000
  H   H383      1.0  0.08870  0.29696  0.70009  1.0000
  H   H384      1.0  0.10576  0.25451  0.70177  1.0000
  H   H385      1.0  0.11112  0.23204  0.72681  1.0000
  C   C480      1.0  0.35654  0.00222  0.62092  1.0000
  H   H386      1.0  0.36975  0.25836  0.73418  1.0000
  H   H387      1.0  0.42142  0.12466  0.52620  1.0000
  H   H388      1.0  0.24505  0.17976  0.73098  1.0000
  C   C481      1.0  0.05903  0.39053  0.58027  1.0000
  H   H389      1.0  0.06968  0.36736  0.67047  1.0000
  H   H390      1.0  0.05520  0.45621  0.60046  1.0000
  H   H391      1.0  0.41723  0.00417  0.58817  1.0000
  H   H392      1.0  0.44572  0.10401  0.70690  1.0000
  C   C482      1.0  0.44814  0.10745  0.69469  1.0000
  C   C483      1.0  0.46105  0.04542  0.52835  1.0000
  H   H393      1.0  0.27272  0.13715  0.69471  1.0000
  S   S70       1.0  0.48462  0.03824  0.56810  1.0000
  H   H394      1.0  0.07029  0.40710  0.57935  1.0000
  C   C484      1.0  0.01865  0.47778  0.51591  1.0000
  C   C485      1.0  0.09577  0.26181  0.73947  1.0000
  S   S71       1.0  0.11849  0.47807  0.57955  1.0000
  C   C486      1.0  0.02469  0.36690  0.59232  1.0000
  C   C487      1.0  0.30038  0.15059  0.70896  1.0000
  H   H395      1.0  0.34388  0.24611  0.71334  1.0000
  H   H396      1.0  0.05394  0.33530  0.56442  1.0000
  H   H397      1.0  0.01931  0.33096  0.58344  1.0000
  C   C488      1.0  0.99605  0.27490  0.66906  1.0000
  C   C489      1.0  0.31764  0.03457  0.54529  1.0000
  C   C490      1.0  0.47849  0.03091  0.52073  1.0000
  C   C491      1.0  0.30482  0.16383  0.72162  1.0000
  C   C492      1.0  0.02179  0.45614  0.52525  1.0000
  H   H398      1.0  0.44228  0.21831  0.51898  1.0000
  C   C493      1.0  0.48637  0.03779  0.50569  1.0000
  P   P14       1.0  0.45523  0.12033  0.64245  1.0000
  C   C494      1.0  0.43535  0.14622  0.63687  1.0000
  C   C495      1.0  0.45137  0.06694  0.52105  1.0000
  H   H399      1.0  0.44527  0.14979  0.54295  1.0000
  Fe  Fe36      1.0  0.09222  0.47030  0.56148  1.0000
  H   H400      1.0  0.45545  0.04015  0.54003  1.0000
  C   C496      1.0  0.03806  0.35877  0.62766  1.0000
  C   C497      1.0  0.03007  0.34778  0.58262  1.0000
  C   C498      1.0  0.44500  0.17033  0.63488  1.0000
  C   C499      1.0  0.42932  0.19063  0.63158  1.0000
  C   C500      1.0  0.40386  0.18710  0.63058  1.0000
  C   C501      1.0  0.39410  0.16329  0.63286  1.0000
  C   C502      1.0  0.40975  0.14290  0.63590  1.0000
  C   C503      1.0  0.44406  0.09219  0.63510  1.0000
  C   C504      1.0  0.42540  0.07841  0.64323  1.0000
  C   C505      1.0  0.41647  0.05677  0.63764  1.0000
  C   C506      1.0  0.42620  0.04852  0.62394  1.0000
  C   C507      1.0  0.44497  0.06192  0.61584  1.0000
  C   C508      1.0  0.45376  0.08373  0.62134  1.0000
  C   C509      1.0  0.00535  0.46970  0.56546  1.0000
  H   H401      1.0  0.08106  0.44147  0.51446  1.0000
  H   H402      1.0  0.45204  0.05603  0.60496  1.0000
  H   H403      1.0  0.00152  0.45314  0.57266  1.0000
  C   C510      1.0  0.15434  0.29952  0.73560  1.0000
  S   S72       1.0  0.48519  0.10382  0.54716  1.0000
  C   C511      1.0  0.36544  0.11789  0.72789  1.0000
  H   H404      1.0  0.31580  0.14284  0.70252  1.0000
  H   H405      1.0  0.46456  0.17357  0.63599  1.0000
  H   H406      1.0  0.43687  0.20912  0.62986  1.0000
  H   H407      1.0  0.39165  0.20276  0.62799  1.0000
  H   H408      1.0  0.37441  0.16049  0.63187  1.0000
  H   H409      1.0  0.45192  0.09073  0.50044  1.0000
  H   H410      1.0  0.41737  0.08464  0.65377  1.0000
  H   H411      1.0  0.40152  0.04681  0.64379  1.0000
  H   H412      1.0  0.41874  0.03214  0.61942  1.0000
  C   C512      1.0  0.36154  0.00289  0.60525  1.0000
  H   H413      1.0  0.38584  0.00976  0.65924  1.0000
  H   H414      1.0  0.32009  0.01560  0.58835  1.0000
  C   C513      1.0  0.32111  0.22133  0.72791  1.0000
  H   H415      1.0  0.02879  0.36559  0.71800  1.0000
  C   C514      1.0  0.49005  0.13620  0.61981  1.0000
  H   H416      1.0  0.32382  0.16593  0.72488  1.0000
  C   C515      1.0  0.44829  0.23327  0.51098  1.0000
  C   C516      1.0  0.34174  0.02699  0.56784  1.0000
  C   C517      1.0  0.27613  0.14744  0.70454  1.0000
  C   C518      1.0  0.17579  0.33794  0.73812  1.0000
  C   C519      1.0  0.03934  0.38830  0.59104  1.0000
  H   H417      1.0  0.23764  0.15633  0.70869  1.0000
  H   H418      1.0  0.05040  0.36737  0.61896  1.0000
  C   C520      1.0  0.46314  0.17152  0.52446  1.0000
  H   H419      1.0  0.40668  0.99832  0.73478  1.0000
  C   C521      1.0  0.07560  0.34444  0.74031  1.0000
  C   C522      1.0  0.35486  0.24522  0.73654  1.0000
  C   C523      1.0  0.29703  0.02150  0.56929  1.0000
  C   C524      1.0  0.04425  0.44304  0.52474  1.0000
  C   C525      1.0  0.37937  0.00628  0.71799  1.0000
  H   H420      1.0  0.38995  0.17282  0.73615  1.0000
  C   C526      1.0  0.37524  0.13595  0.73665  1.0000
  H   H421      1.0  0.07572  0.47924  0.49780  1.0000
  C   C527      1.0  0.38244  0.15876  0.72952  1.0000
  C   C528      1.0  0.23759  0.30230  0.73666  1.0000
  C   C529      1.0  0.47648  0.05938  0.49840  1.0000
  S   S73       1.0  0.05391  0.45636  0.56778  1.0000
  C   C530      1.0  0.28083  0.28999  0.73525  1.0000
  H   H422      1.0  0.40451  0.00034  0.68407  1.0000
  H   H423      1.0  0.42908  0.14797  0.66650  1.0000
  H   H424      1.0  0.01378  0.43999  0.60897  1.0000
  C   C531      1.0  0.01696  0.45978  0.60817  1.0000
  H   H425      1.0  0.40173  0.12465  0.63745  1.0000
  H   H426      1.0  0.41988  0.25826  0.51889  1.0000
  C   C532      1.0  0.45213  0.16187  0.49921  1.0000
  H   H427      1.0  0.21181  0.46017  0.73100  1.0000
  P   P15       1.0  0.00006  0.36372  0.60682  1.0000
  C   C533      1.0  0.46567  0.17616  0.50864  1.0000
  C   C534      1.0  0.43640  0.12789  0.68747  1.0000
  C   C535      1.0  0.19511  0.47136  0.73227  1.0000
  H   H428      1.0  0.42589  0.13240  0.49817  1.0000
  C   C536      1.0  0.44721  0.15305  0.53073  1.0000
  H   H429      1.0  0.31677  0.03996  0.53329  1.0000
  C   C537      1.0  0.46485  0.09542  0.67033  1.0000
  C   C538      1.0  0.43552  0.25597  0.51098  1.0000
  C   C539      1.0  0.00040  0.30024  0.71673  1.0000
  H   H430      1.0  0.47535  0.08231  0.66379  1.0000
  C   C540      1.0  0.46243  0.09125  0.68613  1.0000
  C   C541      1.0  0.36223  0.99633  0.70872  1.0000
  H   H431      1.0  0.47867  0.01585  0.61086  1.0000
  C   C542      1.0  0.46856  0.23014  0.50076  1.0000
  C   C543      1.0  0.99486  0.27416  0.65328  1.0000
  C   C544      1.0  0.08553  0.28576  0.73861  1.0000
  C   C545      1.0  0.39982  0.99521  0.66042  1.0000
  H   H432      1.0  0.00143  0.30983  0.61399  1.0000
  H   H433      1.0  0.48607  0.15448  0.68103  1.0000
  H   H434      1.0  0.44866  0.99532  0.62927  1.0000
  C   C546      1.0  0.48636  0.12699  0.63499  1.0000
  H   H435      1.0  0.47328  0.18232  0.53202  1.0000
  C   C547      1.0  0.04029  0.46891  0.60341  1.0000
  Fe  Fe37      1.0  0.48755  0.12903  0.56635  1.0000
  H   H436      1.0  0.48627  0.01461  0.52671  1.0000
  P   P16       1.0  0.48533  0.20096  0.50068  1.0000
  H   H437      1.0  0.28017  0.01684  0.57591  1.0000
  H   H438      1.0  0.14540  0.28309  0.74075  1.0000
  C   C548      1.0  0.99580  0.34490  0.71506  1.0000
  H   H439      1.0  0.99576  0.32689  0.65955  1.0000
  C   C549      1.0  0.00756  0.33604  0.65072  1.0000
  H   H440      1.0  0.29919  0.29011  0.73980  1.0000
  Fe  Fe38      1.0  0.39931  0.14965  0.80840  1.0000
  S   S74       1.0  0.40102  0.19119  0.80882  1.0000
  S   S75       1.0  0.41197  0.12560  0.82926  1.0000
  Fe  Fe39      1.0  0.39004  0.15460  0.77410  1.0000
  S   S76       1.0  0.39252  0.19637  0.77239  1.0000
  S   S77       1.0  0.37893  0.12857  0.75628  1.0000
  Fe  Fe40      1.0  0.42547  0.19005  0.78761  1.0000
  S   S78       1.0  0.46091  0.21282  0.78921  1.0000
  Fe  Fe41      1.0  0.36812  0.19452  0.79385  1.0000
  S   S79       1.0  0.33065  0.21511  0.79846  1.0000
  S   S80       1.0  0.42459  0.14855  0.78755  1.0000
  S   S81       1.0  0.36474  0.15273  0.79505  1.0000
  H   H441      1.0  0.12786  0.26444  0.80744  1.0000
  S   S82       1.0  0.36662  0.03466  0.87122  1.0000
  C   C550      1.0  0.00475  0.46666  0.89994  1.0000
  Fe  Fe42      1.0  0.23391  0.33792  0.79307  1.0000
  S   S83       1.0  0.19900  0.31746  0.80080  1.0000
  S   S84       1.0  0.27366  0.32101  0.79096  1.0000
  Fe  Fe43      1.0  0.20418  0.38711  0.78486  1.0000
  S   S85       1.0  0.16763  0.36854  0.79112  1.0000
  S   S86       1.0  0.19954  0.42775  0.77542  1.0000
  Fe  Fe44      1.0  0.18620  0.35233  0.81183  1.0000
  S   S87       1.0  0.16893  0.35875  0.83552  1.0000
  Fe  Fe45      1.0  0.18324  0.33568  0.77950  1.0000
  S   S88       1.0  0.16078  0.31203  0.76484  1.0000
  S   S89       1.0  0.22262  0.37178  0.80593  1.0000
  S   S90       1.0  0.21822  0.35513  0.77138  1.0000
  Fe  Fe46      1.0  0.03847  0.35818  0.88311  1.0000
  S   S91       1.0  0.02107  0.39317  0.87307  1.0000
  S   S92       1.0  0.06176  0.33568  0.86652  1.0000
  Fe  Fe47      1.0  0.01238  0.36351  0.91498  1.0000
  H   H442      1.0  0.08081  0.32202  0.94373  1.0000
  Fe  Fe48      1.0  0.02988  0.40845  0.89522  1.0000
  H   H443      1.0  0.09183  0.37778  0.77635  1.0000
  H   H444      1.0  0.03950  0.33013  0.83743  1.0000
  S   S93       1.0  0.04979  0.37453  0.90457  1.0000
  C   C551      1.0  0.01272  0.35706  0.95821  1.0000
  C   C552      1.0  0.37540  0.23300  0.89119  1.0000
  C   C553      1.0  0.02832  0.45423  0.84109  1.0000
  H   H445      1.0  0.43662  0.24034  0.86686  1.0000
  H   H446      1.0  0.02352  0.28912  0.75607  1.0000
  H   H447      1.0  0.08336  0.31922  0.78359  1.0000
  C   C554      1.0  0.01967  0.30431  0.76328  1.0000
  C   C555      1.0  0.47894  0.04599  0.85949  1.0000
  C   C556      1.0  0.29913  0.16750  0.76213  1.0000
  S   S94       1.0  0.05019  0.44441  0.89613  1.0000
  H   H448      1.0  0.35837  0.23091  0.89807  1.0000
  C   C557      1.0  0.13814  0.35382  0.84307  1.0000
  C   C558      1.0  0.12168  0.33804  0.83668  1.0000
  C   C559      1.0  0.09828  0.33300  0.84390  1.0000
  C   C560      1.0  0.09081  0.34395  0.85739  1.0000
  C   C561      1.0  0.10701  0.36019  0.86356  1.0000
  C   C562      1.0  0.13050  0.36510  0.85643  1.0000
  H   H449      1.0  0.12729  0.32905  0.82649  1.0000
  H   H450      1.0  0.08602  0.32025  0.83912  1.0000
  H   H451      1.0  0.10158  0.36864  0.87394  1.0000
  H   H452      1.0  0.14305  0.37735  0.86146  1.0000
  C   C563      1.0  0.20868  0.45634  0.78257  1.0000
  C   C564      1.0  0.19816  0.47884  0.77668  1.0000
  C   C565      1.0  0.22603  0.45730  0.79386  1.0000
  H   H453      1.0  0.18470  0.47843  0.76797  1.0000
  H   H454      1.0  0.23454  0.44030  0.79838  1.0000
  C   C566      1.0  0.31496  0.24452  0.79539  1.0000
  C   C567      1.0  0.28947  0.24641  0.79948  1.0000
  C   C568      1.0  0.27639  0.26933  0.79790  1.0000
  C   C569      1.0  0.28865  0.29098  0.79231  1.0000
  C   C570      1.0  0.31405  0.28898  0.78797  1.0000
  C   C571      1.0  0.32704  0.26600  0.78938  1.0000
  H   H455      1.0  0.27976  0.23003  0.80407  1.0000
  H   H456      1.0  0.25694  0.27033  0.80129  1.0000
  H   H457      1.0  0.32383  0.30544  0.78358  1.0000
  H   H458      1.0  0.34654  0.26502  0.78610  1.0000
  C   C572      1.0  0.39908  0.09919  0.83979  1.0000
  C   C573      1.0  0.37393  0.09322  0.83956  1.0000
  C   C574      1.0  0.36425  0.07335  0.84915  1.0000
  C   C575      1.0  0.37969  0.05882  0.85879  1.0000
  C   C576      1.0  0.40493  0.06440  0.85871  1.0000
  C   C577      1.0  0.41446  0.08457  0.84940  1.0000
  H   H459      1.0  0.36189  0.10415  0.83219  1.0000
  H   H460      1.0  0.34471  0.06917  0.84908  1.0000
  H   H461      1.0  0.41705  0.05345  0.86604  1.0000
  H   H462      1.0  0.43391  0.08878  0.84965  1.0000
  C   C578      1.0  0.45965  0.18371  0.83172  1.0000
  H   H463      1.0  0.15826  0.36487  0.90464  1.0000
  H   H464      1.0  0.03037  0.48988  0.92947  1.0000
  C   C579      1.0  0.03672  0.47971  0.93960  1.0000
  C   C580      1.0  0.29970  0.15561  0.78919  1.0000
  H   H465      1.0  0.02427  0.41072  0.81925  1.0000
  H   H466      1.0  0.99725  0.44833  0.90156  1.0000
  H   H467      1.0  0.04792  0.42018  0.95265  1.0000
  C   C581      1.0  0.09734  0.41747  0.92653  1.0000
  C   C582      1.0  0.46122  0.15893  0.87114  1.0000
  H   H468      1.0  0.04886  0.37991  0.76723  1.0000
  H   H469      1.0  0.33540  0.13884  0.84323  1.0000
  C   C583      1.0  0.09293  0.27349  0.81863  1.0000
  H   H470      1.0  0.48446  0.24132  0.82907  1.0000
  C   C584      1.0  0.02656  0.32474  0.78648  1.0000
  C   C585      1.0  0.44736  0.23259  0.83767  1.0000
  C   C586      1.0  0.03985  0.45400  0.93947  1.0000
  C   C587      1.0  0.10288  0.40993  0.91195  1.0000
  H   H471      1.0  0.11284  0.37953  0.89844  1.0000
  H   H472      1.0  0.32909  0.17717  0.82660  1.0000
  C   C588      1.0  0.10980  0.45905  0.83742  1.0000
  C   C589      1.0  0.35707  0.04682  0.90965  1.0000
  C   C590      1.0  0.41937  0.23825  0.87343  1.0000
  Fe  Fe49      1.0  0.39017  0.00404  0.88288  1.0000
  H   H473      1.0  0.05782  0.28639  0.82732  1.0000
  C   C591      1.0  0.08567  0.30636  0.79338  1.0000
  C   C592      1.0  0.03018  0.47003  0.89717  1.0000
  H   H474      1.0  0.39628  0.24615  0.90927  1.0000
  H   H475      1.0  0.47153  0.01806  0.84412  1.0000
  C   C593      1.0  0.15544  0.34902  0.89810  1.0000
  H   H476      1.0  0.36862  0.13694  0.86182  1.0000
  H   H477      1.0  0.18284  0.48609  0.87076  1.0000
  C   C594      1.0  0.03842  0.39775  0.81561  1.0000
  H   H478      1.0  0.35563  0.21312  0.82841  1.0000
  C   C595      1.0  0.47108  0.22678  0.83183  1.0000
  H   H479      1.0  0.99416  0.47109  0.96978  1.0000
  H   H480      1.0  0.24677  0.48071  0.80750  1.0000
  H   H481      1.0  0.38380  0.01191  0.95409  1.0000
  H   H482      1.0  0.35725  0.29957  0.80915  1.0000
  H   H483      1.0  0.04522  0.30362  0.89487  1.0000
  C   C596      1.0  0.16518  0.32442  0.95460  1.0000
  C   C597      1.0  0.99744  0.34226  0.76824  1.0000
  C   C598      1.0  0.13732  0.33144  0.90283  1.0000
  C   C599      1.0  0.15220  0.33535  0.94245  1.0000
  H   H484      1.0  0.24751  0.26517  0.76390  1.0000
  S   S95       1.0  0.42225  0.01032  0.89771  1.0000
  H   H485      1.0  0.12249  0.29556  0.89855  1.0000
  C   C600      1.0  0.35025  0.23513  0.75134  1.0000
  H   H486      1.0  0.12005  0.46839  0.82803  1.0000
  C   C601      1.0  0.05009  0.45202  0.96592  1.0000
  C   C602      1.0  0.22425  0.23307  0.76682  1.0000
  C   C603      1.0  0.23284  0.48034  0.79907  1.0000
  C   C604      1.0  0.05726  0.35773  0.74822  1.0000
  C   C605      1.0  0.26450  0.20722  0.75389  1.0000
  H   H487      1.0  0.10089  0.39277  0.80931  1.0000
  H   H488      1.0  0.04992  0.48635  0.97656  1.0000
  C   C606      1.0  0.07129  0.28802  0.81790  1.0000
  H   H489      1.0  0.05451  0.44112  0.97624  1.0000
  H   H490      1.0  0.05955  0.38361  0.97619  1.0000
  C   C607      1.0  0.03174  0.37372  0.81264  1.0000
  H   H491      1.0  0.39540  0.17316  0.86403  1.0000
  P   P17       1.0  0.29109  0.18993  0.74692  1.0000
  H   H492      1.0  0.35924  0.22044  0.87132  1.0000
  H   H493      1.0  0.35837  0.25819  0.85222  1.0000
  H   H494      1.0  0.09389  0.40606  0.95037  1.0000
  C   C608      1.0  0.24599  0.24559  0.76215  1.0000
  C   C609      1.0  0.17702  0.47046  0.82014  1.0000
  C   C610      1.0  0.22271  0.20755  0.76536  1.0000
  C   C611      1.0  0.27378  0.01016  0.93735  1.0000
  C   C612      1.0  0.00934  0.34325  0.78196  1.0000
  C   C613      1.0  0.14367  0.28586  0.95242  1.0000
  H   H495      1.0  0.34014  0.29118  0.83539  1.0000
  H   H496      1.0  0.08952  0.35054  0.80442  1.0000
  P   P18       1.0  0.04078  0.32524  0.80470  1.0000
  H   H497      1.0  0.20610  0.19772  0.76937  1.0000
  C   C614      1.0  0.04639  0.44016  0.95264  1.0000
  H   H498      1.0  0.24180  0.17466  0.75859  1.0000
  C   C615      1.0  0.43613  0.18937  0.83781  1.0000
  C   C616      1.0  0.31004  0.13259  0.78603  1.0000
  H   H499      1.0  0.10078  0.42299  0.90222  1.0000
  C   C617      1.0  0.10978  0.38529  0.90986  1.0000
  H   H500      1.0  0.43529  0.25079  0.89352  1.0000
  C   C618      1.0  0.36721  0.02990  0.92039  1.0000
  H   H501      1.0  0.30064  0.02075  0.90688  1.0000
  C   C619      1.0  0.04088  0.49198  0.95281  1.0000
  H   H502      1.0  0.11301  0.42374  0.82751  1.0000
  H   H503      1.0  0.37508  0.01995  0.98113  1.0000
  C   C620      1.0  0.09312  0.42065  0.84905  1.0000
  C   C621      1.0  0.08487  0.43300  0.86170  1.0000
  C   C622      1.0  0.08880  0.45848  0.86217  1.0000
  C   C623      1.0  0.10083  0.47191  0.84988  1.0000
  C   C624      1.0  0.42964  0.21388  0.84077  1.0000
  H   H504      1.0  0.10537  0.36252  0.94682  1.0000
  H   H505      1.0  0.17862  0.33509  0.96014  1.0000
  C   C625      1.0  0.08763  0.32189  0.91935  1.0000
  C   C626      1.0  0.07703  0.31717  0.90559  1.0000
  H   H506      1.0  0.15557  0.40376  0.81404  1.0000
  H   H507      1.0  0.04689  0.44709  0.83902  1.0000
  H   H508      1.0  0.46384  0.16495  0.82874  1.0000
  H   H509      1.0  0.12128  0.29337  0.78500  1.0000
  C   C627      1.0  0.16998  0.34629  0.88482  1.0000
  H   H510      1.0  0.18339  0.36029  0.88089  1.0000
  H   H511      1.0  0.15015  0.48488  0.89758  1.0000
  C   C628      1.0  0.03482  0.36960  0.96014  1.0000
  C   C629      1.0  0.32932  0.00581  0.92146  1.0000
  C   C630      1.0  0.31555  0.12722  0.77101  1.0000
  C   C631      1.0  0.02221  0.32190  0.83462  1.0000
  C   C632      1.0  0.11134  0.36802  0.92240  1.0000
  C   C633      1.0  0.29435  0.17302  0.77732  1.0000
  H   H512      1.0  0.20883  0.24314  0.77187  1.0000
  C   C634      1.0  0.10540  0.37569  0.93702  1.0000
  H   H513      1.0  0.07524  0.42279  0.87111  1.0000
  H   H514      1.0  0.08252  0.46767  0.87219  1.0000
  H   H515      1.0  0.28700  0.19100  0.78010  1.0000
  H   H516      1.0  0.14752  0.29147  0.87483  1.0000
  H   H517      1.0  0.09796  0.25195  0.75043  1.0000
  H   H518      1.0  0.02082  0.29563  0.91915  1.0000
  C   C635      1.0  0.03960  0.30251  0.91920  1.0000
  H   H519      1.0  0.46963  0.11296  0.84704  1.0000
  H   H520      1.0  0.43665  0.13917  0.85760  1.0000
  C   C636      1.0  0.13067  0.29674  0.94027  1.0000
  C   C637      1.0  0.13535  0.31009  0.89473  1.0000
  C   C638      1.0  0.45555  0.14115  0.86108  1.0000
  H   H521      1.0  0.14583  0.43838  0.79518  1.0000
  C   C639      1.0  0.47432  0.12607  0.85520  1.0000
  C   C640      1.0  0.14978  0.30748  0.88139  1.0000
  C   C641      1.0  0.19365  0.42065  0.88876  1.0000
  C   C642      1.0  0.16800  0.41727  0.89025  1.0000
  C   C643      1.0  0.15300  0.42444  0.87818  1.0000
  C   C644      1.0  0.16357  0.43550  0.86472  1.0000
  C   C645      1.0  0.18934  0.43900  0.86310  1.0000
  C   C646      1.0  0.20430  0.43153  0.87525  1.0000
  P   P19       1.0  0.20255  0.45567  0.84632  1.0000
  C   C647      1.0  0.18324  0.45085  0.83055  1.0000
  H   H522      1.0  0.36135  0.24059  0.76050  1.0000
  H   H523      1.0  0.17765  0.32397  0.86581  1.0000
  H   H524      1.0  0.08659  0.32195  0.89482  1.0000
  C   C648      1.0  0.10539  0.35474  0.75885  1.0000
  H   H525      1.0  0.17077  0.29130  0.96912  1.0000
  C   C649      1.0  0.39631  0.25273  0.82076  1.0000
  H   H526      1.0  0.09136  0.43641  0.92805  1.0000
  C   C650      1.0  0.11092  0.27543  0.80678  1.0000
  P   P20       1.0  0.11789  0.33570  0.91966  1.0000
  C   C651      1.0  0.16114  0.42249  0.81581  1.0000
  C   C652      1.0  0.17475  0.42691  0.82843  1.0000
  C   C653      1.0  0.23353  0.44397  0.84213  1.0000
  C   C654      1.0  0.23776  0.42572  0.83167  1.0000
  C   C655      1.0  0.26186  0.41736  0.82828  1.0000
  C   C656      1.0  0.28196  0.42707  0.83530  1.0000
  C   C657      1.0  0.27798  0.44514  0.84576  1.0000
  C   C658      1.0  0.25389  0.45355  0.84918  1.0000
  H   H527      1.0  0.20531  0.41501  0.89810  1.0000
  H   H528      1.0  0.15973  0.40923  0.90080  1.0000
  H   H529      1.0  0.13313  0.42161  0.87923  1.0000
  H   H530      1.0  0.15154  0.44151  0.85566  1.0000
  H   H531      1.0  0.22415  0.43431  0.87437  1.0000
  C   C659      1.0  0.01946  0.45697  0.85597  1.0000
  C   C660      1.0  0.02789  0.36633  0.98802  1.0000
  C   C661      1.0  0.10722  0.29176  0.79413  1.0000
  C   C662      1.0  0.15538  0.44201  0.80534  1.0000
  C   C663      1.0  0.04230  0.37416  0.97490  1.0000
  H   H532      1.0  0.17350  0.44088  0.74235  1.0000
  C   C664      1.0  0.16081  0.29973  0.95965  1.0000
  H   H533      1.0  0.02020  0.45915  0.81739  1.0000
  C   C665      1.0  0.24894  0.01683  0.94005  1.0000
  H   H534      1.0  0.17941  0.41141  0.83627  1.0000
  H   H535      1.0  0.03650  0.44470  0.92924  1.0000
  H   H536      1.0  0.26494  0.40346  0.82007  1.0000
  H   H537      1.0  0.30063  0.42068  0.83252  1.0000
  H   H538      1.0  0.29362  0.45280  0.85110  1.0000
  H   H539      1.0  0.25123  0.46771  0.85723  1.0000
  H   H540      1.0  0.32481  0.10991  0.76857  1.0000
  H   H541      1.0  0.22273  0.41800  0.82588  1.0000
  C   C666      1.0  0.24287  0.19460  0.75911  1.0000
  H   H542      1.0  0.29657  0.16034  0.80084  1.0000
  C   C667      1.0  0.13441  0.32175  0.93545  1.0000
  C   C668      1.0  0.04985  0.35646  0.80815  1.0000
  H   H543      1.0  0.31511  0.13989  0.74768  1.0000
  C   C669      1.0  0.35344  0.00946  0.92625  1.0000
  H   H544      1.0  0.31482  0.11934  0.79523  1.0000
  C   C670      1.0  0.04973  0.30779  0.93291  1.0000
  C   C671      1.0  0.38627  0.00400  0.97835  1.0000
  H   H545      1.0  0.03110  0.45191  0.86542  1.0000
  H   H546      1.0  0.14041  0.26666  0.95626  1.0000
  H   H547      1.0  0.04635  0.37531  0.95026  1.0000
  C   C672      1.0  0.10598  0.43357  0.83707  1.0000
  H   H548      1.0  0.42281  0.17462  0.83940  1.0000
  H   H549      1.0  0.36812  0.06205  0.90459  1.0000
  C   C673      1.0  0.36546  0.15392  0.85489  1.0000
  C   C674      1.0  0.34679  0.15492  0.84435  1.0000
  C   C675      1.0  0.34323  0.17646  0.83500  1.0000
  C   C676      1.0  0.35846  0.19694  0.83608  1.0000
  C   C677      1.0  0.37759  0.19596  0.84645  1.0000
  C   C678      1.0  0.38069  0.17441  0.85603  1.0000
  P   P21       1.0  0.39844  0.22175  0.84739  1.0000
  C   C679      1.0  0.00263  0.32283  0.75889  1.0000
  C   C680      1.0  0.38680  0.24782  0.83571  1.0000
  H   H550      1.0  0.21083  0.00573  0.93920  1.0000
  C   C681      1.0  0.38585  0.27149  0.81131  1.0000
  C   C682      1.0  0.36573  0.28544  0.81662  1.0000
  C   C683      1.0  0.35611  0.28070  0.83144  1.0000
  C   C684      1.0  0.36658  0.26198  0.84096  1.0000
  H   H551      1.0  0.15594  0.35443  0.93859  1.0000
  H   H552      1.0  0.11763  0.28564  0.93471  1.0000
  H   H553      1.0  0.08956  0.40105  0.84851  1.0000
  C   C685      1.0  0.39797  0.22969  0.86697  1.0000
  H   H554      1.0  0.48657  0.17610  0.77079  1.0000
  C   C686      1.0  0.09867  0.40037  0.93907  1.0000
  C   C687      1.0  0.99522  0.30610  0.81631  1.0000
  H   H555      1.0  0.38605  0.03214  0.92386  1.0000
  H   H556      1.0  0.39300  0.27478  0.79971  1.0000
  C   C688      1.0  0.01796  0.31650  0.81961  1.0000
  H   H557      1.0  0.41140  0.24175  0.81616  1.0000
  C   C689      1.0  0.47721  0.20232  0.82886  1.0000
  C   C690      1.0  0.16295  0.46604  0.80766  1.0000
  C   C691      1.0  0.33297  0.04356  0.90497  1.0000
  C   C692      1.0  0.33141  0.21780  0.75442  1.0000
  C   C693      1.0  0.07489  0.36351  0.80718  1.0000
  H   H558      1.0  0.04380  0.28999  0.78047  1.0000
  H   H559      1.0  0.44262  0.25177  0.83937  1.0000
  C   C694      1.0  0.26601  0.23280  0.75565  1.0000
  H   H560      1.0  0.28282  0.24287  0.75246  1.0000
  C   C695      1.0  0.99835  0.34922  0.97131  1.0000
  C   C696      1.0  0.16691  0.32569  0.87636  1.0000
  C   C697      1.0  0.01326  0.46094  0.82894  1.0000
  H   H561      1.0  0.07950  0.29397  0.74900  1.0000
  C   C698      1.0  0.31015  0.14454  0.75911  1.0000
  H   H562      1.0  0.28822  0.02291  0.93978  1.0000
  C   C699      1.0  0.05330  0.30708  0.90556  1.0000
  C   C700      1.0  0.00573  0.35393  0.98605  1.0000
  H   H563      1.0  0.32551  0.05629  0.89626  1.0000
  C   C701      1.0  0.41871  0.24417  0.88862  1.0000
  H   H564      1.0  0.46655  0.03797  0.86843  1.0000
  C   C702      1.0  0.06325  0.40481  0.81416  1.0000
  C   C703      1.0  0.20489  0.48820  0.84969  1.0000
  H   H565      1.0  0.44669  0.17086  0.87550  1.0000
  C   C704      1.0  0.07360  0.31749  0.93301  1.0000
  C   C705      1.0  0.31907  0.02324  0.91091  1.0000
  C   C706      1.0  0.37599  0.22707  0.87601  1.0000
  C   C707      1.0  0.06758  0.30475  0.80532  1.0000
  H   H566      1.0  0.03868  0.30517  0.94342  1.0000
  H   H567      1.0  0.09591  0.26095  0.82850  1.0000
  C   C708      1.0  0.47815  0.00872  0.99058  1.0000
  H   H568      1.0  0.06836  0.42348  0.81641  1.0000
  C   C709      1.0  0.23008  0.00054  0.93711  1.0000
  H   H569      1.0  0.24432  0.03465  0.94444  1.0000
  H   H570      1.0  0.32820  0.21020  0.76597  1.0000
  H   H571      1.0  0.15902  0.48108  0.79936  1.0000
  S   S96       1.0  0.00234  0.34360  0.89416  1.0000
  C   C710      1.0  0.08150  0.38762  0.81008  1.0000
  H   H572      1.0  0.26475  0.31323  0.75210  1.0000
  C   C711      1.0  0.06305  0.36959  0.76123  1.0000
  C   C712      1.0  0.39675  0.24156  0.89750  1.0000
  S   S97       1.0  0.00262  0.34984  0.93987  1.0000
  C   C713      1.0  0.39115  0.99939  0.96287  1.0000
  H   H573      1.0  0.00461  0.35819  0.78912  1.0000
  C   C714      1.0  0.03137  0.30506  0.77709  1.0000
  H   H574      1.0  0.01242  0.36850  0.81418  1.0000
  C   C715      1.0  0.08717  0.36830  0.76645  1.0000
  H   H575      1.0  0.47512  0.00652  0.90017  1.0000
  H   H576      1.0  0.13207  0.47469  0.87363  1.0000
  H   H577      1.0  0.46861  0.01946  0.98175  1.0000
  C   C716      1.0  0.48179  0.03473  0.84575  1.0000
  H   H578      1.0  0.12413  0.35348  0.76291  1.0000
  C   C717      1.0  0.04745  0.47781  0.96603  1.0000
  H   H579      1.0  0.18364  0.48901  0.82123  1.0000
  H   H580      1.0  0.36211  0.99621  0.93410  1.0000
  C   C718      1.0  0.26143  0.30298  0.74221  1.0000
  C   C719      1.0  0.99567  0.46659  0.85873  1.0000
  C   C720      1.0  0.16421  0.31678  0.74488  1.0000
  H   H581      1.0  0.18330  0.35147  0.74512  1.0000
  H   H582      1.0  0.00738  0.32177  0.85763  1.0000
  C   C721      1.0  0.00398  0.31724  0.84611  1.0000
  H   H583      1.0  0.13526  0.46633  0.74552  1.0000
  C   C722      1.0  0.48567  0.16144  0.87544  1.0000
  H   H584      1.0  0.48907  0.07628  0.87235  1.0000
  H   H585      1.0  0.03849  0.35903  0.74448  1.0000
  C   C723      1.0  0.31683  0.21059  0.74270  1.0000
  H   H586      1.0  0.22245  0.31207  0.74220  1.0000
  C   C724      1.0  0.09962  0.34278  0.74592  1.0000
  C   C725      1.0  0.49276  0.20396  0.78646  1.0000
  H   H587      1.0  0.49011  0.17529  0.88319  1.0000
  C   C726      1.0  0.49189  0.06758  0.86170  1.0000
  Fe  Fe50      1.0  0.39070  0.95102  0.06462  1.0000
  S   S98       1.0  0.36655  0.92643  0.08114  1.0000
  C   C727      1.0  0.13415  0.73509  0.22933  1.0000
  S   S99       1.0  0.40913  0.94325  0.04199  1.0000
  Fe  Fe51      1.0  0.37049  0.75771  0.15392  1.0000
  S   S100      1.0  0.35487  0.79552  0.14696  1.0000
  S   S101      1.0  0.34723  0.72197  0.15934  1.0000
  Fe  Fe52      1.0  0.42217  0.78032  0.16089  1.0000
  S   S102      1.0  0.40867  0.81912  0.15502  1.0000
  S   S103      1.0  0.46020  0.77589  0.17175  1.0000
  Fe  Fe53      1.0  0.37311  0.80833  0.16758  1.0000
  S   S104      1.0  0.35191  0.83408  0.18298  1.0000
  Fe  Fe54      1.0  0.39202  0.80334  0.13493  1.0000
  S   S105      1.0  0.40246  0.82222  0.11163  1.0000
  S   S106      1.0  0.38734  0.77065  0.17499  1.0000
  S   S107      1.0  0.40687  0.76440  0.14033  1.0000
  Fe  Fe55      1.0  0.00954  0.60755  0.03003  1.0000
  C   C728      1.0  0.46769  0.84262  0.06825  1.0000
  Fe  Fe56      1.0  0.04156  0.61715  0.05763  1.0000
  S   S108      1.0  0.03271  0.58015  0.06903  1.0000
  S   S109      1.0  0.06692  0.64037  0.07115  1.0000
  Fe  Fe57      1.0  0.03910  0.56651  0.04588  1.0000
  S   S110      1.0  0.06294  0.53332  0.04140  1.0000
  S   S111      1.0  0.05030  0.60303  0.03448  1.0000
  C   C729      1.0  0.43378  0.98889  0.24123  1.0000
  Fe  Fe58      1.0  0.22873  0.62808  0.14423  1.0000
  S   S112      1.0  0.19006  0.64388  0.14172  1.0000
  S   S113      1.0  0.26006  0.65538  0.13583  1.0000
  Fe  Fe59      1.0  0.20767  0.57670  0.15615  1.0000
  S   S114      1.0  0.16818  0.59046  0.15509  1.0000
  S   S115      1.0  0.21188  0.53684  0.16679  1.0000
  Fe  Fe60      1.0  0.17930  0.60813  0.13212  1.0000
  S   S116      1.0  0.15635  0.59894  0.11175  1.0000
  Fe  Fe61      1.0  0.18191  0.62495  0.16479  1.0000
  S   S117      1.0  0.15886  0.64693  0.18151  1.0000
  S   S118      1.0  0.21873  0.59319  0.13278  1.0000
  S   S119      1.0  0.22071  0.61035  0.16777  1.0000
  C   C730      1.0  0.21434  0.50698  0.15915  1.0000
  C   C731      1.0  0.35507  0.67150  0.11846  1.0000
  C   C732      1.0  0.22198  0.50381  0.14405  1.0000
  C   C733      1.0  0.02573  0.51007  0.05829  1.0000
  H   H588      1.0  0.22585  0.51993  0.13644  1.0000
  C   C734      1.0  0.18750  0.62832  0.22268  1.0000
  C   C735      1.0  0.18450  0.63107  0.20693  1.0000
  C   C736      1.0  0.16466  0.64509  0.20114  1.0000
  C   C737      1.0  0.14866  0.65736  0.21122  1.0000
  H   H589      1.0  0.06682  0.60747  0.17306  1.0000
  H   H590      1.0  0.19707  0.62168  0.19931  1.0000
  H   H591      1.0  0.13343  0.66851  0.20683  1.0000
  C   C738      1.0  0.17570  0.50574  0.21857  1.0000
  C   C739      1.0  0.09000  0.62737  0.08338  1.0000
  C   C740      1.0  0.10149  0.60450  0.08101  1.0000
  C   C741      1.0  0.12146  0.59604  0.08993  1.0000
  C   C742      1.0  0.13004  0.61005  0.10151  1.0000
  C   C743      1.0  0.11782  0.63239  0.10433  1.0000
  C   C744      1.0  0.09816  0.64109  0.09521  1.0000
  H   H592      1.0  0.09558  0.59371  0.07195  1.0000
  H   H593      1.0  0.13057  0.57863  0.08767  1.0000
  H   H594      1.0  0.12384  0.64313  0.11335  1.0000
  H   H595      1.0  0.08942  0.65874  0.09713  1.0000
  C   C745      1.0  0.00730  0.65689  0.09038  1.0000
  C   C746      1.0  0.37141  0.74239  0.22846  1.0000
  C   C747      1.0  0.48333  0.88111  0.07645  1.0000
  C   C748      1.0  0.44922  0.71425  0.16005  1.0000
  H   H596      1.0  0.28048  0.59338  0.19081  1.0000
  H   H597      1.0  0.03827  0.50447  0.13160  1.0000
  C   C749      1.0  0.32148  0.70492  0.15317  1.0000
  C   C750      1.0  0.31371  0.68326  0.16178  1.0000
  C   C751      1.0  0.29429  0.66848  0.15707  1.0000
  C   C752      1.0  0.28242  0.67494  0.14352  1.0000
  C   C753      1.0  0.28994  0.69680  0.13505  1.0000
  C   C754      1.0  0.30898  0.71185  0.13992  1.0000
  H   H598      1.0  0.32308  0.67762  0.17206  1.0000
  H   H599      1.0  0.28907  0.65165  0.16367  1.0000
  H   H600      1.0  0.28106  0.70206  0.12454  1.0000
  H   H601      1.0  0.31421  0.72859  0.13325  1.0000
  C   C755      1.0  0.35679  0.83212  0.20273  1.0000
  C   C756      1.0  0.34112  0.84548  0.21245  1.0000
  S   S120      1.0  0.47962  0.94104  0.04851  1.0000
  C   C757      1.0  0.37612  0.81778  0.20889  1.0000
  H   H602      1.0  0.32607  0.85655  0.20777  1.0000
  C   C758      1.0  0.40964  0.75354  0.21425  1.0000
  H   H603      1.0  0.38832  0.80743  0.20155  1.0000
  C   C759      1.0  0.39278  0.85194  0.10408  1.0000
  C   C760      1.0  0.37008  0.86264  0.10846  1.0000
  C   C761      1.0  0.36245  0.88558  0.10148  1.0000
  C   C762      1.0  0.37750  0.89819  0.09015  1.0000
  C   C763      1.0  0.40051  0.88780  0.08608  1.0000
  C   C764      1.0  0.40796  0.86470  0.09292  1.0000
  H   H604      1.0  0.35810  0.85286  0.11687  1.0000
  H   H605      1.0  0.34459  0.89339  0.10467  1.0000
  H   H606      1.0  0.41232  0.89728  0.07742  1.0000
  H   H607      1.0  0.42554  0.85658  0.08947  1.0000
  C   C765      1.0  0.21672  0.69157  0.20322  1.0000
  H   H608      1.0  0.10745  0.60550  0.15893  1.0000
  H   H609      1.0  0.45388  0.87893  0.06090  1.0000
  S   S121      1.0  0.00134  0.62595  0.05228  1.0000
  H   H610      1.0  0.33239  0.85457  0.23558  1.0000
  C   C766      1.0  0.42036  0.67544  0.10689  1.0000
  C   C767      1.0  0.43929  0.65874  0.11132  1.0000
  P   P22       1.0  0.40221  0.69116  0.12098  1.0000
  C   C768      1.0  0.37676  0.67077  0.12677  1.0000
  C   C769      1.0  0.42102  0.69858  0.13648  1.0000
  C   C770      1.0  0.44590  0.70546  0.13367  1.0000
  C   C771      1.0  0.36453  0.83067  0.23428  1.0000
  C   C772      1.0  0.41034  0.70002  0.15115  1.0000
  C   C773      1.0  0.39134  0.72090  0.11323  1.0000
  C   C774      1.0  0.36848  0.73055  0.11835  1.0000
  C   C775      1.0  0.36039  0.75402  0.11287  1.0000
  C   C776      1.0  0.37534  0.76825  0.10245  1.0000
  C   C777      1.0  0.39849  0.75911  0.09763  1.0000
  C   C778      1.0  0.40654  0.73554  0.10302  1.0000
  C   C779      1.0  0.45755  0.97185  0.22044  1.0000
  H   H611      1.0  0.44362  0.65567  0.12317  1.0000
  H   H612      1.0  0.39468  0.96496  0.10278  1.0000
  H   H613      1.0  0.39097  0.69583  0.15347  1.0000
  H   H614      1.0  0.39575  0.65159  0.14533  1.0000
  H   H615      1.0  0.35724  0.72022  0.12689  1.0000
  H   H616      1.0  0.34288  0.76148  0.11706  1.0000
  H   H617      1.0  0.36941  0.78675  0.09853  1.0000
  H   H618      1.0  0.41044  0.77073  0.09008  1.0000
  H   H619      1.0  0.42482  0.72905  0.09952  1.0000
  H   H620      1.0  0.27430  0.71942  0.18082  1.0000
  C   C780      1.0  0.09897  0.50382  0.10706  1.0000
  C   C781      1.0  0.33534  0.86478  0.14505  1.0000
  C   C782      1.0  0.31703  0.87977  0.13831  1.0000
  C   C783      1.0  0.32113  0.90513  0.13527  1.0000
  C   C784      1.0  0.34358  0.91545  0.13893  1.0000
  C   C785      1.0  0.36248  0.90027  0.14512  1.0000
  C   C786      1.0  0.35804  0.87491  0.14837  1.0000
  P   P23       1.0  0.39050  0.91371  0.15124  1.0000
  C   C787      1.0  0.41633  0.89269  0.14844  1.0000
  C   C788      1.0  0.39828  0.94136  0.13941  1.0000
  C   C789      1.0  0.46705  0.86850  0.06785  1.0000
  H   H621      1.0  0.36061  0.62420  0.15318  1.0000
  H   H622      1.0  0.31399  0.63753  0.22115  1.0000
  C   C790      1.0  0.01470  0.61838  0.11278  1.0000
  C   C791      1.0  0.39338  0.94264  0.12388  1.0000
  C   C792      1.0  0.43378  0.88795  0.15969  1.0000
  C   C793      1.0  0.45334  0.87114  0.15742  1.0000
  C   C794      1.0  0.45595  0.85945  0.14380  1.0000
  C   C795      1.0  0.43931  0.86493  0.13230  1.0000
  C   C796      1.0  0.41957  0.88147  0.13461  1.0000
  C   C797      1.0  0.38381  0.91836  0.17109  1.0000
  C   C798      1.0  0.38412  0.89793  0.18182  1.0000
  C   C799      1.0  0.37781  0.90093  0.19710  1.0000
  C   C800      1.0  0.37062  0.92423  0.20178  1.0000
  C   C801      1.0  0.36941  0.94450  0.19113  1.0000
  C   C802      1.0  0.37563  0.94153  0.17580  1.0000
  H   H623      1.0  0.33194  0.84527  0.14785  1.0000
  H   H624      1.0  0.29959  0.87175  0.13560  1.0000
  H   H625      1.0  0.30682  0.91678  0.13017  1.0000
  H   H626      1.0  0.34608  0.93525  0.13698  1.0000
  H   H627      1.0  0.37186  0.86299  0.15375  1.0000
  C   C803      1.0  0.34876  0.68716  0.22857  1.0000
  C   C804      1.0  0.04753  0.50724  0.04948  1.0000
  H   H628      1.0  0.31788  0.78931  0.22619  1.0000
  H   H629      1.0  0.37398  0.75303  0.20448  1.0000
  H   H630      1.0  0.38519  0.92715  0.11875  1.0000
  H   H631      1.0  0.43218  0.89683  0.17030  1.0000
  H   H632      1.0  0.46615  0.86666  0.16636  1.0000
  H   H633      1.0  0.47052  0.84572  0.14230  1.0000
  H   H634      1.0  0.44116  0.85571  0.12177  1.0000
  H   H635      1.0  0.40661  0.88519  0.12568  1.0000
  H   H636      1.0  0.38871  0.87946  0.17837  1.0000
  H   H637      1.0  0.37798  0.88497  0.20524  1.0000
  H   H638      1.0  0.36541  0.92640  0.21361  1.0000
  C   C805      1.0  0.34268  0.66254  0.22650  1.0000
  H   H639      1.0  0.29238  0.71408  0.22206  1.0000
  H   H640      1.0  0.29847  0.79671  0.17965  1.0000
  H   H641      1.0  0.31377  0.75397  0.17599  1.0000
  H   H642      1.0  0.44350  0.93814  0.21241  1.0000
  C   C806      1.0  0.12784  0.66880  0.06306  1.0000
  C   C807      1.0  0.10892  0.68486  0.05812  1.0000
  C   C808      1.0  0.10455  0.70705  0.06508  1.0000
  C   C809      1.0  0.11900  0.71310  0.07707  1.0000
  C   C810      1.0  0.13800  0.69697  0.08220  1.0000
  C   C811      1.0  0.14232  0.67476  0.07505  1.0000
  P   P24       1.0  0.15512  0.70430  0.09852  1.0000
  C   C812      1.0  0.13726  0.69590  0.11583  1.0000
  C   C813      1.0  0.18436  0.68750  0.09914  1.0000
  C   C814      1.0  0.20712  0.69990  0.09703  1.0000
  C   C815      1.0  0.22950  0.68663  0.09820  1.0000
  C   C816      1.0  0.22934  0.66093  0.10127  1.0000
  C   C817      1.0  0.20682  0.64849  0.10326  1.0000
  C   C818      1.0  0.18447  0.66175  0.10249  1.0000
  C   C819      1.0  0.11128  0.69442  0.11590  1.0000
  C   C820      1.0  0.09783  0.68680  0.12925  1.0000
  C   C821      1.0  0.11017  0.68101  0.14266  1.0000
  C   C822      1.0  0.13593  0.68314  0.14278  1.0000
  C   C823      1.0  0.14943  0.69064  0.12944  1.0000
  C   C824      1.0  0.16101  0.73720  0.09712  1.0000
  C   C825      1.0  0.15950  0.75095  0.11008  1.0000
  C   C826      1.0  0.16447  0.77637  0.10885  1.0000
  C   C827      1.0  0.17106  0.78819  0.09473  1.0000
  C   C828      1.0  0.17272  0.77458  0.08180  1.0000
  C   C829      1.0  0.16778  0.74916  0.08298  1.0000
  H   H643      1.0  0.13060  0.65119  0.05799  1.0000
  H   H644      1.0  0.09713  0.67965  0.04922  1.0000
  H   H645      1.0  0.08954  0.71921  0.06138  1.0000
  H   H646      1.0  0.11497  0.73012  0.08254  1.0000
  H   H647      1.0  0.15633  0.66157  0.07879  1.0000
  H   H648      1.0  0.20780  0.71979  0.09476  1.0000
  H   H649      1.0  0.24702  0.69625  0.09696  1.0000
  H   H650      1.0  0.24665  0.65070  0.10245  1.0000
  H   H651      1.0  0.20660  0.62856  0.10574  1.0000
  H   H652      1.0  0.16726  0.65184  0.10459  1.0000
  H   H653      1.0  0.10134  0.69861  0.10566  1.0000
  H   H654      1.0  0.07785  0.68510  0.12915  1.0000
  H   H655      1.0  0.09985  0.67482  0.15297  1.0000
  H   H656      1.0  0.14550  0.67863  0.15320  1.0000
  H   H657      1.0  0.16940  0.69211  0.12974  1.0000
  H   H658      1.0  0.15459  0.74215  0.12114  1.0000
  H   H659      1.0  0.16329  0.78690  0.11888  1.0000
  H   H660      1.0  0.17495  0.80787  0.09380  1.0000
  H   H661      1.0  0.17793  0.78371  0.07086  1.0000
  H   H662      1.0  0.16936  0.73879  0.07289  1.0000
  P   P25       1.0  0.20168  0.54704  0.22677  1.0000
  H   H663      1.0  0.39528  0.80630  0.22918  1.0000
  C   C830      1.0  0.44078  0.95236  0.22044  1.0000
  C   C831      1.0  0.25518  0.75521  0.23574  1.0000
  H   H664      1.0  0.07531  0.56158  0.09831  1.0000
  C   C832      1.0  0.22431  0.68261  0.18927  1.0000
  C   C833      1.0  0.31636  0.78087  0.21553  1.0000
  Fe  Fe62      1.0  0.40011  0.98286  0.03423  1.0000
  P   P26       1.0  0.33822  0.73798  0.22914  1.0000
  C   C834      1.0  0.24498  0.69272  0.18121  1.0000
  H   H665      1.0  0.42300  0.66730  0.06889  1.0000
  H   H666      1.0  0.21393  0.66800  0.18463  1.0000
  C   C835      1.0  0.47655  0.98107  0.01323  1.0000
  C   C836      1.0  0.17461  0.56436  0.22049  1.0000
  C   C837      1.0  0.17093  0.56861  0.20487  1.0000
  C   C838      1.0  0.15035  0.58230  0.19981  1.0000
  C   C839      1.0  0.13329  0.59188  0.21026  1.0000
  C   C840      1.0  0.25058  0.79993  0.23468  1.0000
  C   C841      1.0  0.15689  0.57338  0.23093  1.0000
  H   H667      1.0  0.25745  0.81792  0.23719  1.0000
  C   C842      1.0  0.18565  0.72639  0.22784  1.0000
  H   H668      1.0  0.45478  0.83290  0.06173  1.0000
  H   H669      1.0  0.00659  0.57439  0.09847  1.0000
  H   H670      1.0  0.39896  0.69000  0.08801  1.0000
  C   C843      1.0  0.48407  0.95042  0.10002  1.0000
  H   H671      1.0  0.13872  0.66336  0.23473  1.0000
  S   S122      1.0  0.99897  0.56980  0.04052  1.0000
  H   H672      1.0  0.41580  0.70956  0.17407  1.0000
  H   H673      1.0  0.18404  0.56166  0.19651  1.0000
  H   H674      1.0  0.14810  0.58627  0.18776  1.0000
  H   H675      1.0  0.48255  0.90117  0.07575  1.0000
  C   C844      1.0  0.23450  0.55274  0.20160  1.0000
  H   H676      1.0  0.11802  0.60346  0.20629  1.0000
  C   C845      1.0  0.42769  0.66507  0.08072  1.0000
  C   C846      1.0  0.33409  0.97997  0.11126  1.0000
  H   H677      1.0  0.12362  0.59535  0.23391  1.0000
  C   C847      1.0  0.04613  0.59827  0.13786  1.0000
  H   H678      1.0  0.18128  0.72712  0.20347  1.0000
  C   C848      1.0  0.02881  0.65610  0.09868  1.0000
  H   H679      1.0  0.02799  0.60208  0.15998  1.0000
  C   C849      1.0  0.32881  0.91727  0.24061  1.0000
  H   H680      1.0  0.00485  0.67125  0.08139  1.0000
  C   C850      1.0  0.06928  0.59652  0.13008  1.0000
  H   H681      1.0  0.10906  0.59785  0.13160  1.0000
  C   C851      1.0  0.15166  0.65455  0.22704  1.0000
  C   C852      1.0  0.30049  0.67522  0.22130  1.0000
  H   H682      1.0  0.36755  0.69142  0.23128  1.0000
  C   C853      1.0  0.41579  0.98272  0.13613  1.0000
  C   C854      1.0  0.34475  0.84451  0.22819  1.0000
  S   S123      1.0  0.42507  0.96450  0.07442  1.0000
  H   H683      1.0  0.14777  0.49580  0.10137  1.0000
  C   C855      1.0  0.17213  0.72837  0.21452  1.0000
  C   C856      1.0  0.38400  0.74978  0.21474  1.0000
  C   C857      1.0  0.08853  0.50869  0.08063  1.0000
  H   H684      1.0  0.41579  0.96003  0.15704  1.0000
  H   H685      1.0  0.44273  0.75296  0.22708  1.0000
  H   H686      1.0  0.35674  0.64810  0.22764  1.0000
  C   C858      1.0  0.03263  0.63690  0.10978  1.0000
  H   H687      1.0  0.20256  0.61700  0.22698  1.0000
  H   H688      1.0  0.20096  0.77380  0.21976  1.0000
  H   H689      1.0  0.45997  0.72086  0.16906  1.0000
  C   C859      1.0  0.41421  0.67804  0.09157  1.0000
  C   C860      1.0  0.35913  0.63738  0.14347  1.0000
  C   C861      1.0  0.09125  0.59910  0.13768  1.0000
  H   H690      1.0  0.22443  0.53796  0.19701  1.0000
  H   H691      1.0  0.46584  0.97026  0.02188  1.0000
  H   H692      1.0  0.99951  0.63208  0.14763  1.0000
  C   C862      1.0  0.33731  0.63880  0.13544  1.0000
  H   H693      1.0  0.04957  0.63677  0.11586  1.0000
  H   H694      1.0  0.09180  0.53580  0.12006  1.0000
  S   S124      1.0  0.37808  0.98954  0.05636  1.0000
  C   C863      1.0  0.30651  0.69981  0.22337  1.0000
  H   H695      1.0  0.32827  0.96082  0.11280  1.0000
  H   H696      1.0  0.04300  0.66988  0.09604  1.0000
  C   C864      1.0  0.06744  0.60451  0.16104  1.0000
  C   C865      1.0  0.08033  0.53291  0.08269  1.0000
  C   C866      1.0  0.44704  0.64907  0.08514  1.0000
  H   H697      1.0  0.41766  0.95547  0.99511  1.0000
  C   C867      1.0  0.33536  0.65573  0.12289  1.0000
  Fe  Fe63      1.0  0.44255  0.95982  0.05149  1.0000
  C   C868      1.0  0.13649  0.58732  0.22581  1.0000
  C   C869      1.0  0.31399  0.76127  0.18712  1.0000
  C   C870      1.0  0.45403  0.99012  0.23082  1.0000
  C   C871      1.0  0.01484  0.53560  0.10059  1.0000
  H   H698      1.0  0.35320  0.68443  0.10867  1.0000
  C   C872      1.0  0.03105  0.51978  0.12449  1.0000
  C   C873      1.0  0.04540  0.60174  0.15350  1.0000
  C   C874      1.0  0.01328  0.55940  0.10591  1.0000
  C   C875      1.0  0.02316  0.55520  0.99418  1.0000
  C   C876      1.0  0.25339  0.56439  0.19259  1.0000
  C   C877      1.0  0.14643  0.73220  0.21532  1.0000
  C   C878      1.0  0.32489  0.75656  0.21363  1.0000
  H   H699      1.0  0.48560  0.80927  0.07724  1.0000
  C   C879      1.0  0.19886  0.51523  0.22184  1.0000
  H   H700      1.0  0.08449  0.54208  0.99751  1.0000
  C   C880      1.0  0.08156  0.54271  0.09686  1.0000
  C   C881      1.0  0.21875  0.77481  0.22491  1.0000
  C   C882      1.0  0.22960  0.71093  0.20918  1.0000
  C   C883      1.0  0.32375  0.74693  0.19926  1.0000
  H   H701      1.0  0.01895  0.52835  0.06068  1.0000
  C   C884      1.0  0.45999  0.71297  0.14547  1.0000
  C   C885      1.0  0.42439  0.70782  0.16288  1.0000
  H   H702      1.0  0.45744  0.63899  0.07673  1.0000
  H   H703      1.0  0.36314  0.96239  0.19473  1.0000
  H   H704      1.0  0.22547  0.66821  0.23004  1.0000
  C   C886      1.0  0.49146  0.77429  0.16420  1.0000
  C   C887      1.0  0.02391  0.51581  0.10981  1.0000
  C   C888      1.0  0.17072  0.63939  0.23285  1.0000
  H   H705      1.0  0.47704  0.98567  0.06443  1.0000
  C   C889      1.0  0.26621  0.58406  0.19797  1.0000
  H   H706      1.0  0.48133  0.96718  0.09282  1.0000
  C   C890      1.0  0.09857  0.49417  0.09269  1.0000
  H   H707      1.0  0.08698  0.50153  0.06959  1.0000
  H   H708      1.0  0.15906  0.51709  0.21925  1.0000
  H   H709      1.0  0.31782  0.99008  0.13253  1.0000
  H   H710      1.0  0.20051  0.68360  0.20925  1.0000
  C   C891      1.0  0.25822  0.71169  0.18714  1.0000
  H   H711      1.0  0.25753  0.55847  0.18125  1.0000
  H   H712      1.0  0.40779  0.93585  0.23050  1.0000
  C   C892      1.0  0.39887  0.96408  0.11471  1.0000
  H   H713      1.0  0.45692  0.96056  0.11706  1.0000
  C   C893      1.0  0.09034  0.60331  0.15311  1.0000
  C   C894      1.0  0.06642  0.54309  0.99256  1.0000
  H   H714      1.0  0.33102  0.72859  0.19725  1.0000
  H   H715      1.0  0.25054  0.68597  0.17029  1.0000
  H   H716      1.0  0.47913  0.71844  0.14327  1.0000
  H   H717      1.0  0.41920  0.75972  0.20364  1.0000
  H   H718      1.0  0.07038  0.59346  0.11805  1.0000
  C   C895      1.0  0.25050  0.72090  0.20103  1.0000
  C   C896      1.0  0.04642  0.55348  0.00054  1.0000
  C   C897      1.0  0.37891  0.65312  0.13907  1.0000
  H   H719      1.0  0.02559  0.49752  0.10548  1.0000
  C   C898      1.0  0.34727  0.98801  0.09793  1.0000
  C   C899      1.0  0.32510  0.94298  0.23963  1.0000
  H   H720      1.0  0.23816  0.50704  0.22302  1.0000
  P   P27       1.0  0.01805  0.59421  0.12778  1.0000
  H   H721      1.0  0.35159  0.97516  0.08925  1.0000
  C   C900      1.0  0.33069  0.70597  0.22699  1.0000
  H   H722      1.0  0.03475  0.54635  0.14130  1.0000
  C   C901      1.0  0.42292  0.74973  0.22746  1.0000
  C   C902      1.0  0.38003  0.81719  0.22456  1.0000
  H   H723      1.0  0.07315  0.54410  0.07318  1.0000
  C   C903      1.0  0.26028  0.59192  0.21244  1.0000
  H   H724      1.0  0.26074  0.73591  0.20527  1.0000
  H   H725      1.0  0.21740  0.81474  0.22462  1.0000
  C   C904      1.0  0.22824  0.56051  0.21614  1.0000
  H   H726      1.0  0.04899  0.56046  0.01160  1.0000
  H   H727      1.0  0.27003  0.60737  0.21654  1.0000
  H   H728      1.0  0.46752  0.63315  0.10391  1.0000
  C   C905      1.0  0.45275  0.64582  0.10045  1.0000
  H   H729      1.0  0.32174  0.62700  0.13899  1.0000
  C   C906      1.0  0.02917  0.54356  0.12990  1.0000
  C   C907      1.0  0.02052  0.56365  0.12056  1.0000
  C   C908      1.0  0.09080  0.52814  0.10908  1.0000
  H   H730      1.0  0.23707  0.58699  0.23249  1.0000
  C   C909      1.0  0.47027  0.94667  0.11368  1.0000
  H   H731      1.0  0.45429  0.70559  0.12233  1.0000
  H   H732      1.0  0.31829  0.65690  0.11679  1.0000
  H   H733      1.0  0.28182  0.67069  0.21839  1.0000
  H   H734      1.0  0.30023  0.81391  0.20483  1.0000
  C   C910      1.0  0.30529  0.78530  0.18917  1.0000
  H   H735      1.0  0.46236  0.92169  0.13325  1.0000
  C   C911      1.0  0.47334  0.92479  0.12276  1.0000
  C   C912      1.0  0.41044  0.96119  0.14534  1.0000
  C   C913      1.0  0.30632  0.79500  0.20339  1.0000
  C   C914      1.0  0.31859  0.65658  0.22284  1.0000
  C   C915      1.0  0.24141  0.58022  0.22149  1.0000
  H   H736      1.0  0.00919  0.53267  0.08920  1.0000
  H   H737      1.0  0.30725  0.95062  0.23647  1.0000
  H   H738      1.0  0.37343  0.95716  0.16765  1.0000
  C   C916      1.0  0.40965  0.98430  0.12086  1.0000
  P   P28       1.0  0.21905  0.72292  0.22701  1.0000
  H   H739      1.0  0.13605  0.73309  0.20505  1.0000
  H   H740      1.0  0.48248  0.76588  0.14162  1.0000
  H   H741      1.0  0.01636  0.50358  0.00663  1.0000
  C   C917      1.0  0.23211  0.75313  0.22916  1.0000
  C   C918      1.0  0.42047  0.95109  0.23082  1.0000
  H   H742      1.0  0.11426  0.73818  0.22999  1.0000
  C   C919      1.0  0.22009  0.50001  0.22070  1.0000
  H   H743      1.0  0.06014  0.49951  0.01253  1.0000
  C   C920      1.0  0.48499  0.82934  0.07702  1.0000
  C   C921      1.0  0.22801  0.79811  0.22764  1.0000
  H   H744      1.0  0.00791  0.56397  0.00023  1.0000
  C   C922      1.0  0.48987  0.90641  0.11804  1.0000
  C   C923      1.0  0.41681  0.96935  0.24133  1.0000
  H   H745      1.0  0.31396  0.90506  0.23810  1.0000
  H   H746      1.0  0.47328  0.97279  0.21239  1.0000
  H   H747      1.0  0.49135  0.88935  0.12503  1.0000
  C   C924      1.0  0.41059  0.74194  0.24115  1.0000
  C   C925      1.0  0.26413  0.77849  0.23873  1.0000
  H   H748      1.0  0.26581  0.73882  0.23904  1.0000
  C   C926      1.0  0.22941  0.67571  0.24068  1.0000
  H   H749      1.0  0.29553  0.99293  0.17875  1.0000
  C   C927      1.0  0.14589  0.63544  0.36146  1.0000
  S   S125      1.0  0.46375  0.83703  0.37101  1.0000
  S   S126      1.0  0.48084  0.87875  0.40517  1.0000
  Fe  Fe64      1.0  0.35548  0.86060  0.30622  1.0000
  S   S127      1.0  0.31464  0.87035  0.30896  1.0000
  S   S128      1.0  0.38432  0.87494  0.32214  1.0000
  Fe  Fe65      1.0  0.34848  0.84653  0.27306  1.0000
  S   S129      1.0  0.30795  0.85662  0.27353  1.0000
  S   S130      1.0  0.37116  0.82999  0.25379  1.0000
  Fe  Fe66      1.0  0.31929  0.89021  0.28580  1.0000
  S   S131      1.0  0.30700  0.93020  0.27879  1.0000
  Fe  Fe67      1.0  0.30651  0.83571  0.29658  1.0000
  S   S132      1.0  0.27806  0.80500  0.30477  1.0000
  S   S133      1.0  0.35985  0.88128  0.28329  1.0000
  S   S134      1.0  0.34726  0.82470  0.29574  1.0000
  P   P29       1.0  0.10384  0.60964  0.39877  1.0000
  S   S135      1.0  0.11659  0.53041  0.36426  1.0000
  Fe  Fe68      1.0  0.15781  0.64568  0.30670  1.0000
  S   S136      1.0  0.14177  0.68398  0.30974  1.0000
  S   S137      1.0  0.17289  0.61818  0.32511  1.0000
  Fe  Fe69      1.0  0.15607  0.65268  0.27205  1.0000
  S   S138      1.0  0.13868  0.69069  0.27280  1.0000
  S   S139      1.0  0.17296  0.63157  0.25255  1.0000
  Fe  Fe70      1.0  0.16739  0.69806  0.29007  1.0000
  S   S140      1.0  0.19111  0.73366  0.28445  1.0000
  Fe  Fe71      1.0  0.11432  0.67396  0.29230  1.0000
  S   S141      1.0  0.07294  0.68024  0.29934  1.0000
  S   S142      1.0  0.18517  0.66042  0.28848  1.0000
  S   S143      1.0  0.12988  0.63526  0.29020  1.0000
  C   C928      1.0  0.34384  0.95872  0.24362  1.0000
  C   C929      1.0  0.38180  0.94357  0.28302  1.0000
  C   C930      1.0  0.04313  0.67762  0.29127  1.0000
  C   C931      1.0  0.04021  0.66989  0.27662  1.0000
  C   C932      1.0  0.01624  0.66852  0.27076  1.0000
  H   H750      1.0  0.12439  0.59569  0.42878  1.0000
  C   C933      1.0  0.02160  0.68361  0.29995  1.0000
  H   H751      1.0  0.05644  0.66529  0.26973  1.0000
  C   C934      1.0  0.15493  0.56995  0.29514  1.0000
  H   H752      1.0  0.02342  0.68994  0.31118  1.0000
  C   C935      1.0  0.13303  0.55413  0.35319  1.0000
  C   C936      1.0  0.12024  0.56883  0.34221  1.0000
  C   C937      1.0  0.13209  0.58843  0.33351  1.0000
  C   C938      1.0  0.15701  0.59355  0.33563  1.0000
  C   C939      1.0  0.16988  0.57872  0.34650  1.0000
  C   C940      1.0  0.15797  0.55919  0.35526  1.0000
  H   H753      1.0  0.10098  0.56512  0.34043  1.0000
  H   H754      1.0  0.12192  0.59966  0.32522  1.0000
  H   H755      1.0  0.18914  0.58255  0.34827  1.0000
  H   H756      1.0  0.16804  0.54833  0.36373  1.0000
  C   C941      1.0  0.15326  0.55161  0.39981  1.0000
  C   C942      1.0  0.08265  0.51142  0.33045  1.0000
  C   C943      1.0  0.11421  0.67461  0.41902  1.0000
  H   H757      1.0  0.01211  0.60803  0.39676  1.0000
  C   C944      1.0  0.25445  0.78493  0.29854  1.0000
  C   C945      1.0  0.24484  0.76585  0.30873  1.0000
  C   C946      1.0  0.22600  0.74979  0.30459  1.0000
  C   C947      1.0  0.21599  0.75265  0.29017  1.0000
  C   C948      1.0  0.22584  0.77151  0.27987  1.0000
  C   C949      1.0  0.24497  0.78734  0.28394  1.0000
  H   H758      1.0  0.25192  0.76357  0.32002  1.0000
  H   H759      1.0  0.21884  0.73553  0.31271  1.0000
  H   H760      1.0  0.21845  0.77410  0.26867  1.0000
  H   H761      1.0  0.25201  0.80174  0.27588  1.0000
  H   H762      1.0  0.06938  0.52663  0.33005  1.0000
  C   C950      1.0  0.32601  0.95739  0.30145  1.0000
  C   C951      1.0  0.31464  0.95792  0.28746  1.0000
  H   H763      1.0  0.47189  0.87361  0.48168  1.0000
  H   H764      1.0  0.20618  0.58982  0.27440  1.0000
  H   H765      1.0  0.33024  0.93974  0.30734  1.0000
  C   C952      1.0  0.41769  0.99205  0.37344  1.0000
  H   H766      1.0  0.02318  0.60910  0.29185  1.0000
  H   H767      1.0  0.40727  0.92896  0.35975  1.0000
  C   C953      1.0  0.38865  0.93219  0.29689  1.0000
  C   C954      1.0  0.44203  0.84789  0.35725  1.0000
  C   C955      1.0  0.42760  0.83058  0.35034  1.0000
  C   C956      1.0  0.40987  0.83831  0.33958  1.0000
  C   C957      1.0  0.40627  0.86357  0.33562  1.0000
  C   C958      1.0  0.42091  0.88082  0.34239  1.0000
  C   C959      1.0  0.43869  0.87313  0.35309  1.0000
  H   H768      1.0  0.42997  0.81101  0.35344  1.0000
  H   H769      1.0  0.39887  0.82475  0.33448  1.0000
  H   H770      1.0  0.41824  0.90031  0.33940  1.0000
  H   H771      1.0  0.44951  0.88673  0.35829  1.0000
  H   H772      1.0  0.12824  0.65812  0.39897  1.0000
  C   C960      1.0  0.05893  0.56779  0.36111  1.0000
  C   C961      1.0  0.13701  0.57052  0.39487  1.0000
  H   H773      1.0  0.07597  0.63138  0.37287  1.0000
  C   C962      1.0  0.12673  0.58695  0.40513  1.0000
  H   H774      1.0  0.36269  0.94246  0.27987  1.0000
  C   C963      1.0  0.08626  0.52984  0.45966  1.0000
  H   H775      1.0  0.12520  0.69121  0.41682  1.0000
  C   C964      1.0  0.14871  0.56472  0.42543  1.0000
  H   H776      1.0  0.37491  0.92245  0.30429  1.0000
  C   C965      1.0  0.02132  0.58582  0.35064  1.0000
  C   C966      1.0  0.14889  0.56712  0.28013  1.0000
  H   H777      1.0  0.20037  0.58782  0.24715  1.0000
  H   H778      1.0  0.05378  0.69948  0.35849  1.0000
  C   C967      1.0  0.03035  0.66976  0.36792  1.0000
  C   C968      1.0  0.04376  0.68295  0.35622  1.0000
  H   H779      1.0  0.34061  0.97898  0.31868  1.0000
  H   H780      1.0  0.30185  0.71633  0.25235  1.0000
  C   C969      1.0  0.33476  0.76981  0.25266  1.0000
  H   H781      1.0  0.21425  0.55145  0.29043  1.0000
  C   C970      1.0  0.23767  0.69336  0.26906  1.0000
  C   C971      1.0  0.23973  0.66801  0.26703  1.0000
  C   C972      1.0  0.01998  0.50594  0.38746  1.0000
  H   H782      1.0  0.05793  0.49342  0.38910  1.0000
  H   H783      1.0  0.20351  0.51937  0.31054  1.0000
  C   C973      1.0  0.99764  0.68196  0.29416  1.0000
  C   C974      1.0  0.01754  0.64036  0.35011  1.0000
  C   C975      1.0  0.10606  0.51466  0.32329  1.0000
  H   H784      1.0  0.21613  0.51064  0.27887  1.0000
  H   H785      1.0  0.00604  0.51896  0.46722  1.0000
  C   C976      1.0  0.07248  0.56868  0.40050  1.0000
  C   C977      1.0  0.05208  0.60882  0.39753  1.0000
  C   C978      1.0  0.23147  0.70990  0.25694  1.0000
  H   H786      1.0  0.09737  0.68661  0.43987  1.0000
  C   C979      1.0  0.14954  0.49540  0.48371  1.0000
  C   C980      1.0  0.14474  0.54342  0.27533  1.0000
  H   H787      1.0  0.15270  0.61862  0.38353  1.0000
  H   H788      1.0  0.10035  0.54344  0.45630  1.0000
  C   C981      1.0  0.00820  0.61088  0.30027  1.0000
  H   H789      1.0  0.33248  0.79466  0.27071  1.0000
  H   H790      1.0  0.23976  0.70020  0.28021  1.0000
  H   H791      1.0  0.24364  0.65515  0.27660  1.0000
  C   C982      1.0  0.20981  0.52631  0.25623  1.0000
  C   C983      1.0  0.02772  0.57127  0.39948  1.0000
  C   C984      1.0  0.47345  0.89790  0.28259  1.0000
  H   H792      1.0  0.14297  0.50442  0.28167  1.0000
  C   C985      1.0  0.99406  0.61249  0.32671  1.0000
  C   C986      1.0  0.01303  0.60838  0.31574  1.0000
  C   C987      1.0  0.42418  0.95668  0.27763  1.0000
  H   H793      1.0  0.45996  0.91862  0.32588  1.0000
  C   C988      1.0  0.03115  0.65374  0.33844  1.0000
  C   C989      1.0  0.36540  0.97517  0.35123  1.0000
  C   C990      1.0  0.33177  0.97973  0.30790  1.0000
  H   H794      1.0  0.13203  0.57199  0.38310  1.0000
  C   C991      1.0  0.01730  0.64854  0.36489  1.0000
  H   H795      1.0  0.39068  0.99274  0.32549  1.0000
  H   H796      1.0  0.02475  0.51214  0.42186  1.0000
  C   C992      1.0  0.43097  0.94524  0.29158  1.0000
  H   H797      1.0  0.43967  0.86513  0.31021  1.0000
  H   H798      1.0  0.43486  0.88757  0.28521  1.0000
  H   H799      1.0  0.37056  0.90340  0.35677  1.0000
  H   H800      1.0  0.22711  0.51854  0.35634  1.0000
  C   C993      1.0  0.02859  0.54130  0.35113  1.0000
  C   C994      1.0  0.34445  0.96055  0.35000  1.0000
  H   H801      1.0  0.02472  0.52435  0.38293  1.0000
  H   H802      1.0  0.16541  0.63655  0.35805  1.0000
  H   H803      1.0  0.07248  0.64846  0.44504  1.0000
  H   H804      1.0  0.08928  0.64866  0.34737  1.0000
  C   C995      1.0  0.15456  0.49971  0.46789  1.0000
  H   H805      1.0  0.05056  0.60657  0.35988  1.0000
  C   C996      1.0  0.21197  0.55037  0.27836  1.0000
  H   H806      1.0  0.15825  0.58828  0.29892  1.0000
  C   C997      1.0  0.46160  0.93219  0.33427  1.0000
  S   S144      1.0  0.10391  0.49759  0.40497  1.0000
  H   H807      1.0  0.15890  0.57034  0.24301  1.0000
  C   C998      1.0  0.46547  0.96636  0.35647  1.0000
  C   C999      1.0  0.44302  0.96424  0.34921  1.0000
  C   C1000     1.0  0.44170  0.94805  0.33752  1.0000
  H   H808      1.0  0.05275  0.62889  0.39653  1.0000
  C   C1001     1.0  0.47888  0.87216  0.31080  1.0000
  H   H809      1.0  0.35401  0.88730  0.24675  1.0000
  H   H810      1.0  0.46741  0.97946  0.36509  1.0000
  C   C1002     1.0  0.36648  0.94874  0.24861  1.0000
  C   C1003     1.0  0.00865  0.50458  0.42814  1.0000
  S   S145      1.0  0.48628  0.94859  0.39249  1.0000
  H   H811      1.0  0.28133  0.77997  0.24450  1.0000
  C   C1004     1.0  0.10293  0.64216  0.35541  1.0000
  H   H812      1.0  0.16746  0.51406  0.46387  1.0000
  C   C1005     1.0  0.08450  0.65053  0.43491  1.0000
  H   H813      1.0  0.43819  0.96604  0.27036  1.0000
  C   C1006     1.0  0.45294  0.88655  0.29019  1.0000
  C   C1007     1.0  0.11321  0.62294  0.38008  1.0000
  H   H814      1.0  0.07377  0.54839  0.47929  1.0000
  H   H815      1.0  0.46743  0.93479  0.44593  1.0000
  C   C1008     1.0  0.42942  0.98339  0.39954  1.0000
  H   H816      1.0  0.42479  0.94700  0.33144  1.0000
  C   C1009     1.0  0.41327  0.93256  0.30104  1.0000
  H   H817      1.0  0.47125  0.90776  0.27163  1.0000
  H   H818      1.0  0.14003  0.54126  0.26369  1.0000
  H   H819      1.0  0.43213  0.95676  0.38259  1.0000
  C   C1010     1.0  0.21296  0.52748  0.27184  1.0000
  C   C1011     1.0  0.20427  0.57087  0.25382  1.0000
  H   H820      1.0  0.13391  0.65149  0.34000  1.0000
  H   H821      1.0  0.42086  0.73915  0.25142  1.0000
  C   C1012     1.0  0.07405  0.59464  0.39869  1.0000
  C   C1013     1.0  0.48536  0.95047  0.35322  1.0000
  H   H822      1.0  0.33030  0.92332  0.35048  1.0000
  C   C1014     1.0  0.07120  0.53245  0.47275  1.0000
  C   C1015     1.0  0.12363  0.49526  0.32388  1.0000
  C   C1016     1.0  0.15914  0.54872  0.41507  1.0000
  C   C1017     1.0  0.02903  0.59713  0.39776  1.0000
  H   H823      1.0  0.30047  0.98183  0.26923  1.0000
  H   H824      1.0  0.16082  0.55190  0.31704  1.0000
  H   H825      1.0  0.48136  0.92332  0.47194  1.0000
  H   H826      1.0  0.22894  0.72931  0.25901  1.0000
  C   C1018     1.0  0.01383  0.56207  0.34728  1.0000
  H   H827      1.0  0.18315  0.72911  0.25224  1.0000
  C   C1019     1.0  0.10167  0.63420  0.41167  1.0000
  C   C1020     1.0  0.30860  0.73357  0.25606  1.0000
  C   C1021     1.0  0.29953  0.74157  0.27000  1.0000
  C   C1022     1.0  0.30820  0.76352  0.27529  1.0000
  Fe  Fe72      1.0  0.12479  0.49900  0.38225  1.0000
  C   C1023     1.0  0.14760  0.73422  0.24253  1.0000
  C   C1024     1.0  0.36907  0.92348  0.35533  1.0000
  C   C1025     1.0  0.99475  0.67464  0.27943  1.0000
  C   C1026     1.0  0.04414  0.58854  0.35740  1.0000
  H   H828      1.0  0.45002  0.94574  0.29495  1.0000
  C   C1027     1.0  0.39956  0.95552  0.27314  1.0000
  H   H829      1.0  0.06249  0.52812  0.36126  1.0000
  C   C1028     1.0  0.04413  0.67494  0.34151  1.0000
  C   C1029     1.0  0.08608  0.63166  0.42480  1.0000
  C   C1030     1.0  0.09854  0.67201  0.43201  1.0000
  H   H830      1.0  0.07651  0.56994  0.36638  1.0000
  C   C1031     1.0  0.45565  0.87388  0.30432  1.0000
  H   H831      1.0  0.11036  0.53246  0.31751  1.0000
  C   C1032     1.0  0.48313  0.93295  0.34244  1.0000
  H   H832      1.0  0.00990  0.56215  0.39960  1.0000
  H   H833      1.0  0.28580  0.73080  0.27680  1.0000
  H   H834      1.0  0.30147  0.76955  0.28618  1.0000
  C   C1033     1.0  0.38853  0.96395  0.35407  1.0000
  C   C1034     1.0  0.35132  0.90725  0.24551  1.0000
  H   H835      1.0  0.16093  0.53890  0.39183  1.0000
  C   C1035     1.0  0.13251  0.58378  0.42052  1.0000
  H   H836      1.0  0.07529  0.61500  0.42732  1.0000
  H   H837      1.0  0.08887  0.55705  0.40154  1.0000
  H   H838      1.0  0.01436  0.66288  0.25935  1.0000
  H   H839      1.0  0.15297  0.56199  0.43732  1.0000
  C   C1036     1.0  0.32575  0.77764  0.26661  1.0000
  H   H840      1.0  0.03186  0.64814  0.32692  1.0000
  C   C1037     1.0  0.09549  0.63199  0.36983  1.0000
  C   C1038     1.0  0.49064  0.86849  0.47828  1.0000
  H   H841      1.0  0.48020  0.86206  0.32172  1.0000
  C   C1039     1.0  0.20555  0.54809  0.24704  1.0000
  H   H842      1.0  0.43731  0.97078  0.40817  1.0000
  C   C1040     1.0  0.15662  0.54921  0.30538  1.0000
  C   C1041     1.0  0.30922  0.98116  0.28005  1.0000
  H   H843      1.0  0.02989  0.67612  0.37930  1.0000
  C   C1042     1.0  0.37001  0.92287  0.24956  1.0000
  C   C1043     1.0  0.11584  0.65577  0.40889  1.0000
  H   H844      1.0  0.32678  0.96924  0.34736  1.0000
  C   C1044     1.0  0.13854  0.62502  0.37582  1.0000
  C   C1045     1.0  0.05111  0.54418  0.35807  1.0000
  H   H845      1.0  0.41850  0.92250  0.31146  1.0000
  C   C1046     1.0  0.19981  0.51482  0.32252  1.0000
  H   H846      1.0  0.03182  0.60435  0.31911  1.0000
  C   C1047     1.0  0.48688  0.93580  0.44839  1.0000
  H   H847      1.0  0.17147  0.53380  0.41895  1.0000
  H   H848      1.0  0.04866  0.53718  0.40270  1.0000
  C   C1048     1.0  0.20758  0.57204  0.26934  1.0000
  C   C1049     1.0  0.19074  0.50402  0.35356  1.0000
  C   C1050     1.0  0.12811  0.64389  0.35123  1.0000
  C   C1051     1.0  0.04945  0.55716  0.40107  1.0000
  C   C1052     1.0  0.14651  0.52257  0.28555  1.0000
  P   P30       1.0  0.41613  0.98252  0.35430  1.0000
  C   C1053     1.0  0.05365  0.51425  0.47748  1.0000
  H   H849      1.0  0.05452  0.68517  0.33238  1.0000
  H   H850      1.0  0.14763  0.58335  0.27224  1.0000
  P   P31       1.0  0.15369  0.49883  0.31421  1.0000
  C   C1054     1.0  0.38997  0.93805  0.35676  1.0000
  C   C1055     1.0  0.21331  0.51439  0.34832  1.0000
  C   C1056     1.0  0.21785  0.51980  0.33279  1.0000
  C   C1057     1.0  0.23541  0.65917  0.25288  1.0000
  H   H851      1.0  0.02238  0.52293  0.34899  1.0000
  P   P32       1.0  0.39051  0.96838  0.25473  1.0000
  C   C1058     1.0  0.34637  0.93470  0.35180  1.0000
  C   C1059     1.0  0.15251  0.52534  0.30066  1.0000
  C   C1060     1.0  0.42661  0.97554  0.38495  1.0000
  H   H852      1.0  0.23521  0.52822  0.32875  1.0000
  H   H853      1.0  0.38696  0.91464  0.25387  1.0000
  H   H854      1.0  0.00696  0.63856  0.37406  1.0000
  H   H855      1.0  0.99623  0.55960  0.34211  1.0000
  H   H856      1.0  0.21067  0.50840  0.25146  1.0000
  H   H857      1.0  0.48289  0.86979  0.45429  1.0000
  P   P33       1.0  0.00137  0.61231  0.34654  1.0000
  Fe  Fe73      1.0  0.49104  0.85953  0.38380  1.0000
  H   H858      1.0  0.37569  0.73223  0.25237  1.0000
  C   C1061     1.0  0.17697  0.50454  0.32770  1.0000
  C   C1062     1.0  0.08382  0.50919  0.45116  1.0000
  H   H859      1.0  0.34857  0.78095  0.24619  1.0000
  C   C1063     1.0  0.32609  0.74784  0.24718  1.0000
  H   H860      1.0  0.23574  0.63940  0.25150  1.0000
  C   C1064     1.0  0.22760  0.70131  0.24256  1.0000
  C   C1065     1.0  0.17255  0.49916  0.34334  1.0000
  H   H861      1.0  0.34015  0.97845  0.24337  1.0000
  H   H862      1.0  0.13822  0.73704  0.25338  1.0000
  H   H863      1.0  0.18712  0.50022  0.36561  1.0000
  C   C1066     1.0  0.17317  0.72970  0.24183  1.0000
  C   C1067     1.0  0.99508  0.49995  0.39034  1.0000
  H   H864      1.0  0.09603  0.50684  0.44127  1.0000
  C   C1068     1.0  0.00334  0.52358  0.49149  1.0000
  C   C1069     1.0  0.38496  0.73811  0.24165  1.0000
  C   C1070     1.0  0.99411  0.52329  0.47684  1.0000
  C   C1071     1.0  0.05122  0.49367  0.46879  1.0000
  Fe  Fe74      1.0  0.32784  0.85419  0.67749  1.0000
  S   S146      1.0  0.29058  0.86468  0.66844  1.0000
  S   S147      1.0  0.32534  0.85029  0.70327  1.0000
  Fe  Fe75      1.0  0.35157  0.85381  0.64533  1.0000
  S   S148      1.0  0.31519  0.86326  0.63440  1.0000
  S   S149      1.0  0.38969  0.84507  0.63427  1.0000
  Fe  Fe76      1.0  0.31126  0.89167  0.65225  1.0000
  S   S150      1.0  0.29646  0.93147  0.64752  1.0000
  Fe  Fe77      1.0  0.29739  0.83524  0.65187  1.0000
  S   S151      1.0  0.26724  0.80482  0.65062  1.0000
  S   S152      1.0  0.34815  0.88317  0.66241  1.0000
  S   S153      1.0  0.33430  0.82405  0.66152  1.0000
  H   H865      1.0  0.49274  0.94689  0.59039  1.0000
  H   H866      1.0  0.11319  0.83077  0.71971  1.0000
  S   S154      1.0  0.44931  0.89429  0.57579  1.0000
  Fe  Fe78      1.0  0.13193  0.65631  0.67608  1.0000
  S   S155      1.0  0.12126  0.69507  0.66753  1.0000
  S   S156      1.0  0.12697  0.64299  0.70099  1.0000
  Fe  Fe79      1.0  0.13904  0.63778  0.64377  1.0000
  S   S157      1.0  0.12978  0.67587  0.63333  1.0000
  S   S158      1.0  0.14169  0.59896  0.63415  1.0000
  Fe  Fe80      1.0  0.15403  0.69132  0.65092  1.0000
  S   S159      1.0  0.18026  0.72471  0.64459  1.0000
  Fe  Fe81      1.0  0.09799  0.67681  0.65082  1.0000
  S   S160      1.0  0.05862  0.68472  0.64217  1.0000
  S   S161      1.0  0.16541  0.65289  0.66030  1.0000
  S   S162      1.0  0.10665  0.63864  0.66054  1.0000
  C   C1072     1.0  0.42491  0.97199  0.57571  1.0000
  C   C1073     1.0  0.27023  0.67045  0.70395  1.0000
  C   C1074     1.0  0.48322  0.95735  0.59900  1.0000
  C   C1075     1.0  0.41701  0.95687  0.56468  1.0000
  C   C1076     1.0  0.00644  0.52536  0.64213  1.0000
  Fe  Fe82      1.0  0.13226  0.50903  0.56324  1.0000
  S   S163      1.0  0.13837  0.54904  0.56992  1.0000
  H   H867      1.0  0.28186  0.89614  0.72879  1.0000
  H   H868      1.0  0.28002  0.98213  0.64186  1.0000
  H   H869      1.0  0.13556  0.51119  0.73811  1.0000
  H   H870      1.0  0.06518  0.83806  0.68198  1.0000
  H   H871      1.0  0.34266  0.92384  0.63454  1.0000
  H   H872      1.0  0.10027  0.54923  0.52609  1.0000
  H   H873      1.0  0.21059  0.58381  0.71429  1.0000
  H   H874      1.0  0.35206  0.98483  0.62724  1.0000
  H   H875      1.0  0.42676  0.69322  0.55524  1.0000
  C   C1077     1.0  0.14036  0.58567  0.61609  1.0000
  C   C1078     1.0  0.13550  0.56014  0.61570  1.0000
  C   C1079     1.0  0.13458  0.54864  0.60178  1.0000
  C   C1080     1.0  0.13878  0.56248  0.58795  1.0000
  C   C1081     1.0  0.14366  0.58800  0.58834  1.0000
  C   C1082     1.0  0.14463  0.59946  0.60226  1.0000
  H   H876      1.0  0.13255  0.54909  0.62626  1.0000
  H   H877      1.0  0.13097  0.52900  0.60176  1.0000
  H   H878      1.0  0.14717  0.59894  0.57778  1.0000
  H   H879      1.0  0.14905  0.61890  0.60227  1.0000
  H   H880      1.0  0.32453  0.90305  0.73630  1.0000
  C   C1083     1.0  0.02393  0.68560  0.66668  1.0000
  C   C1084     1.0  0.02814  0.68595  0.65092  1.0000
  C   C1085     1.0  0.00745  0.68733  0.64165  1.0000
  H   H881      1.0  0.26793  0.83949  0.73491  1.0000
  H   H882      1.0  0.03954  0.68461  0.67402  1.0000
  H   H883      1.0  0.01040  0.68784  0.62944  1.0000
  C   C1086     1.0  0.15159  0.63953  0.71359  1.0000
  C   C1087     1.0  0.14616  0.63281  0.72900  1.0000
  C   C1088     1.0  0.03795  0.60118  0.69475  1.0000
  C   C1089     1.0  0.19537  0.64002  0.71903  1.0000
  C   C1090     1.0  0.17631  0.64319  0.70863  1.0000
  C   C1091     1.0  0.01864  0.53724  0.65322  1.0000
  H   H884      1.0  0.21446  0.64279  0.71512  1.0000
  H   H885      1.0  0.18071  0.64827  0.69678  1.0000
  H   H886      1.0  0.02019  0.57221  0.58964  1.0000
  C   C1092     1.0  0.24364  0.78176  0.64909  1.0000
  C   C1093     1.0  0.22709  0.78400  0.63722  1.0000
  C   C1094     1.0  0.20812  0.76645  0.63610  1.0000
  C   C1095     1.0  0.20503  0.74616  0.64682  1.0000
  C   C1096     1.0  0.22146  0.74386  0.65883  1.0000
  C   C1097     1.0  0.24066  0.76142  0.65989  1.0000
  H   H887      1.0  0.22893  0.79943  0.62882  1.0000
  H   H888      1.0  0.19574  0.76867  0.62676  1.0000
  H   H889      1.0  0.21953  0.72837  0.66717  1.0000
  H   H890      1.0  0.25326  0.75910  0.66907  1.0000
  C   C1098     1.0  0.30779  0.96005  0.65355  1.0000
  C   C1099     1.0  0.32826  0.96098  0.66272  1.0000
  H   H891      1.0  0.21251  0.50493  0.72322  1.0000
  H   H892      1.0  0.33810  0.94406  0.66595  1.0000
  H   H893      1.0  0.36125  0.82952  0.58646  1.0000
  C   C1100     1.0  0.40570  0.85844  0.61766  1.0000
  C   C1101     1.0  0.39395  0.87426  0.60694  1.0000
  C   C1102     1.0  0.40748  0.88446  0.59402  1.0000
  C   C1103     1.0  0.43297  0.87948  0.59178  1.0000
  C   C1104     1.0  0.44470  0.86356  0.60243  1.0000
  C   C1105     1.0  0.43106  0.85281  0.61514  1.0000
  H   H894      1.0  0.37441  0.87845  0.60855  1.0000
  H   H895      1.0  0.39812  0.89638  0.58571  1.0000
  H   H896      1.0  0.46434  0.85972  0.60093  1.0000
  H   H897      1.0  0.44033  0.84032  0.62320  1.0000
  C   C1106     1.0  0.38634  0.81535  0.72059  1.0000
  C   C1107     1.0  0.36947  0.82605  0.71023  1.0000
  C   C1108     1.0  0.34726  0.83653  0.71559  1.0000
  C   C1109     1.0  0.34204  0.83621  0.73129  1.0000
  H   H898      1.0  0.37362  0.82618  0.69814  1.0000
  H   H899      1.0  0.48707  0.91730  0.50784  1.0000
  H   H900      1.0  0.18403  0.83975  0.71222  1.0000
  C   C1110     1.0  0.18991  0.63313  0.73442  1.0000
  C   C1111     1.0  0.00883  0.63018  0.61810  1.0000
  C   C1112     1.0  0.01259  0.59599  0.69542  1.0000
  C   C1113     1.0  0.00074  0.62135  0.59227  1.0000
  C   C1114     1.0  0.44334  0.87091  0.64930  1.0000
  P   P34       1.0  0.43183  0.94334  0.63385  1.0000
  C   C1115     1.0  0.40297  0.93753  0.62506  1.0000
  C   C1116     1.0  0.45337  0.95906  0.62033  1.0000
  H   H901      1.0  0.04959  0.59446  0.70389  1.0000
  H   H902      1.0  0.40598  0.77032  0.55270  1.0000
  H   H903      1.0  0.27922  0.73091  0.69217  1.0000
  C   C1117     1.0  0.27720  0.67112  0.71899  1.0000
  C   C1118     1.0  0.10830  0.57587  0.73785  1.0000
  C   C1119     1.0  0.40132  0.93945  0.60922  1.0000
  C   C1120     1.0  0.37853  0.93648  0.60259  1.0000
  C   C1121     1.0  0.35734  0.93095  0.61173  1.0000
  C   C1122     1.0  0.35895  0.92856  0.62749  1.0000
  C   C1123     1.0  0.38154  0.93208  0.63416  1.0000
  C   C1124     1.0  0.44614  0.91444  0.64060  1.0000
  C   C1125     1.0  0.47196  0.91310  0.64221  1.0000
  H   H904      1.0  0.43599  0.96664  0.68707  1.0000
  C   C1126     1.0  0.46905  0.86959  0.65055  1.0000
  C   C1127     1.0  0.45803  0.98450  0.62086  1.0000
  C   C1128     1.0  0.43188  0.89320  0.64434  1.0000
  H   H905      1.0  0.46094  0.70193  0.57202  1.0000
  H   H906      1.0  0.31687  0.78471  0.72349  1.0000
  C   C1129     1.0  0.44909  0.71693  0.56773  1.0000
  H   H907      1.0  0.26601  0.69137  0.68254  1.0000
  C   C1130     1.0  0.12750  0.56401  0.72992  1.0000
  H   H908      1.0  0.43750  0.87550  0.54540  1.0000
  H   H909      1.0  0.00153  0.59669  0.64358  1.0000
  H   H910      1.0  0.16511  0.57094  0.66298  1.0000
  C   C1131     1.0  0.16609  0.57703  0.70107  1.0000
  C   C1132     1.0  0.06363  0.56060  0.56208  1.0000
  H   H911      1.0  0.41758  0.94277  0.60191  1.0000
  H   H912      1.0  0.37745  0.93787  0.59035  1.0000
  H   H913      1.0  0.33972  0.92811  0.60666  1.0000
  H   H914      1.0  0.03962  0.59898  0.51584  1.0000
  H   H915      1.0  0.38224  0.93036  0.64643  1.0000
  C   C1133     1.0  0.41027  0.98981  0.67448  1.0000
  C   C1134     1.0  0.03766  0.56291  0.50693  1.0000
  H   H916      1.0  0.49255  0.78061  0.56045  1.0000
  C   C1135     1.0  0.42419  0.96192  0.64972  1.0000
  C   C1136     1.0  0.17283  0.55272  0.70601  1.0000
  C   C1137     1.0  0.07592  0.59505  0.57620  1.0000
  C   C1138     1.0  0.05374  0.59326  0.58509  1.0000
  P   P35       1.0  0.04916  0.61126  0.60154  1.0000
  C   C1139     1.0  0.05995  0.59273  0.61789  1.0000
  C   C1140     1.0  0.06719  0.63922  0.59889  1.0000
  C   C1141     1.0  0.09227  0.63875  0.60246  1.0000
  C   C1142     1.0  0.10667  0.66002  0.59982  1.0000
  C   C1143     1.0  0.09595  0.68216  0.59406  1.0000
  C   C1144     1.0  0.07087  0.68290  0.59063  1.0000
  C   C1145     1.0  0.05656  0.66146  0.59290  1.0000
  C   C1146     1.0  0.06453  0.60385  0.63143  1.0000
  C   C1147     1.0  0.07374  0.58964  0.64382  1.0000
  C   C1148     1.0  0.07910  0.56447  0.64272  1.0000
  C   C1149     1.0  0.07485  0.55329  0.62930  1.0000
  C   C1150     1.0  0.06541  0.56732  0.61694  1.0000
  C   C1151     1.0  0.01707  0.62080  0.60431  1.0000
  C   C1152     1.0  0.33589  0.98384  0.66779  1.0000
  C   C1153     1.0  0.00159  0.50183  0.61058  1.0000
  C   C1154     1.0  0.03493  0.49731  0.55207  1.0000
  H   H917      1.0  0.15859  0.50638  0.49163  1.0000
  H   H918      1.0  0.00483  0.58531  0.70525  1.0000
  H   H919      1.0  0.09002  0.60825  0.57841  1.0000
  H   H920      1.0  0.47787  0.85213  0.65409  1.0000
  H   H921      1.0  0.10073  0.62188  0.60723  1.0000
  H   H922      1.0  0.12613  0.65935  0.60241  1.0000
  H   H923      1.0  0.10707  0.69873  0.59232  1.0000
  H   H924      1.0  0.06252  0.70011  0.58624  1.0000
  H   H925      1.0  0.03726  0.66240  0.59002  1.0000
  H   H926      1.0  0.06203  0.62366  0.63225  1.0000
  H   H927      1.0  0.07766  0.59828  0.65411  1.0000
  H   H928      1.0  0.08736  0.55386  0.65210  1.0000
  H   H929      1.0  0.07985  0.53398  0.62823  1.0000
  H   H930      1.0  0.06353  0.55830  0.60651  1.0000
  H   H931      1.0  0.00686  0.61572  0.58119  1.0000
  C   C1155     1.0  0.27860  0.71426  0.69971  1.0000
  H   H932      1.0  0.28937  0.73283  0.71909  1.0000
  C   C1156     1.0  0.01675  0.56294  0.65380  1.0000
  H   H933      1.0  0.02131  0.63166  0.62724  1.0000
  C   C1157     1.0  0.32010  0.90641  0.72452  1.0000
  H   H934      1.0  0.43561  0.84558  0.56772  1.0000
  H   H935      1.0  0.42796  0.94069  0.56185  1.0000
  C   C1158     1.0  0.46602  0.94559  0.60926  1.0000
  H   H936      1.0  0.44832  0.94194  0.66543  1.0000
  H   H937      1.0  0.36087  0.98586  0.59950  1.0000
  H   H938      1.0  0.24981  0.59808  0.72369  1.0000
  H   H939      1.0  0.32507  0.84464  0.73547  1.0000
  C   C1159     1.0  0.09515  0.81155  0.68008  1.0000
  C   C1160     1.0  0.39502  0.96260  0.55734  1.0000
  H   H940      1.0  0.15169  0.69006  0.71524  1.0000
  H   H941      1.0  0.19572  0.71184  0.72608  1.0000
  H   H942      1.0  0.05368  0.50206  0.54875  1.0000
  H   H943      1.0  0.30274  0.91731  0.68234  1.0000
  H   H944      1.0  0.06787  0.62001  0.68214  1.0000
  H   H945      1.0  0.03006  0.52658  0.66115  1.0000
  H   H946      1.0  0.39526  0.82066  0.56815  1.0000
  H   H947      1.0  0.33066  0.72164  0.72320  1.0000
  P   P36       1.0  0.36939  0.92123  0.71889  1.0000
  H   H948      1.0  0.16292  0.59098  0.70918  1.0000
  C   C1161     1.0  0.39236  0.90921  0.70574  1.0000
  C   C1162     1.0  0.41657  0.91860  0.70488  1.0000
  C   C1163     1.0  0.43486  0.90827  0.69547  1.0000
  C   C1164     1.0  0.42913  0.88848  0.68688  1.0000
  C   C1165     1.0  0.40511  0.87901  0.68766  1.0000
  C   C1166     1.0  0.38685  0.88917  0.69716  1.0000
  H   H949      1.0  0.45475  0.81640  0.51646  1.0000
  C   C1167     1.0  0.45302  0.74116  0.57171  1.0000
  C   C1168     1.0  0.47891  0.97886  0.49848  1.0000
  C   C1169     1.0  0.33833  0.91436  0.71352  1.0000
  H   H950      1.0  0.18236  0.51618  0.69863  1.0000
  H   H951      1.0  0.44201  0.96752  0.58132  1.0000
  H   H952      1.0  0.34577  0.92370  0.68960  1.0000
  C   C1170     1.0  0.46415  0.86573  0.74012  1.0000
  S   S164      1.0  0.10348  0.50303  0.54595  1.0000
  H   H953      1.0  0.45356  0.91540  0.69494  1.0000
  C   C1171     1.0  0.47420  0.80735  0.59300  1.0000
  H   H954      1.0  0.17779  0.69909  0.69179  1.0000
  H   H955      1.0  0.26404  0.65322  0.69981  1.0000
  H   H956      1.0  0.43222  0.85447  0.65186  1.0000
  H   H957      1.0  0.48338  0.92925  0.63954  1.0000
  H   H958      1.0  0.41200  0.89347  0.64318  1.0000
  H   H959      1.0  0.44338  0.88026  0.67979  1.0000
  H   H960      1.0  0.40063  0.86353  0.68108  1.0000
  H   H961      1.0  0.36860  0.88103  0.69795  1.0000
  P   P37       1.0  0.03555  0.51615  0.49509  1.0000
  H   H962      1.0  0.46249  0.92598  0.60847  1.0000
  C   C1172     1.0  0.40686  0.98146  0.64806  1.0000
  H   H963      1.0  0.06226  0.50144  0.59789  1.0000
  C   C1173     1.0  0.04888  0.53938  0.50607  1.0000
  H   H964      1.0  0.40360  0.80739  0.71641  1.0000
  H   H965      1.0  0.36207  0.81178  0.61303  1.0000
  H   H966      1.0  0.27073  0.90368  0.70189  1.0000
  C   C1174     1.0  0.04853  0.58101  0.51505  1.0000
  C   C1175     1.0  0.07100  0.57603  0.52202  1.0000
  C   C1176     1.0  0.08261  0.55294  0.52089  1.0000
  C   C1177     1.0  0.00782  0.62018  0.67160  1.0000
  H   H967      1.0  0.42149  0.93360  0.71164  1.0000
  C   C1178     1.0  0.21792  0.57442  0.72436  1.0000
  C   C1179     1.0  0.28512  0.69341  0.72451  1.0000
  H   H968      1.0  0.07954  0.59009  0.52823  1.0000
  C   C1180     1.0  0.24239  0.76656  0.72178  1.0000
  H   H969      1.0  0.15780  0.60232  0.68199  1.0000
  H   H970      1.0  0.45256  0.78607  0.53865  1.0000
  H   H971      1.0  0.39694  0.78464  0.62122  1.0000
  C   C1181     1.0  0.49221  0.99079  0.56002  1.0000
  C   C1182     1.0  0.99944  0.68662  0.67300  1.0000
  C   C1183     1.0  0.38103  0.98357  0.56093  1.0000
  C   C1184     1.0  0.02506  0.51087  0.60568  1.0000
  H   H972      1.0  0.00881  0.50549  0.64161  1.0000
  C   C1185     1.0  0.16522  0.62965  0.73939  1.0000
  C   C1186     1.0  0.39051  0.96480  0.72778  1.0000
  C   C1187     1.0  0.24035  0.58252  0.72962  1.0000
  P   P38       1.0  0.17553  0.54471  0.72612  1.0000
  H   H973      1.0  0.34549  0.96368  0.70179  1.0000
  H   H974      1.0  0.04139  0.63647  0.66144  1.0000
  H   H975      1.0  0.45926  0.87733  0.73020  1.0000
  C   C1188     1.0  0.20506  0.55488  0.73231  1.0000
  H   H976      1.0  0.12708  0.63008  0.73293  1.0000
  C   C1189     1.0  0.10810  0.82532  0.70867  1.0000
  H   H977      1.0  0.99651  0.68646  0.68519  1.0000
  H   H978      1.0  0.45799  0.81390  0.59915  1.0000
  H   H979      1.0  0.02847  0.53059  0.60474  1.0000
  C   C1190     1.0  0.42792  0.97076  0.67616  1.0000
  H   H980      1.0  0.36412  0.98759  0.55503  1.0000
  C   C1191     1.0  0.08069  0.57891  0.56466  1.0000
  C   C1192     1.0  0.16731  0.56582  0.67497  1.0000
  C   C1193     1.0  0.47332  0.95368  0.50082  1.0000
  H   H981      1.0  0.39925  0.72747  0.54571  1.0000
  C   C1194     1.0  0.27120  0.69195  0.69425  1.0000
  C   C1195     1.0  0.48335  0.89072  0.64708  1.0000
  C   C1196     1.0  0.37316  0.95459  0.71857  1.0000
  C   C1197     1.0  0.07156  0.53461  0.51305  1.0000
  C   C1198     1.0  0.17428  0.54161  0.67975  1.0000
  H   H982      1.0  0.43141  0.77542  0.60306  1.0000
  C   C1199     1.0  0.03677  0.57468  0.58245  1.0000
  C   C1200     1.0  0.16323  0.58352  0.68565  1.0000
  H   H983      1.0  0.20971  0.80569  0.72329  1.0000
  H   H984      1.0  0.02879  0.54394  0.56909  1.0000
  H   H985      1.0  0.09815  0.57996  0.55813  1.0000
  H   H986      1.0  0.38891  0.95078  0.54881  1.0000
  H   H987      1.0  0.44673  0.86092  0.51969  1.0000
  H   H988      1.0  0.46777  0.74450  0.57924  1.0000
  C   C1201     1.0  0.47206  0.79574  0.57937  1.0000
  C   C1202     1.0  0.04166  0.55852  0.57094  1.0000
  H   H989      1.0  0.06774  0.54760  0.55347  1.0000
  C   C1203     1.0  0.04830  0.61560  0.68246  1.0000
  C   C1204     1.0  0.17702  0.53503  0.69521  1.0000
  C   C1205     1.0  0.08744  0.83623  0.70175  1.0000
  C   C1206     1.0  0.08104  0.82941  0.68744  1.0000
  C   C1207     1.0  0.21935  0.73434  0.71063  1.0000
  C   C1208     1.0  0.15225  0.50029  0.73630  1.0000
  C   C1209     1.0  0.29576  0.98249  0.64905  1.0000
  H   H990      1.0  0.33030  0.66054  0.73096  1.0000
  C   C1210     1.0  0.35909  0.97065  0.70901  1.0000
  C   C1211     1.0  0.23577  0.75422  0.70905  1.0000
  P   P39       1.0  0.26266  0.79315  0.71953  1.0000
  C   C1212     1.0  0.24402  0.81876  0.71201  1.0000
  C   C1213     1.0  0.28952  0.90664  0.70515  1.0000
  H   H991      1.0  0.36494  0.74923  0.72821  1.0000
  C   C1214     1.0  0.15057  0.55965  0.73652  1.0000
  H   H992      1.0  0.11784  0.71887  0.72220  1.0000
  H   H993      1.0  0.39319  0.87402  0.72952  1.0000
  H   H994      1.0  0.07649  0.85009  0.70741  1.0000
  C   C1215     1.0  0.25475  0.83765  0.70233  1.0000
  C   C1216     1.0  0.24000  0.85700  0.69618  1.0000
  C   C1217     1.0  0.21454  0.85770  0.69968  1.0000
  C   C1218     1.0  0.23071  0.75983  0.73594  1.0000
  C   C1219     1.0  0.21844  0.81983  0.71570  1.0000
  C   C1220     1.0  0.28853  0.78671  0.70656  1.0000
  C   C1221     1.0  0.28472  0.78550  0.69100  1.0000
  C   C1222     1.0  0.30398  0.77808  0.68119  1.0000
  C   C1223     1.0  0.32759  0.77320  0.68662  1.0000
  C   C1224     1.0  0.33199  0.77584  0.70187  1.0000
  C   C1225     1.0  0.31259  0.78242  0.71184  1.0000
  H   H995      1.0  0.21504  0.72447  0.70080  1.0000
  C   C1226     1.0  0.49134  0.93686  0.50611  1.0000
  C   C1227     1.0  0.20377  0.83917  0.70949  1.0000
  H   H996      1.0  0.02661  0.57219  0.66221  1.0000
  H   H997      1.0  0.24316  0.75970  0.69783  1.0000
  H   H998      1.0  0.27605  0.65426  0.72634  1.0000
  C   C1228     1.0  0.03330  0.62493  0.67084  1.0000
  C   C1229     1.0  0.33194  0.91792  0.69827  1.0000
  C   C1230     1.0  0.01549  0.51232  0.54664  1.0000
  C   C1231     1.0  0.27465  0.79983  0.73765  1.0000
  H   H999      1.0  0.27446  0.83737  0.69945  1.0000
  H   H1000     1.0  0.24827  0.87141  0.68858  1.0000
  H   H1001     1.0  0.01951  0.52871  0.53929  1.0000
  H   H1002     1.0  0.35149  0.98416  0.67506  1.0000
  Fe  Fe83      1.0  0.48747  0.88573  0.56456  1.0000
  H   H1003     1.0  0.26697  0.79046  0.68632  1.0000
  H   H1004     1.0  0.30081  0.77688  0.66922  1.0000
  H   H1005     1.0  0.34267  0.76831  0.67885  1.0000
  H   H1006     1.0  0.35061  0.77339  0.70589  1.0000
  C   C1232     1.0  0.38101  0.81491  0.73632  1.0000
  C   C1233     1.0  0.12985  0.72348  0.71231  1.0000
  C   C1234     1.0  0.14892  0.70713  0.70835  1.0000
  C   C1235     1.0  0.16377  0.71236  0.69523  1.0000
  C   C1236     1.0  0.15986  0.73421  0.68621  1.0000
  C   C1237     1.0  0.14105  0.75100  0.69027  1.0000
  C   C1238     1.0  0.12568  0.74520  0.70321  1.0000
  P   P40       1.0  0.13453  0.77767  0.67762  1.0000
  C   C1239     1.0  0.11863  0.76552  0.66217  1.0000
  C   C1240     1.0  0.11560  0.80012  0.68712  1.0000
  H   H1007     1.0  0.20320  0.87261  0.69475  1.0000
  H   H1008     1.0  0.17756  0.52796  0.67141  1.0000
  C   C1241     1.0  0.29579  0.90252  0.72031  1.0000
  C   C1242     1.0  0.28480  0.71517  0.71489  1.0000
  C   C1243     1.0  0.12225  0.80745  0.70135  1.0000
  C   C1244     1.0  0.09461  0.75599  0.66478  1.0000
  C   C1245     1.0  0.08285  0.74458  0.65330  1.0000
  C   C1246     1.0  0.09513  0.74221  0.63923  1.0000
  C   C1247     1.0  0.11911  0.75144  0.63660  1.0000
  C   C1248     1.0  0.13082  0.76308  0.64801  1.0000
  C   C1249     1.0  0.16247  0.79430  0.67172  1.0000
  C   C1250     1.0  0.16217  0.81192  0.65930  1.0000
  C   C1251     1.0  0.18324  0.82600  0.65516  1.0000
  C   C1252     1.0  0.20457  0.82294  0.66356  1.0000
  C   C1253     1.0  0.20488  0.80577  0.67608  1.0000
  C   C1254     1.0  0.18390  0.79156  0.68023  1.0000
  H   H1009     1.0  0.45507  0.94713  0.49847  1.0000
  H   H1010     1.0  0.09017  0.80692  0.66887  1.0000
  C   C1255     1.0  0.30759  0.91430  0.69413  1.0000
  H   H1011     1.0  0.17099  0.73767  0.67582  1.0000
  H   H1012     1.0  0.11011  0.75701  0.70611  1.0000
  C   C1256     1.0  0.00279  0.57676  0.64322  1.0000
  C   C1257     1.0  0.17409  0.51148  0.73012  1.0000
  H   H1013     1.0  0.13839  0.79932  0.70674  1.0000
  H   H1014     1.0  0.08523  0.75673  0.67582  1.0000
  H   H1015     1.0  0.06455  0.73667  0.65543  1.0000
  H   H1016     1.0  0.08632  0.73252  0.63056  1.0000
  H   H1017     1.0  0.12906  0.74876  0.62592  1.0000
  H   H1018     1.0  0.14978  0.76907  0.64591  1.0000
  H   H1019     1.0  0.14568  0.81472  0.65277  1.0000
  H   H1020     1.0  0.18320  0.83910  0.64532  1.0000
  H   H1021     1.0  0.22111  0.83345  0.66015  1.0000
  H   H1022     1.0  0.22164  0.80323  0.68236  1.0000
  H   H1023     1.0  0.18454  0.77855  0.69005  1.0000
  C   C1258     1.0  0.39670  0.79229  0.60958  1.0000
  C   C1259     1.0  0.37695  0.80755  0.60495  1.0000
  C   C1260     1.0  0.37661  0.81770  0.59000  1.0000
  C   C1261     1.0  0.39620  0.81291  0.57972  1.0000
  C   C1262     1.0  0.41665  0.79841  0.58445  1.0000
  C   C1263     1.0  0.41631  0.78741  0.59931  1.0000
  P   P41       1.0  0.44219  0.79197  0.57133  1.0000
  C   C1264     1.0  0.43783  0.76070  0.56610  1.0000
  C   C1265     1.0  0.44257  0.81345  0.55478  1.0000
  C   C1266     1.0  0.43895  0.83887  0.55653  1.0000
  C   C1267     1.0  0.44004  0.85587  0.54390  1.0000
  C   C1268     1.0  0.44529  0.84767  0.52945  1.0000
  C   C1269     1.0  0.44970  0.82248  0.52764  1.0000
  C   C1270     1.0  0.44842  0.80538  0.54026  1.0000
  C   C1271     1.0  0.41824  0.75556  0.55685  1.0000
  C   C1272     1.0  0.41434  0.73131  0.55291  1.0000
  C   C1273     1.0  0.42981  0.71201  0.55830  1.0000
  C   C1274     1.0  0.43490  0.95683  0.66383  1.0000
  H   H1024     1.0  0.44405  0.83404  0.73360  1.0000
  H   H1025     1.0  0.40168  0.95291  0.73522  1.0000
  H   H1026     1.0  0.02065  0.56751  0.50127  1.0000
  H   H1027     1.0  0.09086  0.57992  0.73250  1.0000
  C   C1275     1.0  0.21370  0.74041  0.73739  1.0000
  H   H1028     1.0  0.47321  0.98762  0.56384  1.0000
  C   C1276     1.0  0.20844  0.72729  0.72483  1.0000
  H   H1029     1.0  0.08105  0.51691  0.51227  1.0000
  C   C1277     1.0  0.99737  0.60506  0.68370  1.0000
  H   H1030     1.0  0.12442  0.55861  0.71857  1.0000
  C   C1278     1.0  0.33389  0.72541  0.73480  1.0000
  C   C1279     1.0  0.35371  0.74076  0.73755  1.0000
  C   C1280     1.0  0.48779  0.98265  0.59963  1.0000
  H   H1031     1.0  0.99643  0.62866  0.66284  1.0000
  C   C1281     1.0  0.37524  0.90716  0.73761  1.0000
  H   H1032     1.0  0.39843  0.98574  0.63727  1.0000
  C   C1282     1.0  0.19543  0.49673  0.72793  1.0000
  H   H1033     1.0  0.34649  0.61927  0.73975  1.0000
  C   C1283     1.0  0.39353  0.99052  0.72751  1.0000
  C   C1284     1.0  0.38739  0.88401  0.73931  1.0000
  H   H1034     1.0  0.46488  0.99169  0.49416  1.0000
  H   H1035     1.0  0.99389  0.53082  0.51486  1.0000
  C   C1285     1.0  0.04428  0.49446  0.60199  1.0000
  C   C1286     1.0  0.41081  0.99272  0.57954  1.0000
  Fe  Fe84      1.0  0.39618  0.79914  0.77458  1.0000
  S   S165      1.0  0.39832  0.76144  0.78702  1.0000
  S   S166      1.0  0.40298  0.80194  0.74894  1.0000
  Fe  Fe85      1.0  0.38783  0.82611  0.80417  1.0000
  S   S167      1.0  0.38781  0.79005  0.81837  1.0000
  S   S168      1.0  0.38761  0.86591  0.81194  1.0000
  Fe  Fe86      1.0  0.42143  0.78039  0.80361  1.0000
  S   S169      1.0  0.45651  0.76699  0.81559  1.0000
  Fe  Fe87      1.0  0.36457  0.77410  0.80044  1.0000
  S   S170      1.0  0.32666  0.75395  0.80290  1.0000
  S   S171      1.0  0.42185  0.81679  0.79001  1.0000
  S   S172      1.0  0.36201  0.81152  0.78733  1.0000
  S   S173      1.0  0.37422  0.97307  0.89888  1.0000
  C   C1287     1.0  0.46338  0.91871  0.87363  1.0000
  S   S174      1.0  0.42937  0.94976  0.89982  1.0000
  C   C1288     1.0  0.06820  0.53243  0.92726  1.0000
  Fe  Fe88      1.0  0.39714  0.94721  0.88470  1.0000
  S   S175      1.0  0.38621  0.90845  0.87815  1.0000
  Fe  Fe89      1.0  0.40771  0.97782  0.91305  1.0000
  S   S176      1.0  0.41098  0.97099  0.93936  1.0000
  S   S177      1.0  0.41032  0.97763  0.86802  1.0000
  Fe  Fe90      1.0  0.22121  0.57259  0.79533  1.0000
  S   S178      1.0  0.18676  0.58733  0.78433  1.0000
  S   S179      1.0  0.23083  0.53130  0.80077  1.0000
  Fe  Fe91      1.0  0.24030  0.62624  0.80003  1.0000
  S   S180      1.0  0.20604  0.64379  0.79002  1.0000
  S   S181      1.0  0.27651  0.64578  0.80596  1.0000
  Fe  Fe92      1.0  0.18416  0.61339  0.80331  1.0000
  S   S182      1.0  0.14438  0.62009  0.81250  1.0000
  Fe  Fe93      1.0  0.21097  0.61639  0.77205  1.0000
  C   C1289     1.0  0.00569  0.53397  0.94629  1.0000
  S   S183      1.0  0.21799  0.59767  0.81489  1.0000
  S   S184      1.0  0.24592  0.59963  0.78155  1.0000
  Fe  Fe94      1.0  0.01371  0.61605  0.91255  1.0000
  S   S185      1.0  0.03292  0.58098  0.90618  1.0000
  H   H1036     1.0  0.07887  0.52661  0.97209  1.0000
  H   H1037     1.0  0.27992  0.73227  0.76608  1.0000
  C   C1290     1.0  0.46777  0.83869  0.81593  1.0000
  Fe  Fe95      1.0  0.99773  0.57229  0.89542  1.0000
  Fe  Fe96      1.0  0.04447  0.60097  0.88382  1.0000
  S   S186      1.0  0.08539  0.59513  0.87618  1.0000
  S   S187      1.0  0.02652  0.63681  0.89038  1.0000
  C   C1291     1.0  0.47682  0.91832  0.88688  1.0000
  C   C1292     1.0  0.13152  0.52565  0.80726  1.0000
  C   C1293     1.0  0.47676  0.83549  0.76564  1.0000
  C   C1294     1.0  0.01557  0.62080  0.95585  1.0000
  H   H1038     1.0  0.47096  0.85696  0.89793  1.0000
  H   H1039     1.0  0.30413  0.81419  0.77558  1.0000
  C   C1295     1.0  0.11735  0.53616  0.87268  1.0000
  C   C1296     1.0  0.08006  0.58084  0.93345  1.0000
  C   C1297     1.0  0.07595  0.52193  0.84886  1.0000
  P   P42       1.0  0.03604  0.52529  0.95300  1.0000
  C   C1298     1.0  0.45180  0.87941  0.92758  1.0000
  H   H1040     1.0  0.06347  0.51418  0.92423  1.0000
  C   C1299     1.0  0.14787  0.52767  0.83679  1.0000
  H   H1041     1.0  0.09865  0.50884  0.81764  1.0000
  C   C1300     1.0  0.47609  0.94997  0.79063  1.0000
  C   C1301     1.0  0.15381  0.56668  0.75132  1.0000
  C   C1302     1.0  0.12842  0.61267  0.83029  1.0000
  C   C1303     1.0  0.10283  0.61801  0.83180  1.0000
  C   C1304     1.0  0.08941  0.61296  0.84571  1.0000
  C   C1305     1.0  0.10144  0.60256  0.85838  1.0000
  C   C1306     1.0  0.12707  0.59728  0.85688  1.0000
  C   C1307     1.0  0.14044  0.60208  0.84292  1.0000
  H   H1042     1.0  0.09334  0.62634  0.82214  1.0000
  H   H1043     1.0  0.06980  0.61731  0.84667  1.0000
  H   H1044     1.0  0.13675  0.58958  0.86660  1.0000
  H   H1045     1.0  0.16009  0.59799  0.84200  1.0000
  H   H1046     1.0  0.12515  0.52521  0.79582  1.0000
  C   C1308     1.0  0.46906  0.87432  0.89119  1.0000
  C   C1309     1.0  0.39568  0.98834  0.99025  1.0000
  H   H1047     1.0  0.35668  0.93625  0.74962  1.0000
  H   H1048     1.0  0.31272  0.92388  0.93029  1.0000
  H   H1049     1.0  0.31645  0.70819  0.77143  1.0000
  C   C1310     1.0  0.06468  0.56659  0.94364  1.0000
  H   H1050     1.0  0.16624  0.54288  0.80010  1.0000
  C   C1311     1.0  0.31337  0.72364  0.80264  1.0000
  C   C1312     1.0  0.32769  0.70183  0.80251  1.0000
  C   C1313     1.0  0.31613  0.67833  0.80307  1.0000
  C   C1314     1.0  0.29006  0.67612  0.80345  1.0000
  C   C1315     1.0  0.27577  0.69798  0.80314  1.0000
  C   C1316     1.0  0.28732  0.72144  0.80287  1.0000
  H   H1051     1.0  0.34768  0.70301  0.80225  1.0000
  H   H1052     1.0  0.32753  0.66170  0.80339  1.0000
  H   H1053     1.0  0.25576  0.69676  0.80366  1.0000
  H   H1054     1.0  0.27593  0.73804  0.80305  1.0000
  H   H1055     1.0  0.40119  0.85534  0.75505  1.0000
  H   H1056     1.0  0.20612  0.71069  0.78026  1.0000
  C   C1317     1.0  0.45985  0.93387  0.78438  1.0000
  H   H1057     1.0  0.35445  0.82517  0.75370  1.0000
  H   H1058     1.0  0.00169  0.54850  0.97509  1.0000
  C   C1318     1.0  0.41494  0.96311  0.97075  1.0000
  H   H1059     1.0  0.12707  0.56095  0.88949  1.0000
  H   H1060     1.0  0.35685  0.94332  0.98307  1.0000
  C   C1319     1.0  0.35959  0.74481  0.75241  1.0000
  C   C1320     1.0  0.38871  0.87698  0.83053  1.0000
  C   C1321     1.0  0.38586  0.86130  0.84374  1.0000
  C   C1322     1.0  0.38536  0.87120  0.85818  1.0000
  C   C1323     1.0  0.38808  0.89682  0.85966  1.0000
  C   C1324     1.0  0.39172  0.91239  0.84646  1.0000
  C   C1325     1.0  0.39184  0.90255  0.83202  1.0000
  H   H1061     1.0  0.38357  0.84162  0.84283  1.0000
  H   H1062     1.0  0.38263  0.85894  0.86828  1.0000
  H   H1063     1.0  0.39378  0.93212  0.84736  1.0000
  H   H1064     1.0  0.39399  0.91490  0.82192  1.0000
  H   H1065     1.0  0.14801  0.52815  0.90557  1.0000
  C   C1326     1.0  0.29564  0.81019  0.76510  1.0000
  H   H1066     1.0  0.05272  0.57739  0.83460  1.0000
  C   C1327     1.0  0.22175  0.52895  0.84230  1.0000
  C   C1328     1.0  0.35871  0.82525  0.74163  1.0000
  H   H1067     1.0  0.44688  0.85821  0.87464  1.0000
  H   H1068     1.0  0.45279  0.89972  0.81884  1.0000
  C   C1329     1.0  0.31514  0.96338  0.89852  1.0000
  C   C1330     1.0  0.28531  0.82935  0.75588  1.0000
  C   C1331     1.0  0.46217  0.82619  0.75465  1.0000
  P   P43       1.0  0.10514  0.50510  0.85037  1.0000
  C   C1332     1.0  0.31924  0.71465  0.74698  1.0000
  H   H1069     1.0  0.36446  0.91673  0.77517  1.0000
  C   C1333     1.0  0.35759  0.94242  0.95871  1.0000
  C   C1334     1.0  0.47954  0.89615  0.89583  1.0000
  C   C1335     1.0  0.21017  0.53849  0.85512  1.0000
  C   C1336     1.0  0.48754  0.77320  0.80867  1.0000
  H   H1070     1.0  0.21199  0.55798  0.85707  1.0000
  H   H1071     1.0  0.45746  0.85872  0.79536  1.0000
  H   H1072     1.0  0.48460  0.93543  0.89022  1.0000
  C   C1337     1.0  0.22254  0.70842  0.77298  1.0000
  C   C1338     1.0  0.31518  0.97264  0.95989  1.0000
  H   H1073     1.0  0.01352  0.57327  0.94421  1.0000
  H   H1074     1.0  0.44870  0.83542  0.81987  1.0000
  C   C1339     1.0  0.28495  0.78066  0.74703  1.0000
  H   H1075     1.0  0.46578  0.96710  0.84041  1.0000
  C   C1340     1.0  0.39184  0.87321  0.75380  1.0000
  C   C1341     1.0  0.99810  0.51110  0.89806  1.0000
  H   H1076     1.0  0.16084  0.62462  0.75124  1.0000
  H   H1077     1.0  0.01444  0.51738  0.85930  1.0000
  H   H1078     1.0  0.10797  0.55057  0.86596  1.0000
  H   H1079     1.0  0.47833  0.78065  0.78539  1.0000
  C   C1342     1.0  0.27501  0.82426  0.74214  1.0000
  H   H1080     1.0  0.30401  0.77119  0.76775  1.0000
  H   H1081     1.0  0.37456  0.93149  0.95820  1.0000
  C   C1343     1.0  0.21485  0.54386  0.74567  1.0000
  H   H1082     1.0  0.03087  0.53311  0.89325  1.0000
  C   C1344     1.0  0.11667  0.51632  0.81963  1.0000
  C   C1345     1.0  0.03966  0.53562  0.97186  1.0000
  H   H1083     1.0  0.28588  0.84826  0.75921  1.0000
  C   C1346     1.0  0.27992  0.98711  0.93165  1.0000
  H   H1084     1.0  0.23253  0.54099  0.83427  1.0000
  C   C1347     1.0  0.08944  0.57096  0.92015  1.0000
  H   H1085     1.0  0.09225  0.55488  0.83711  1.0000
  C   C1348     1.0  0.03092  0.54829  0.84616  1.0000
  H   H1086     1.0  0.10022  0.58250  0.91186  1.0000
  Fe  Fe97      1.0  0.44116  0.98163  0.88378  1.0000
  C   C1349     1.0  0.31848  0.94587  0.88762  1.0000
  C   C1350     1.0  0.44828  0.84916  0.94901  1.0000
  C   C1351     1.0  0.46823  0.91054  0.78027  1.0000
  C   C1352     1.0  0.48485  0.86011  0.76407  1.0000
  C   C1353     1.0  0.31415  0.95582  0.91407  1.0000
  C   C1354     1.0  0.47283  0.85166  0.80195  1.0000
  H   H1087     1.0  0.24226  0.73829  0.78187  1.0000
  C   C1355     1.0  0.45660  0.93432  0.82928  1.0000
  C   C1356     1.0  0.20444  0.50183  0.78221  1.0000
  H   H1088     1.0  0.44060  0.93925  0.78300  1.0000
  H   H1089     1.0  0.48327  0.81827  0.83509  1.0000
  H   H1090     1.0  0.48554  0.89390  0.74947  1.0000
  C   C1357     1.0  0.01973  0.54635  0.97990  1.0000
  H   H1091     1.0  0.05936  0.49679  0.89282  1.0000
  H   H1092     1.0  0.24415  0.54398  0.76155  1.0000
  H   H1093     1.0  0.31915  0.96985  0.98417  1.0000
  C   C1358     1.0  0.26572  0.70117  0.75485  1.0000
  C   C1359     1.0  0.47404  0.84595  0.94850  1.0000
  C   C1360     1.0  0.23606  0.97752  0.93151  1.0000
  C   C1361     1.0  0.47256  0.94957  0.83644  1.0000
  C   C1362     1.0  0.12494  0.51678  0.83450  1.0000
  C   C1363     1.0  0.19357  0.49784  0.86267  1.0000
  C   C1364     1.0  0.22341  0.68991  0.76267  1.0000
  C   C1365     1.0  0.13444  0.57826  0.75928  1.0000
  H   H1094     1.0  0.32064  0.95193  0.87569  1.0000
  C   C1366     1.0  0.26440  0.72035  0.76485  1.0000
  C   C1367     1.0  0.47777  0.87646  0.92702  1.0000
  C   C1368     1.0  0.29677  0.65234  0.76445  1.0000
  C   C1369     1.0  0.30619  0.62910  0.76941  1.0000
  C   C1370     1.0  0.32395  0.61711  0.76048  1.0000
  H   H1095     1.0  0.29905  0.98462  0.96064  1.0000
  C   C1371     1.0  0.31443  0.93032  0.91843  1.0000
  H   H1096     1.0  0.19564  0.51879  0.77791  1.0000
  H   H1097     1.0  0.32382  0.90724  0.88367  1.0000
  H   H1098     1.0  0.01363  0.55855  0.84521  1.0000
  C   C1372     1.0  0.43718  0.86585  0.93853  1.0000
  P   P44       1.0  0.29386  0.69411  0.74405  1.0000
  C   C1373     1.0  0.11850  0.51191  0.86803  1.0000
  C   C1374     1.0  0.02358  0.51461  0.89531  1.0000
  H   H1099     1.0  0.41721  0.86847  0.93891  1.0000
  C   C1375     1.0  0.36678  0.91879  0.75064  1.0000
  H   H1100     1.0  0.46019  0.92954  0.92699  1.0000
  H   H1101     1.0  0.28318  0.66129  0.77168  1.0000
  H   H1102     1.0  0.29975  0.62049  0.78028  1.0000
  H   H1103     1.0  0.33117  0.59910  0.76439  1.0000
  H   H1104     1.0  0.48263  0.83300  0.95665  1.0000
  C   C1376     1.0  0.02638  0.61823  0.98277  1.0000
  C   C1377     1.0  0.03337  0.62076  0.96712  1.0000
  C   C1378     1.0  0.05379  0.51185  0.85533  1.0000
  C   C1379     1.0  0.45562  0.87485  0.87796  1.0000
  C   C1380     1.0  0.34608  0.73303  0.76456  1.0000
  C   C1381     1.0  0.07537  0.54586  0.84152  1.0000
  C   C1382     1.0  0.03139  0.52499  0.85397  1.0000
  H   H1105     1.0  0.35117  0.73554  0.77609  1.0000
  H   H1106     1.0  0.23429  0.76978  0.74585  1.0000
  C   C1383     1.0  0.13999  0.52358  0.89507  1.0000
  C   C1384     1.0  0.29550  0.78587  0.76067  1.0000
  C   C1385     1.0  0.99999  0.55908  0.94289  1.0000
  S   S188      1.0  0.02544  0.62633  0.93626  1.0000
  C   C1386     1.0  0.24288  0.72392  0.77387  1.0000
  C   C1387     1.0  0.47891  0.87505  0.75107  1.0000
  C   C1388     1.0  0.05293  0.55884  0.84010  1.0000
  C   C1389     1.0  0.37109  0.90780  0.76512  1.0000
  C   C1390     1.0  0.31775  0.91286  0.90750  1.0000
  C   C1391     1.0  0.26089  0.97078  0.92881  1.0000
  H   H1107     1.0  0.42599  0.94707  0.96797  1.0000
  H   H1108     1.0  0.26516  0.95284  0.92451  1.0000
  C   C1392     1.0  0.32626  0.71775  0.76187  1.0000
  H   H1109     1.0  0.30817  0.81918  0.83188  1.0000
  C   C1393     1.0  0.05860  0.54217  0.94067  1.0000
  H   H1110     1.0  0.13720  0.58414  0.77059  1.0000
  C   C1394     1.0  0.15458  0.53583  0.80965  1.0000
  H   H1111     1.0  0.35551  0.94680  0.93451  1.0000
  H   H1112     1.0  0.45569  0.80722  0.75604  1.0000
  H   H1113     1.0  0.15429  0.52929  0.84809  1.0000
  C   C1395     1.0  0.22202  0.50279  0.79336  1.0000
  H   H1114     1.0  0.18014  0.54582  0.82613  1.0000
  C   C1396     1.0  0.45275  0.89708  0.86919  1.0000
  H   H1115     1.0  0.34708  0.81132  0.84540  1.0000
  H   H1116     1.0  0.45510  0.89802  0.77595  1.0000
  H   H1117     1.0  0.44274  0.89228  0.91958  1.0000
  C   C1397     1.0  0.39157  0.71328  0.82189  1.0000
  C   C1398     1.0  0.39172  0.68792  0.81969  1.0000
  C   C1399     1.0  0.37417  0.67250  0.82746  1.0000
  C   C1400     1.0  0.35646  0.68243  0.83745  1.0000
  C   C1401     1.0  0.35580  0.70803  0.83945  1.0000
  C   C1402     1.0  0.37369  0.72328  0.83171  1.0000
  P   P45       1.0  0.33437  0.72073  0.85328  1.0000
  C   C1403     1.0  0.30696  0.70170  0.85590  1.0000
  C   C1404     1.0  0.34967  0.72192  0.87103  1.0000
  C   C1405     1.0  0.34080  0.73809  0.88188  1.0000
  C   C1406     1.0  0.35276  0.73936  0.89555  1.0000
  C   C1407     1.0  0.37361  0.72446  0.89851  1.0000
  C   C1408     1.0  0.38247  0.70823  0.88781  1.0000
  C   C1409     1.0  0.37054  0.70690  0.87412  1.0000
  C   C1410     1.0  0.29605  0.69617  0.87043  1.0000
  C   C1411     1.0  0.27490  0.68135  0.87224  1.0000
  C   C1412     1.0  0.26453  0.67193  0.85960  1.0000
  C   C1413     1.0  0.27526  0.67737  0.84513  1.0000
  C   C1414     1.0  0.29631  0.69223  0.84329  1.0000
  C   C1415     1.0  0.32559  0.75198  0.84675  1.0000
  C   C1416     1.0  0.30345  0.75669  0.83918  1.0000
  C   C1417     1.0  0.29712  0.78087  0.83396  1.0000
  C   C1418     1.0  0.31280  0.80054  0.83624  1.0000
  C   C1419     1.0  0.33476  0.79609  0.84385  1.0000
  C   C1420     1.0  0.34117  0.77193  0.84907  1.0000
  H   H1118     1.0  0.40540  0.72523  0.81604  1.0000
  H   H1119     1.0  0.40551  0.68027  0.81199  1.0000
  H   H1120     1.0  0.37428  0.65283  0.82575  1.0000
  H   H1121     1.0  0.34339  0.67005  0.84358  1.0000
  H   H1122     1.0  0.37403  0.74287  0.83331  1.0000
  H   H1123     1.0  0.32466  0.74976  0.87973  1.0000
  H   H1124     1.0  0.34591  0.75198  0.90383  1.0000
  H   H1125     1.0  0.38295  0.72553  0.90908  1.0000
  H   H1126     1.0  0.39869  0.69673  0.89007  1.0000
  H   H1127     1.0  0.37777  0.69425  0.86598  1.0000
  H   H1128     1.0  0.30374  0.70318  0.88039  1.0000
  H   H1129     1.0  0.26653  0.67714  0.88346  1.0000
  H   H1130     1.0  0.24818  0.66042  0.86096  1.0000
  H   H1131     1.0  0.26729  0.67002  0.83529  1.0000
  H   H1132     1.0  0.30432  0.69638  0.83202  1.0000
  H   H1133     1.0  0.29135  0.74178  0.83682  1.0000
  H   H1134     1.0  0.28043  0.78420  0.82770  1.0000
  C   C1421     1.0  0.32646  0.96423  0.97330  1.0000
  C   C1422     1.0  0.38369  0.88507  0.76669  1.0000
  H   H1135     1.0  0.35855  0.76882  0.85465  1.0000
  H   H1136     1.0  0.31460  0.98279  0.89470  1.0000
  H   H1137     1.0  0.43692  0.83879  0.95756  1.0000
  C   C1423     1.0  0.46520  0.91155  0.82441  1.0000
  H   H1138     1.0  0.44183  0.89769  0.85914  1.0000
  C   C1424     1.0  0.00132  0.61625  0.98745  1.0000
  C   C1425     1.0  0.12829  0.54205  0.88603  1.0000
  H   H1139     1.0  0.31904  0.89328  0.91094  1.0000
  C   C1426     1.0  0.33253  0.62848  0.74661  1.0000
  H   H1140     1.0  0.20762  0.67793  0.76180  1.0000
  H   H1141     1.0  0.38680  0.87643  0.77792  1.0000
  S   S189      1.0  0.01072  0.58835  0.87255  1.0000
  H   H1142     1.0  0.08361  0.60001  0.93552  1.0000
  C   C1427     1.0  0.41020  0.96783  0.98625  1.0000
  C   C1428     1.0  0.08346  0.54677  0.91708  1.0000
  H   H1143     1.0  0.22143  0.96487  0.92925  1.0000
  H   H1144     1.0  0.05674  0.57517  0.95349  1.0000
  H   H1145     1.0  0.08946  0.53957  0.90640  1.0000
  H   H1146     1.0  0.05272  0.62313  0.96372  1.0000
  H   H1147     1.0  0.24540  0.67136  0.74609  1.0000
  C   C1429     1.0  0.48967  0.90392  0.82687  1.0000
  C   C1430     1.0  0.16256  0.53719  0.82439  1.0000
  H   H1148     1.0  0.17134  0.56363  0.75667  1.0000
  C   C1431     1.0  0.34663  0.95109  0.94527  1.0000
  C   C1432     1.0  0.40536  0.97872  0.95885  1.0000
  H   H1149     1.0  0.46947  0.96790  0.79401  1.0000
  H   H1150     1.0  0.18723  0.53035  0.87529  1.0000
  C   C1433     1.0  0.21915  0.50394  0.83960  1.0000
  C   C1434     1.0  0.06311  0.53427  0.97825  1.0000
  C   C1435     1.0  0.48076  0.96066  0.93292  1.0000
  H   H1151     1.0  0.37501  0.75660  0.75452  1.0000
  C   C1436     1.0  0.32019  0.92067  0.89211  1.0000
  C   C1437     1.0  0.14110  0.49924  0.89058  1.0000
  C   C1438     1.0  0.34766  0.94915  0.97271  1.0000
  H   H1152     1.0  0.43751  0.94005  0.82761  1.0000
  H   H1153     1.0  0.46044  0.93601  0.86705  1.0000
  H   H1154     1.0  0.46460  0.96975  0.93783  1.0000
  C   C1439     1.0  0.19620  0.52290  0.86535  1.0000
  S   S190      1.0  0.21453  0.62930  0.74700  1.0000
  C   C1440     1.0  0.32520  0.96613  0.94574  1.0000
  P   P46       1.0  0.31200  0.97854  0.92826  1.0000
  C   C1441     1.0  0.30511  0.66376  0.75045  1.0000
  S   S191      1.0  0.47876  0.98297  0.87181  1.0000
  H   H1155     1.0  0.48159  0.82344  0.77536  1.0000
  C   C1442     1.0  0.47837  0.93771  0.92670  1.0000
  C   C1443     1.0  0.48724  0.82922  0.82458  1.0000
  C   C1444     1.0  0.24487  0.68628  0.75368  1.0000
  H   H1156     1.0  0.05361  0.49418  0.86170  1.0000
  C   C1445     1.0  0.03968  0.49404  0.89498  1.0000
  H   H1157     1.0  0.26668  0.57856  0.74734  1.0000
  C   C1446     1.0  0.11178  0.58303  0.75251  1.0000
  C   C1447     1.0  0.48876  0.85954  0.93758  1.0000
  H   H1158     1.0  0.09708  0.59261  0.75857  1.0000
  H   H1159     1.0  0.28549  0.76182  0.74355  1.0000
  H   H1160     1.0  0.20449  0.73553  0.74826  1.0000
  C   C1448     1.0  0.23705  0.55225  0.75103  1.0000
  H   H1161     1.0  0.20518  0.52893  0.75207  1.0000
  H   H1162     1.0  0.22824  0.49694  0.82959  1.0000
  H   H1163     1.0  0.04033  0.61860  0.99121  1.0000
  C   C1449     1.0  0.24980  0.57161  0.74300  1.0000
  C   C1450     1.0  0.45567  0.84134  0.74196  1.0000
  C   C1451     1.0  0.32327  0.65180  0.74164  1.0000
  C   C1452     1.0  0.49307  0.90327  0.78221  1.0000
  C   C1453     1.0  0.49311  0.77956  0.79332  1.0000
  C   C1454     1.0  0.13062  0.49347  0.87703  1.0000
  C   C1455     1.0  0.86633  0.36340  0.22806  1.0000
  H   H1164     1.0  0.82844  0.25427  0.19152  1.0000
  S   S192      1.0  0.62582  0.02805  0.05850  1.0000
  C   C1456     1.0  0.62639  0.02802  0.16084  1.0000
  H   H1165     1.0  0.60637  0.02095  0.10980  1.0000
  C   C1457     1.0  0.58482  0.11704  0.07906  1.0000
  Fe  Fe98      1.0  0.65157  0.01283  0.07619  1.0000
  S   S193      1.0  0.66685  0.03224  0.09602  1.0000
  C   C1458     1.0  0.89316  0.45498  0.12821  1.0000
  Fe  Fe99      1.0  0.66209  0.20630  0.15714  1.0000
  S   S194      1.0  0.67664  0.16689  0.15720  1.0000
  S   S195      1.0  0.68281  0.24305  0.15948  1.0000
  Fe  Fe100     1.0  0.60675  0.18897  0.15695  1.0000
  S   S196      1.0  0.61799  0.14884  0.15784  1.0000
  S   S197      1.0  0.56776  0.20406  0.15153  1.0000
  Fe  Fe101     1.0  0.64586  0.15868  0.17483  1.0000
  S   S198      1.0  0.65326  0.13147  0.19502  1.0000
  Fe  Fe102     1.0  0.64758  0.15974  0.14024  1.0000
  S   S199      1.0  0.64900  0.14195  0.11734  1.0000
  S   S200      1.0  0.63223  0.19814  0.17548  1.0000
  S   S201      1.0  0.63564  0.19994  0.13870  1.0000
  C   C1459     1.0  0.71897  0.33117  0.22918  1.0000
  H   H1166     1.0  0.55694  0.06412  0.07030  1.0000
  S   S202      1.0  0.96952  0.32678  0.07373  1.0000
  Fe  Fe103     1.0  0.84626  0.34285  0.17219  1.0000
  S   S203      1.0  0.80559  0.35112  0.16961  1.0000
  S   S204      1.0  0.86104  0.31996  0.19246  1.0000
  Fe  Fe104     1.0  0.85948  0.35751  0.13843  1.0000
  S   S205      1.0  0.81925  0.36513  0.13357  1.0000
  S   S206      1.0  0.89094  0.37065  0.12166  1.0000
  Fe  Fe105     1.0  0.81849  0.38537  0.15517  1.0000
  S   S207      1.0  0.79968  0.42392  0.15475  1.0000
  Fe  Fe106     1.0  0.80982  0.33035  0.14841  1.0000
  S   S208      1.0  0.78754  0.29575  0.14338  1.0000
  S   S209      1.0  0.85870  0.37853  0.15975  1.0000
  S   S210      1.0  0.85042  0.32136  0.15133  1.0000
  C   C1460     1.0  0.86635  0.33080  0.21043  1.0000
  C   C1461     1.0  0.87284  0.31358  0.22227  1.0000
  H   H1167     1.0  0.81557  0.31627  0.21731  1.0000
  C   C1462     1.0  0.86341  0.35579  0.21331  1.0000
  H   H1168     1.0  0.87529  0.29423  0.22007  1.0000
  H   H1169     1.0  0.73493  0.14767  0.16511  1.0000
  H   H1170     1.0  0.85875  0.36914  0.20419  1.0000
  C   C1463     1.0  0.83679  0.45837  0.15899  1.0000
  C   C1464     1.0  0.81198  0.45433  0.15589  1.0000
  H   H1171     1.0  0.84934  0.44271  0.16045  1.0000
  H   H1172     1.0  0.76865  0.17855  0.16120  1.0000
  C   C1465     1.0  0.94729  0.33907  0.08682  1.0000
  C   C1466     1.0  0.93020  0.32317  0.09493  1.0000
  C   C1467     1.0  0.91279  0.33232  0.10566  1.0000
  C   C1468     1.0  0.91201  0.35763  0.10820  1.0000
  C   C1469     1.0  0.92881  0.37353  0.09990  1.0000
  C   C1470     1.0  0.94635  0.36436  0.08933  1.0000
  H   H1173     1.0  0.93056  0.30362  0.09298  1.0000
  H   H1174     1.0  0.89994  0.31984  0.11189  1.0000
  H   H1175     1.0  0.92820  0.39314  0.10167  1.0000
  H   H1176     1.0  0.95907  0.37687  0.08303  1.0000
  H   H1177     1.0  0.70664  0.23436  0.18773  1.0000
  H   H1178     1.0  0.74519  0.34680  0.20345  1.0000
  C   C1471     1.0  0.71286  0.25654  0.15611  1.0000
  C   C1472     1.0  0.71595  0.28169  0.15889  1.0000
  C   C1473     1.0  0.73892  0.29365  0.15572  1.0000
  C   C1474     1.0  0.75918  0.28073  0.14961  1.0000
  C   C1475     1.0  0.75626  0.25542  0.14718  1.0000
  C   C1476     1.0  0.73341  0.24332  0.15056  1.0000
  H   H1179     1.0  0.70026  0.29217  0.16316  1.0000
  H   H1180     1.0  0.74072  0.31314  0.15730  1.0000
  H   H1181     1.0  0.77173  0.24518  0.14240  1.0000
  H   H1182     1.0  0.73159  0.22392  0.14857  1.0000
  C   C1477     1.0  0.66097  0.14131  0.21299  1.0000
  C   C1478     1.0  0.66188  0.16645  0.21580  1.0000
  H   H1183     1.0  0.89074  0.41862  0.13983  1.0000
  C   C1479     1.0  0.78705  0.37347  0.23608  1.0000
  C   C1480     1.0  0.51651  0.99411  0.00193  1.0000
  H   H1184     1.0  0.65777  0.18042  0.20689  1.0000
  C   C1481     1.0  0.76694  0.24463  0.20069  1.0000
  C   C1482     1.0  0.59347  0.05880  0.10832  1.0000
  C   C1483     1.0  0.53767  0.19093  0.15515  1.0000
  C   C1484     1.0  0.53333  0.17087  0.16574  1.0000
  C   C1485     1.0  0.50891  0.16228  0.16897  1.0000
  H   H1185     1.0  0.50743  0.12285  0.15162  1.0000
  C   C1486     1.0  0.51731  0.20170  0.14754  1.0000
  H   H1186     1.0  0.54868  0.16248  0.17177  1.0000
  H   H1187     1.0  0.52035  0.21731  0.13939  1.0000
  C   C1487     1.0  0.65929  0.06229  0.10206  1.0000
  C   C1488     1.0  0.66225  0.06714  0.11734  1.0000
  C   C1489     1.0  0.65827  0.09116  0.12242  1.0000
  C   C1490     1.0  0.65185  0.11077  0.11213  1.0000
  C   C1491     1.0  0.64859  0.10585  0.09689  1.0000
  C   C1492     1.0  0.65202  0.08173  0.09189  1.0000
  H   H1188     1.0  0.66809  0.05227  0.12521  1.0000
  H   H1189     1.0  0.66100  0.09466  0.13414  1.0000
  H   H1190     1.0  0.64405  0.12095  0.08881  1.0000
  H   H1191     1.0  0.65004  0.07839  0.08007  1.0000
  H   H1192     1.0  0.58433  0.01076  0.13465  1.0000
  H   H1193     1.0  0.79791  0.12440  0.22981  1.0000
  H   H1194     1.0  0.79999  0.22152  0.20231  1.0000
  C   C1493     1.0  0.66631  0.12341  0.22474  1.0000
  C   C1494     1.0  0.66634  0.25036  0.21605  1.0000
  H   H1195     1.0  0.86363  0.38270  0.23030  1.0000
  H   H1196     1.0  0.86096  0.25594  0.24154  1.0000
  C   C1495     1.0  0.79255  0.23973  0.19906  1.0000
  C   C1496     1.0  0.95125  0.43213  0.04206  1.0000
  C   C1497     1.0  0.92562  0.43353  0.04046  1.0000
  C   C1498     1.0  0.91601  0.44566  0.02750  1.0000
  C   C1499     1.0  0.93206  0.45600  0.01602  1.0000
  C   C1500     1.0  0.95787  0.45436  0.01746  1.0000
  C   C1501     1.0  0.64639  0.00348  0.99903  1.0000
  H   H1197     1.0  0.49863  0.10159  0.10998  1.0000
  C   C1502     1.0  0.80873  0.25813  0.19290  1.0000
  H   H1198     1.0  0.65088  0.05908  0.16183  1.0000
  C   C1503     1.0  0.50816  0.06714  0.13567  1.0000
  C   C1504     1.0  0.88142  0.47269  0.11852  1.0000
  H   H1199     1.0  0.59496  0.02360  0.00322  1.0000
  H   H1200     1.0  0.52025  0.05394  0.13034  1.0000
  H   H1201     1.0  0.71339  0.38790  0.21039  1.0000
  C   C1505     1.0  0.97508  0.41779  0.10479  1.0000
  C   C1506     1.0  0.58206  0.09352  0.07372  1.0000
  H   H1202     1.0  0.95489  0.44724  0.13586  1.0000
  C   C1507     1.0  0.50094  0.10560  0.14775  1.0000
  C   C1508     1.0  0.58294  0.02928  0.12927  1.0000
  H   H1203     1.0  0.52824  0.00988  0.03111  1.0000
  C   C1509     1.0  0.67558  0.24638  0.20140  1.0000
  H   H1204     1.0  0.56646  0.14777  0.08920  1.0000
  H   H1205     1.0  0.95808  0.41565  0.00009  1.0000
  C   C1510     1.0  0.92990  0.46561  0.07608  1.0000
  C   C1511     1.0  0.74782  0.42550  0.23065  1.0000
  H   H1206     1.0  0.95864  0.42276  0.05216  1.0000
  H   H1207     1.0  0.91324  0.42513  0.04926  1.0000
  H   H1208     1.0  0.52271  0.10594  0.05171  1.0000
  H   H1209     1.0  0.66825  0.19301  0.23238  1.0000
  H   H1210     1.0  0.70722  0.34235  0.22169  1.0000
  C   C1512     1.0  0.97630  0.31997  0.12318  1.0000
  H   H1211     1.0  0.54240  0.03876  0.04908  1.0000
  C   C1513     1.0  0.79599  0.47509  0.15412  1.0000
  H   H1212     1.0  0.78751  0.22954  0.22834  1.0000
  H   H1213     1.0  0.77678  0.47230  0.15167  1.0000
  C   C1514     1.0  0.96273  0.43277  0.12918  1.0000
  C   C1515     1.0  0.54089  0.11841  0.08596  1.0000
  S   S211      1.0  0.99254  0.38013  0.04409  1.0000
  C   C1516     1.0  0.59074  0.04382  0.02322  1.0000
  C   C1517     1.0  0.71798  0.40108  0.21849  1.0000
  H   H1214     1.0  0.76220  0.13961  0.21517  1.0000
  H   H1215     1.0  0.64733  0.25661  0.21781  1.0000
  C   C1518     1.0  0.55876  0.08236  0.07455  1.0000
  H   H1216     1.0  0.71691  0.23298  0.23600  1.0000
  H   H1217     1.0  0.66559  0.10393  0.22268  1.0000
  C   C1519     1.0  0.73443  0.34973  0.18033  1.0000
  C   C1520     1.0  0.73445  0.36447  0.16671  1.0000
  C   C1521     1.0  0.74460  0.38817  0.16597  1.0000
  C   C1522     1.0  0.75468  0.39720  0.17882  1.0000
  C   C1523     1.0  0.75544  0.38230  0.19242  1.0000
  C   C1524     1.0  0.74497  0.35857  0.19311  1.0000
  P   P47       1.0  0.76770  0.39435  0.20919  1.0000
  C   C1525     1.0  0.87588  0.32117  0.23700  1.0000
  C   C1526     1.0  0.79026  0.41809  0.20371  1.0000
  C   C1527     1.0  0.81575  0.41250  0.20362  1.0000
  C   C1528     1.0  0.83315  0.43103  0.19972  1.0000
  C   C1529     1.0  0.82523  0.45525  0.19580  1.0000
  C   C1530     1.0  0.79990  0.46089  0.19553  1.0000
  C   C1531     1.0  0.78245  0.44242  0.19951  1.0000
  C   C1532     1.0  0.57598  0.04827  0.03613  1.0000
  H   H1218     1.0  0.96015  0.32894  0.18827  1.0000
  C   C1533     1.0  0.71505  0.23266  0.21151  1.0000
  H   H1219     1.0  0.67972  0.40632  0.22571  1.0000
  H   H1220     1.0  0.95958  0.31976  0.13034  1.0000
  C   C1534     1.0  0.75957  0.12551  0.22439  1.0000
  H   H1221     1.0  0.68803  0.03620  0.15274  1.0000
  C   C1535     1.0  0.66788  0.17355  0.23026  1.0000
  H   H1222     1.0  0.97642  0.42046  0.09252  1.0000
  C   C1536     1.0  0.58281  0.02740  0.01288  1.0000
  H   H1223     1.0  0.72651  0.33135  0.18090  1.0000
  H   H1224     1.0  0.72681  0.35749  0.15668  1.0000
  H   H1225     1.0  0.74507  0.39956  0.15537  1.0000
  H   H1226     1.0  0.76223  0.41569  0.17793  1.0000
  C   C1537     1.0  0.74270  0.40788  0.22023  1.0000
  H   H1227     1.0  0.82230  0.39385  0.20648  1.0000
  H   H1228     1.0  0.85278  0.42651  0.19952  1.0000
  H   H1229     1.0  0.56012  0.04316  0.14741  1.0000
  C   C1538     1.0  0.81334  0.02843  0.22892  1.0000
  H   H1230     1.0  0.76289  0.44705  0.19906  1.0000
  C   C1539     1.0  0.75641  0.17860  0.17123  1.0000
  H   H1231     1.0  0.58239  0.06059  0.04428  1.0000
  H   H1232     1.0  0.79231  0.34726  0.20203  1.0000
  H   H1233     1.0  0.60873  0.05249  0.02141  1.0000
  C   C1540     1.0  0.74323  0.19695  0.19472  1.0000
  C   C1541     1.0  0.79949  0.28146  0.18809  1.0000
  C   C1542     1.0  0.75781  0.26814  0.19568  1.0000
  P   P48       1.0  0.97786  0.46607  0.00181  1.0000
  C   C1543     1.0  0.68146  0.24577  0.22844  1.0000
  S   S212      1.0  0.56226  0.00574  0.07438  1.0000
  C   C1544     1.0  0.57950  0.07715  0.11533  1.0000
  C   C1545     1.0  0.56729  0.07173  0.12947  1.0000
  C   C1546     1.0  0.56915  0.04763  0.13641  1.0000
  P   P49       1.0  0.55058  0.09550  0.13936  1.0000
  C   C1547     1.0  0.55555  0.12584  0.12970  1.0000
  C   C1548     1.0  0.51764  0.08868  0.14131  1.0000
  H   H1234     1.0  0.79387  0.47947  0.19187  1.0000
  H   H1235     1.0  0.60328  0.06310  0.09755  1.0000
  C   C1549     1.0  0.88148  0.43258  0.13263  1.0000
  C   C1550     1.0  0.53569  0.14041  0.12407  1.0000
  C   C1551     1.0  0.53965  0.16467  0.11802  1.0000
  C   C1552     1.0  0.56352  0.17443  0.11716  1.0000
  C   C1553     1.0  0.58351  0.15975  0.12201  1.0000
  C   C1554     1.0  0.57959  0.13559  0.12824  1.0000
  C   C1555     1.0  0.56480  0.09639  0.15761  1.0000
  C   C1556     1.0  0.59032  0.09113  0.15877  1.0000
  C   C1557     1.0  0.60188  0.09309  0.17254  1.0000
  C   C1558     1.0  0.58824  0.10057  0.18522  1.0000
  C   C1559     1.0  0.56287  0.10556  0.18426  1.0000
  C   C1560     1.0  0.55117  0.10339  0.17057  1.0000
  H   H1236     1.0  0.61019  0.03800  0.16494  1.0000
  C   C1561     1.0  0.64931  0.03988  0.15918  1.0000
  C   C1562     1.0  0.75617  0.20551  0.22604  1.0000
  H   H1237     1.0  0.57873  0.09555  0.10979  1.0000
  C   C1563     1.0  0.97019  0.41016  0.13634  1.0000
  C   C1564     1.0  0.73872  0.29184  0.23622  1.0000
  C   C1565     1.0  0.96513  0.43656  0.11338  1.0000
  H   H1238     1.0  0.53168  0.10778  0.17025  1.0000
  H   H1239     1.0  0.51699  0.13361  0.12455  1.0000
  H   H1240     1.0  0.52408  0.17619  0.11446  1.0000
  H   H1241     1.0  0.56651  0.19353  0.11304  1.0000
  H   H1242     1.0  0.60201  0.16737  0.12136  1.0000
  H   H1243     1.0  0.59540  0.12473  0.13209  1.0000
  H   H1244     1.0  0.60161  0.08638  0.14894  1.0000
  H   H1245     1.0  0.89612  0.44682  0.02628  1.0000
  H   H1246     1.0  0.59753  0.10313  0.19567  1.0000
  H   H1247     1.0  0.55237  0.11179  0.19405  1.0000
  H   H1248     1.0  0.77372  0.21000  0.17953  1.0000
  C   C1566     1.0  0.73741  0.16125  0.17340  1.0000
  H   H1249     1.0  0.84872  0.48070  0.10548  1.0000
  C   C1567     1.0  0.50933  0.08437  0.03432  1.0000
  C   C1568     1.0  0.80020  0.27368  0.24023  1.0000
  C   C1569     1.0  0.72110  0.16188  0.18605  1.0000
  H   H1250     1.0  0.81203  0.29546  0.18295  1.0000
  H   H1251     1.0  0.86433  0.48539  0.16337  1.0000
  C   C1570     1.0  0.77406  0.28643  0.18944  1.0000
  H   H1252     1.0  0.59805  0.08382  0.06904  1.0000
  C   C1571     1.0  0.77696  0.21401  0.23320  1.0000
  H   H1253     1.0  0.98720  0.44122  0.03221  1.0000
  H   H1254     1.0  0.69496  0.26575  0.05010  1.0000
  H   H1255     1.0  0.70585  0.14891  0.18753  1.0000
  C   C1572     1.0  0.72382  0.17977  0.19656  1.0000
  C   C1573     1.0  0.69877  0.41154  0.22716  1.0000
  H   H1256     1.0  0.76698  0.30426  0.18513  1.0000
  H   H1257     1.0  0.73815  0.27227  0.19616  1.0000
  C   C1574     1.0  0.85792  0.42789  0.12758  1.0000
  C   C1575     1.0  0.84606  0.44543  0.11799  1.0000
  C   C1576     1.0  0.75930  0.19642  0.18180  1.0000
  H   H1258     1.0  0.50575  0.14723  0.17749  1.0000
  H   H1259     1.0  0.84887  0.41057  0.13102  1.0000
  H   H1260     1.0  0.82773  0.44167  0.11419  1.0000
  C   C1577     1.0  0.77972  0.11696  0.23283  1.0000
  C   C1578     1.0  0.69985  0.23765  0.19914  1.0000
  C   C1579     1.0  0.85790  0.46762  0.11327  1.0000
  C   C1580     1.0  0.54543  0.01961  0.02851  1.0000
  Fe  Fe107     1.0  0.64305  0.00051  0.04268  1.0000
  H   H1261     1.0  0.60290  0.12563  0.07852  1.0000
  H   H1262     1.0  0.72025  0.12276  0.22142  1.0000
  H   H1263     1.0  0.96783  0.40734  0.14857  1.0000
  C   C1581     1.0  0.96718  0.35336  0.15171  1.0000
  C   C1582     1.0  0.94203  0.35537  0.14830  1.0000
  C   C1583     1.0  0.92366  0.34760  0.15910  1.0000
  C   C1584     1.0  0.93017  0.33819  0.17352  1.0000
  C   C1585     1.0  0.95518  0.33636  0.17709  1.0000
  H   H1264     1.0  0.72528  0.17996  0.22882  1.0000
  C   C1586     1.0  0.80695  0.33183  0.22270  1.0000
  H   H1265     1.0  0.95907  0.45387  0.10773  1.0000
  C   C1587     1.0  0.70576  0.23696  0.22620  1.0000
  C   C1588     1.0  0.56425  0.12948  0.08513  1.0000
  H   H1266     1.0  0.92436  0.46500  0.00591  1.0000
  C   C1589     1.0  0.59523  0.03493  0.11527  1.0000
  C   C1590     1.0  0.78315  0.37032  0.22069  1.0000
  H   H1267     1.0  0.62172  0.09013  0.17323  1.0000
  C   C1591     1.0  0.55983  0.01554  0.01528  1.0000
  C   C1592     1.0  0.67029  0.02696  0.15407  1.0000
  C   C1593     1.0  0.97369  0.34381  0.16621  1.0000
  C   C1594     1.0  0.55343  0.03606  0.03880  1.0000
  H   H1268     1.0  0.66385  0.24959  0.19176  1.0000
  C   C1595     1.0  0.79358  0.34950  0.21403  1.0000
  S   S213      1.0  0.64979  0.01470  0.01752  1.0000
  C   C1596     1.0  0.72406  0.30644  0.22636  1.0000
  H   H1269     1.0  0.93664  0.36244  0.13713  1.0000
  H   H1270     1.0  0.90435  0.34861  0.15618  1.0000
  H   H1271     1.0  0.91577  0.33216  0.18187  1.0000
  C   C1597     1.0  0.80579  0.05136  0.23411  1.0000
  Fe  Fe108     1.0  0.60129  0.99665  0.06694  1.0000
  H   H1272     1.0  0.82941  0.26975  0.22308  1.0000
  P   P50       1.0  0.99052  0.36235  0.13723  1.0000
  H   H1273     1.0  0.91143  0.45824  0.13216  1.0000
  C   C1598     1.0  0.52600  0.01811  0.10766  1.0000
  H   H1274     1.0  0.52525  0.12875  0.09038  1.0000
  C   C1599     1.0  0.52772  0.04043  0.09873  1.0000
  C   C1600     1.0  0.98058  0.39132  0.12777  1.0000
  C   C1601     1.0  0.97971  0.30137  0.11300  1.0000
  C   C1602     1.0  0.96741  0.44259  0.03066  1.0000
  H   H1275     1.0  0.90344  0.45618  0.09408  1.0000
  C   C1603     1.0  0.70779  0.32134  0.11911  1.0000
  C   C1604     1.0  0.73277  0.31412  0.11873  1.0000
  C   C1605     1.0  0.73966  0.29074  0.11407  1.0000
  C   C1606     1.0  0.72161  0.27436  0.11001  1.0000
  C   C1607     1.0  0.69637  0.28111  0.11086  1.0000
  C   C1608     1.0  0.68966  0.30501  0.11501  1.0000
  P   P51       1.0  0.67302  0.26047  0.10500  1.0000
  C   C1609     1.0  0.66780  0.26985  0.08542  1.0000
  C   C1610     1.0  0.68346  0.22863  0.10710  1.0000
  C   C1611     1.0  0.67754  0.21160  0.09651  1.0000
  C   C1612     1.0  0.68530  0.18683  0.09853  1.0000
  C   C1613     1.0  0.69869  0.17888  0.11121  1.0000
  C   C1614     1.0  0.70409  0.19561  0.12197  1.0000
  C   C1615     1.0  0.69624  0.22031  0.12000  1.0000
  C   C1616     1.0  0.64735  0.28491  0.08145  1.0000
  C   C1617     1.0  0.64383  0.29253  0.06624  1.0000
  C   C1618     1.0  0.66087  0.28548  0.05493  1.0000
  C   C1619     1.0  0.68157  0.27097  0.05884  1.0000
  C   C1620     1.0  0.68514  0.26333  0.07404  1.0000
  C   C1621     1.0  0.64491  0.26116  0.11677  1.0000
  C   C1622     1.0  0.64530  0.26899  0.13159  1.0000
  C   C1623     1.0  0.62397  0.26743  0.14113  1.0000
  C   C1624     1.0  0.60211  0.25795  0.13598  1.0000
  C   C1625     1.0  0.60159  0.24990  0.12129  1.0000
  C   C1626     1.0  0.62296  0.25129  0.11174  1.0000
  H   H1276     1.0  0.70251  0.33956  0.12260  1.0000
  H   H1277     1.0  0.74688  0.32649  0.12215  1.0000
  H   H1278     1.0  0.75907  0.28519  0.11389  1.0000
  H   H1279     1.0  0.72748  0.25644  0.10630  1.0000
  H   H1280     1.0  0.67041  0.31097  0.11517  1.0000
  H   H1281     1.0  0.66652  0.21719  0.08688  1.0000
  H   H1282     1.0  0.68021  0.17349  0.09060  1.0000
  H   H1283     1.0  0.70399  0.15950  0.11296  1.0000
  H   H1284     1.0  0.71382  0.18933  0.13202  1.0000
  H   H1285     1.0  0.69982  0.23292  0.12863  1.0000
  H   H1286     1.0  0.63425  0.29097  0.09009  1.0000
  H   H1287     1.0  0.62796  0.30406  0.06322  1.0000
  H   H1288     1.0  0.65816  0.29145  0.04314  1.0000
  H   H1289     1.0  0.70147  0.25239  0.07694  1.0000
  H   H1290     1.0  0.66228  0.27536  0.13607  1.0000
  H   H1291     1.0  0.62469  0.27267  0.15273  1.0000
  H   H1292     1.0  0.58581  0.25596  0.14355  1.0000
  H   H1293     1.0  0.58485  0.24166  0.11760  1.0000
  H   H1294     1.0  0.62257  0.24397  0.10064  1.0000
  C   C1627     1.0  0.67238  0.13054  0.23919  1.0000
  C   C1628     1.0  0.53800  0.09457  0.08083  1.0000
  H   H1295     1.0  0.71016  0.18058  0.20580  1.0000
  C   C1629     1.0  0.74218  0.18617  0.23342  1.0000
  P   P52       1.0  0.74600  0.22042  0.20829  1.0000
  H   H1296     1.0  0.99293  0.34194  0.16911  1.0000
  H   H1297     1.0  0.71625  0.29841  0.21671  1.0000
  H   H1298     1.0  0.50974  0.01022  0.07503  1.0000
  C   C1630     1.0  0.73592  0.11597  0.22787  1.0000
  H   H1299     1.0  0.80720  0.02289  0.21812  1.0000
  C   C1631     1.0  0.50625  0.05227  0.09322  1.0000
  C   C1632     1.0  0.82866  0.01262  0.23765  1.0000
  C   C1633     1.0  0.62439  0.00333  0.15719  1.0000
  H   H1300     1.0  0.78703  0.28019  0.23196  1.0000
  P   P53       1.0  0.50779  0.08031  0.08084  1.0000
  C   C1634     1.0  0.50252  0.07383  0.06139  1.0000
  C   C1635     1.0  0.82430  0.26771  0.23509  1.0000
  C   C1636     1.0  0.49622  0.06339  0.03103  1.0000
  C   C1637     1.0  0.51478  0.99437  0.06874  1.0000
  H   H1301     1.0  0.79375  0.06323  0.22721  1.0000
  H   H1302     1.0  0.54592  0.04776  0.09588  1.0000
  C   C1638     1.0  0.94504  0.48393  0.06887  1.0000
  H   H1303     1.0  0.95657  0.47980  0.05898  1.0000
  C   C1639     1.0  0.66833  0.00233  0.15035  1.0000
  H   H1304     1.0  0.54278  0.00866  0.11129  1.0000
  H   H1305     1.0  0.83869  0.46953  0.19252  1.0000
  H   H1306     1.0  0.92988  0.44723  0.07189  1.0000
  H   H1307     1.0  0.96562  0.28745  0.11229  1.0000
  H   H1308     1.0  0.99009  0.38099  0.10495  1.0000
  H   H1309     1.0  0.67410  0.24839  0.23981  1.0000
  C   C1640     1.0  0.98285  0.39530  0.11193  1.0000
  C   C1641     1.0  0.50286  0.00756  0.11132  1.0000
  C   C1642     1.0  0.84523  0.48268  0.16068  1.0000
  C   C1643     1.0  0.91501  0.47081  0.08881  1.0000
  C   C1644     1.0  0.51244  0.08962  0.04942  1.0000
  C   C1645     1.0  0.87243  0.34609  0.23997  1.0000
  H   H1310     1.0  0.74207  0.27254  0.23411  1.0000
  H   H1311     1.0  0.51726  0.09645  0.02515  1.0000
  C   C1646     1.0  0.81074  0.33512  0.23798  1.0000
  P   P54       1.0  0.55009  0.99356  0.00224  1.0000
  C   C1647     1.0  0.73250  0.09763  0.23965  1.0000
  H   H1312     1.0  0.60655  0.99438  0.15867  1.0000
  H   H1313     1.0  0.76671  0.43128  0.23206  1.0000
  H   H1314     1.0  0.49403  0.05909  0.01935  1.0000
  C   C1648     1.0  0.72857  0.43590  0.23931  1.0000
  H   H1315     1.0  0.83440  0.99484  0.23361  1.0000
  C   C1649     1.0  0.70406  0.42890  0.23758  1.0000
  H   H1316     1.0  0.78022  0.38976  0.24141  1.0000
  Fe  Fe109     1.0  0.53721  0.07116  0.40517  1.0000
  S   S214      1.0  0.55698  0.03457  0.40747  1.0000
  Fe  Fe110     1.0  0.54420  0.12238  0.39092  1.0000
  H   H1317     1.0  0.80116  0.14005  0.26035  1.0000
  S   S215      1.0  0.56907  0.14549  0.37375  1.0000
  Fe  Fe111     1.0  0.51687  0.11378  0.42279  1.0000
  H   H1318     1.0  0.74394  0.30016  0.31644  1.0000
  S   S216      1.0  0.55529  0.10444  0.41352  1.0000
  S   S217      1.0  0.52848  0.08809  0.38226  1.0000
  Fe  Fe112     1.0  0.74017  0.13782  0.29875  1.0000
  S   S218      1.0  0.70290  0.15683  0.30151  1.0000
  S   S219      1.0  0.77929  0.15622  0.29713  1.0000
  Fe  Fe113     1.0  0.71463  0.08850  0.28998  1.0000
  S   S220      1.0  0.67658  0.10596  0.29131  1.0000
  S   S221      1.0  0.71744  0.05018  0.27991  1.0000
  Fe  Fe114     1.0  0.69397  0.14003  0.27961  1.0000
  S   S222      1.0  0.67998  0.16557  0.26011  1.0000
  Fe  Fe115     1.0  0.68856  0.12077  0.31309  1.0000
  S   S223      1.0  0.66435  0.10961  0.33452  1.0000
  S   S224      1.0  0.73113  0.12189  0.27670  1.0000
  S   S225      1.0  0.72673  0.10243  0.31197  1.0000
  H   H1319     1.0  0.95024  0.47653  0.44938  1.0000
  S   S226      1.0  0.92524  0.47588  0.41033  1.0000
  C   C1650     1.0  0.89800  0.41858  0.29944  1.0000
  C   C1651     1.0  0.50848  0.03215  0.35448  1.0000
  C   C1652     1.0  0.96888  0.34402  0.35447  1.0000
  Fe  Fe116     1.0  0.89853  0.46611  0.39279  1.0000
  S   S227      1.0  0.90337  0.42571  0.38619  1.0000
  H   H1320     1.0  0.56071  0.09425  0.33595  1.0000
  Fe  Fe117     1.0  0.87404  0.28534  0.30068  1.0000
  S   S228      1.0  0.85863  0.32432  0.29806  1.0000
  S   S229      1.0  0.84151  0.25686  0.30368  1.0000
  Fe  Fe118     1.0  0.92812  0.30506  0.29639  1.0000
  S   S230      1.0  0.91462  0.34471  0.29334  1.0000
  S   S231      1.0  0.97074  0.30564  0.29147  1.0000
  Fe  Fe119     1.0  0.88820  0.33643  0.31318  1.0000
  S   S232      1.0  0.87585  0.36919  0.32738  1.0000
  Fe  Fe120     1.0  0.88597  0.33060  0.27855  1.0000
  S   S233      1.0  0.87456  0.35620  0.25846  1.0000
  S   S234      1.0  0.90257  0.29698  0.31735  1.0000
  S   S235      1.0  0.90047  0.29135  0.28007  1.0000
  C   C1653     1.0  0.83410  0.99334  0.31821  1.0000
  C   C1654     1.0  0.51664  0.03360  0.44438  1.0000
  H   H1321     1.0  0.84641  0.48532  0.36632  1.0000
  H   H1322     1.0  0.56016  0.00758  0.48583  1.0000
  C   C1655     1.0  0.67289  0.00159  0.34560  1.0000
  C   C1656     1.0  0.87361  0.48693  0.34775  1.0000
  C   C1657     1.0  0.52234  0.05234  0.45379  1.0000
  C   C1658     1.0  0.50838  0.01069  0.45069  1.0000
  C   C1659     1.0  0.88496  0.38527  0.34331  1.0000
  C   C1660     1.0  0.87184  0.40695  0.34698  1.0000
  C   C1661     1.0  0.87751  0.41980  0.35982  1.0000
  C   C1662     1.0  0.89648  0.41121  0.36922  1.0000
  C   C1663     1.0  0.90968  0.38959  0.36553  1.0000
  C   C1664     1.0  0.90411  0.37681  0.35262  1.0000
  H   H1323     1.0  0.85680  0.41357  0.34001  1.0000
  H   H1324     1.0  0.86654  0.43577  0.36275  1.0000
  H   H1325     1.0  0.92415  0.38252  0.37281  1.0000
  H   H1326     1.0  0.91419  0.36010  0.35006  1.0000
  C   C1665     1.0  0.98021  0.39275  0.44450  1.0000
  H   H1327     1.0  0.51769  0.15583  0.36893  1.0000
  H   H1328     1.0  0.53006  0.13165  0.29614  1.0000
  H   H1329     1.0  0.79994  0.20967  0.25266  1.0000
  C   C1666     1.0  0.79588  0.18466  0.29907  1.0000
  C   C1667     1.0  0.82080  0.18642  0.29362  1.0000
  C   C1668     1.0  0.83484  0.20818  0.29487  1.0000
  C   C1669     1.0  0.82441  0.22869  0.30183  1.0000
  C   C1670     1.0  0.79942  0.22702  0.30720  1.0000
  C   C1671     1.0  0.78529  0.20530  0.30584  1.0000
  H   H1330     1.0  0.82947  0.17067  0.28854  1.0000
  H   H1331     1.0  0.85394  0.20892  0.29066  1.0000
  H   H1332     1.0  0.79092  0.24264  0.31254  1.0000
  H   H1333     1.0  0.76630  0.20447  0.31023  1.0000
  C   C1672     1.0  0.71716  0.01879  0.28768  1.0000
  C   C1673     1.0  0.71990  0.01237  0.30315  1.0000
  C   C1674     1.0  0.78408  0.20281  0.24711  1.0000
  H   H1334     1.0  0.72110  0.02682  0.31099  1.0000
  P   P55       1.0  0.51131  0.10559  0.32458  1.0000
  H   H1335     1.0  0.95672  0.35065  0.36342  1.0000
  C   C1675     1.0  0.98930  0.47091  0.44380  1.0000
  C   C1676     1.0  0.59484  0.13474  0.36247  1.0000
  C   C1677     1.0  0.60475  0.15023  0.35030  1.0000
  C   C1678     1.0  0.62575  0.14286  0.34149  1.0000
  C   C1679     1.0  0.63734  0.11991  0.34484  1.0000
  C   C1680     1.0  0.62721  0.10429  0.35688  1.0000
  C   C1681     1.0  0.60610  0.11157  0.36559  1.0000
  H   H1336     1.0  0.59627  0.16820  0.34776  1.0000
  H   H1337     1.0  0.63318  0.15511  0.33228  1.0000
  H   H1338     1.0  0.63596  0.08652  0.35964  1.0000
  H   H1339     1.0  0.59896  0.09953  0.37499  1.0000
  C   C1682     1.0  0.51445  0.11891  0.46636  1.0000
  C   C1683     1.0  0.53930  0.11395  0.46962  1.0000
  H   H1340     1.0  0.53666  0.05756  0.32212  1.0000
  H   H1341     1.0  0.55277  0.11166  0.46040  1.0000
  H   H1342     1.0  0.90841  0.42378  0.42007  1.0000
  C   C1684     1.0  0.53780  0.01094  0.40244  1.0000
  H   H1343     1.0  0.94115  0.32048  0.34617  1.0000
  H   H1344     1.0  0.77127  0.34515  0.46884  1.0000
  P   P56       1.0  0.63245  0.01231  0.32748  1.0000
  C   C1685     1.0  0.79275  0.40293  0.47381  1.0000
  C   C1686     1.0  0.78432  0.36016  0.46927  1.0000
  C   C1687     1.0  0.82013  0.13514  0.25724  1.0000
  H   H1345     1.0  0.74590  0.19633  0.28436  1.0000
  H   H1346     1.0  0.95349  0.37086  0.41381  1.0000
  H   H1347     1.0  0.81595  0.33808  0.46261  1.0000
  C   C1688     1.0  0.75582  0.30427  0.30642  1.0000
  P   P57       1.0  0.83997  0.42408  0.47081  1.0000
  C   C1689     1.0  0.79909  0.48581  0.48083  1.0000
  C   C1690     1.0  0.52486  0.17940  0.46302  1.0000
  H   H1348     1.0  0.80628  0.33850  0.29467  1.0000
  H   H1349     1.0  0.56988  0.02800  0.44664  1.0000
  S   S236      1.0  0.49958  0.07919  0.41534  1.0000
  C   C1691     1.0  0.77537  0.32085  0.30698  1.0000
  C   C1692     1.0  0.75261  0.08904  0.24810  1.0000
  H   H1350     1.0  0.51896  0.03663  0.43217  1.0000
  C   C1693     1.0  0.77628  0.09905  0.24502  1.0000
  H   H1351     1.0  0.96579  0.44605  0.42370  1.0000
  C   C1694     1.0  0.69503  0.00720  0.35229  1.0000
  C   C1695     1.0  0.87183  0.41422  0.42874  1.0000
  C   C1696     1.0  0.75188  0.29260  0.29307  1.0000
  C   C1697     1.0  0.56980  0.12910  0.29635  1.0000
  C   C1698     1.0  0.97822  0.41832  0.44070  1.0000
  C   C1699     1.0  0.79096  0.32584  0.29416  1.0000
  S   S237      1.0  0.86738  0.48658  0.40484  1.0000
  C   C1700     1.0  0.59037  0.12086  0.30449  1.0000
  H   H1352     1.0  0.86622  0.40797  0.41798  1.0000
  C   C1701     1.0  0.89576  0.42315  0.42991  1.0000
  C   C1702     1.0  0.83656  0.01975  0.25158  1.0000
  H   H1353     1.0  0.81240  0.01867  0.33136  1.0000
  H   H1354     1.0  0.78581  0.42082  0.47694  1.0000
  H   H1355     1.0  0.74947  0.07487  0.25717  1.0000
  H   H1356     1.0  0.58029  0.06795  0.35800  1.0000
  H   H1357     1.0  0.53058  0.17861  0.48682  1.0000
  C   C1703     1.0  0.86300  0.14718  0.25286  1.0000
  H   H1358     1.0  0.94628  0.41191  0.46566  1.0000
  C   C1704     1.0  0.71531  0.99960  0.27776  1.0000
  H   H1359     1.0  0.54236  0.17015  0.46053  1.0000
  C   C1705     1.0  0.49447  0.07459  0.34935  1.0000
  H   H1360     1.0  0.84844  0.00753  0.25837  1.0000
  H   H1361     1.0  0.77213  0.00513  0.32221  1.0000
  C   C1706     1.0  0.83836  0.15336  0.25653  1.0000
  C   C1707     1.0  0.56295  0.10324  0.32465  1.0000
  H   H1362     1.0  0.70099  0.19945  0.27984  1.0000
  H   H1363     1.0  0.84577  0.37215  0.46352  1.0000
  H   H1364     1.0  0.75065  0.33509  0.26133  1.0000
  H   H1365     1.0  0.80749  0.26266  0.27826  1.0000
  H   H1366     1.0  0.70978  0.27404  0.26130  1.0000
  C   C1708     1.0  0.81179  0.26382  0.26614  1.0000
  C   C1709     1.0  0.75384  0.23319  0.27455  1.0000
  S   S238      1.0  0.50685  0.13543  0.40075  1.0000
  C   C1710     1.0  0.58502  0.04887  0.35595  1.0000
  H   H1367     1.0  0.91909  0.47931  0.24441  1.0000
  C   C1711     1.0  0.82399  0.45375  0.46923  1.0000
  C   C1712     1.0  0.95858  0.40943  0.41739  1.0000
  H   H1368     1.0  0.80490  0.35906  0.25629  1.0000
  P   P58       1.0  0.80245  0.08724  0.25560  1.0000
  H   H1369     1.0  0.89546  0.40088  0.29459  1.0000
  C   C1713     1.0  0.74825  0.30182  0.24905  1.0000
  C   C1714     1.0  0.74357  0.32687  0.25156  1.0000
  H   H1370     1.0  0.96881  0.30534  0.32566  1.0000
  H   H1371     1.0  0.60289  0.10228  0.32511  1.0000
  C   C1715     1.0  0.79378  0.27194  0.25585  1.0000
  C   C1716     1.0  0.90974  0.49101  0.25240  1.0000
  C   C1717     1.0  0.97618  0.45915  0.48078  1.0000
  H   H1372     1.0  0.94366  0.45755  0.30778  1.0000
  H   H1373     1.0  0.73266  0.44950  0.24732  1.0000
  C   C1718     1.0  0.52471  0.05637  0.33228  1.0000
  H   H1374     1.0  0.93751  0.41858  0.29528  1.0000
  C   C1719     1.0  0.51449  0.13381  0.34968  1.0000
  C   C1720     1.0  0.58692  0.10798  0.31863  1.0000
  H   H1375     1.0  0.98172  0.34489  0.25619  1.0000
  H   H1376     1.0  0.89180  0.44013  0.46626  1.0000
  H   H1377     1.0  0.90315  0.46098  0.26939  1.0000
  C   C1721     1.0  0.82324  0.46755  0.45519  1.0000
  C   C1722     1.0  0.85604  0.42100  0.48846  1.0000
  C   C1723     1.0  0.97134  0.44121  0.47051  1.0000
  C   C1724     1.0  0.77597  0.38350  0.47330  1.0000
  C   C1725     1.0  0.70287  0.23685  0.27003  1.0000
  P   P59       1.0  0.76353  0.28165  0.26302  1.0000
  H   H1378     1.0  0.57254  0.13969  0.28557  1.0000
  H   H1379     1.0  0.50665  0.03517  0.39760  1.0000
  H   H1380     1.0  0.92277  0.48649  0.47621  1.0000
  C   C1726     1.0  0.50588  0.00637  0.46645  1.0000
  H   H1381     1.0  0.85654  0.08572  0.24824  1.0000
  C   C1727     1.0  0.57895  0.01056  0.44436  1.0000
  H   H1382     1.0  0.77523  0.17518  0.26519  1.0000
  H   H1383     1.0  0.52861  0.07019  0.44883  1.0000
  H   H1384     1.0  0.86483  0.46152  0.31821  1.0000
  H   H1385     1.0  0.94980  0.42880  0.35964  1.0000
  H   H1386     1.0  0.67614  0.11662  0.24821  1.0000
  H   H1387     1.0  0.86169  0.46038  0.48943  1.0000
  C   C1728     1.0  0.51157  0.02511  0.47607  1.0000
  H   H1388     1.0  0.92021  0.41533  0.48901  1.0000
  C   C1729     1.0  0.90075  0.48066  0.26645  1.0000
  C   C1730     1.0  0.52394  0.03415  0.34138  1.0000
  C   C1731     1.0  0.96041  0.38403  0.42132  1.0000
  C   C1732     1.0  0.58064  0.00504  0.36289  1.0000
  C   C1733     1.0  0.79317  0.08005  0.27533  1.0000
  C   C1734     1.0  0.98881  0.47581  0.39559  1.0000
  C   C1735     1.0  0.96710  0.46452  0.35942  1.0000
  C   C1736     1.0  0.59831  0.99959  0.35150  1.0000
  C   C1737     1.0  0.79809  0.09626  0.28662  1.0000
  C   C1738     1.0  0.79154  0.08989  0.30184  1.0000
  C   C1739     1.0  0.78031  0.06718  0.30598  1.0000
  C   C1740     1.0  0.77550  0.05090  0.29487  1.0000
  C   C1741     1.0  0.78171  0.05732  0.27963  1.0000
  C   C1742     1.0  0.83582  0.25789  0.26099  1.0000
  C   C1743     1.0  0.96678  0.48424  0.44363  1.0000
  C   C1744     1.0  0.50995  0.15477  0.35788  1.0000
  C   C1745     1.0  0.95097  0.42544  0.47354  1.0000
  C   C1746     1.0  0.50453  0.13228  0.33537  1.0000
  C   C1747     1.0  0.81807  0.39912  0.47027  1.0000
  H   H1389     1.0  0.85949  0.42234  0.30611  1.0000
  H   H1390     1.0  0.83275  0.46114  0.44514  1.0000
  H   H1391     1.0  0.83507  0.04786  0.26770  1.0000
  H   H1392     1.0  0.92111  0.44015  0.44418  1.0000
  H   H1393     1.0  0.80671  0.11398  0.28390  1.0000
  H   H1394     1.0  0.79474  0.10292  0.31037  1.0000
  H   H1395     1.0  0.77478  0.06251  0.31774  1.0000
  H   H1396     1.0  0.76622  0.03359  0.29795  1.0000
  H   H1397     1.0  0.77714  0.04463  0.27121  1.0000
  H   H1398     1.0  0.66630  0.02433  0.30156  1.0000
  H   H1399     1.0  0.80008  0.31750  0.27121  1.0000
  C   C1748     1.0  0.93198  0.48030  0.33812  1.0000
  H   H1400     1.0  0.62305  0.07399  0.27312  1.0000
  C   C1749     1.0  0.96009  0.32699  0.34479  1.0000
  C   C1750     1.0  0.76769  0.29731  0.28018  1.0000
  C   C1751     1.0  0.49590  0.17457  0.35175  1.0000
  H   H1401     1.0  0.83342  0.17220  0.25906  1.0000
  C   C1752     1.0  0.82638  0.11052  0.25439  1.0000
  C   C1753     1.0  0.97570  0.31843  0.33323  1.0000
  C   C1754     1.0  0.85115  0.10447  0.25060  1.0000
  C   C1755     1.0  0.80948  0.35618  0.46576  1.0000
  C   C1756     1.0  0.84213  0.25994  0.24547  1.0000
  C   C1757     1.0  0.66137  0.01928  0.33577  1.0000
  C   C1758     1.0  0.62889  0.03151  0.31017  1.0000
  C   C1759     1.0  0.60636  0.04378  0.30703  1.0000
  C   C1760     1.0  0.60428  0.05909  0.29371  1.0000
  C   C1761     1.0  0.62449  0.06187  0.28334  1.0000
  C   C1762     1.0  0.64667  0.04908  0.28617  1.0000
  C   C1763     1.0  0.64886  0.03390  0.29950  1.0000
  C   C1764     1.0  0.67180  0.04293  0.33319  1.0000
  C   C1765     1.0  0.69379  0.04855  0.34000  1.0000
  C   C1766     1.0  0.70549  0.03067  0.34947  1.0000
  C   C1767     1.0  0.51355  0.01629  0.39815  1.0000
  C   C1768     1.0  0.96655  0.48923  0.35364  1.0000
  C   C1769     1.0  0.81156  0.46295  0.48201  1.0000
  C   C1770     1.0  0.57391  0.02965  0.36505  1.0000
  H   H1402     1.0  0.71419  0.09015  0.24238  1.0000
  S   S239      1.0  0.50389  0.12293  0.44726  1.0000
  C   C1771     1.0  0.50868  0.18531  0.45135  1.0000
  C   C1772     1.0  0.60273  0.04353  0.34459  1.0000
  H   H1403     1.0  0.96973  0.47050  0.39686  1.0000
  C   C1773     1.0  0.93604  0.42735  0.48676  1.0000
  C   C1774     1.0  0.97124  0.37568  0.43487  1.0000
  H   H1404     1.0  0.56052  0.03392  0.37403  1.0000
  H   H1405     1.0  0.98425  0.26266  0.31219  1.0000
  H   H1406     1.0  0.59046  0.04173  0.31484  1.0000
  H   H1407     1.0  0.58709  0.06900  0.29149  1.0000
  H   H1408     1.0  0.83630  0.40792  0.43990  1.0000
  H   H1409     1.0  0.66239  0.05121  0.27815  1.0000
  H   H1410     1.0  0.71298  0.00426  0.26580  1.0000
  H   H1411     1.0  0.66283  0.05729  0.32615  1.0000
  H   H1412     1.0  0.70143  0.06702  0.33811  1.0000
  C   C1775     1.0  0.60900  0.01880  0.34197  1.0000
  H   H1413     1.0  0.95033  0.41594  0.40681  1.0000
  H   H1414     1.0  0.53551  0.01855  0.33841  1.0000
  C   C1776     1.0  0.80093  0.35600  0.24463  1.0000
  H   H1415     1.0  0.82225  0.32207  0.24448  1.0000
  C   C1777     1.0  0.54696  0.11272  0.48482  1.0000
  P   P60       1.0  0.90957  0.48991  0.32413  1.0000
  H   H1416     1.0  0.61187  0.05873  0.33805  1.0000
  H   H1417     1.0  0.73784  0.16075  0.25305  1.0000
  H   H1418     1.0  0.72240  0.03520  0.35483  1.0000
  C   C1778     1.0  0.82902  0.04265  0.25681  1.0000
  C   C1779     1.0  0.54576  0.12431  0.30232  1.0000
  H   H1419     1.0  0.50808  0.01510  0.36170  1.0000
  H   H1420     1.0  0.52608  0.11902  0.35443  1.0000
  C   C1780     1.0  0.52007  0.04804  0.46957  1.0000
  H   H1421     1.0  0.76814  0.00599  0.25527  1.0000
  C   C1781     1.0  0.82631  0.37555  0.46628  1.0000
  C   C1782     1.0  0.86222  0.42277  0.45504  1.0000
  C   C1783     1.0  0.73832  0.21323  0.27898  1.0000
  H   H1422     1.0  0.88546  0.47316  0.35329  1.0000
  H   H1423     1.0  0.97283  0.35596  0.43784  1.0000
  C   C1784     1.0  0.85504  0.41413  0.44121  1.0000
  C   C1785     1.0  0.78729  0.31401  0.28085  1.0000
  C   C1786     1.0  0.81200  0.00437  0.32332  1.0000
  C   C1787     1.0  0.71822  0.25698  0.26579  1.0000
  H   H1424     1.0  0.91915  0.44226  0.34091  1.0000
  C   C1788     1.0  0.74399  0.25506  0.26761  1.0000
  C   C1789     1.0  0.86938  0.12277  0.24984  1.0000
  C   C1790     1.0  0.96731  0.42652  0.42707  1.0000
  H   H1425     1.0  0.99146  0.47179  0.47852  1.0000
  H   H1426     1.0  0.52506  0.06261  0.47671  1.0000
  H   H1427     1.0  0.73677  0.27965  0.29299  1.0000
  H   H1428     1.0  0.60903  0.12492  0.30003  1.0000
  P   P61       1.0  0.99023  0.44011  0.45315  1.0000
  C   C1791     1.0  0.81350  0.05859  0.24814  1.0000
  H   H1429     1.0  0.60363  0.02727  0.42695  1.0000
  C   C1792     1.0  0.90461  0.46326  0.31329  1.0000
  C   C1793     1.0  0.54217  0.11079  0.31635  1.0000
  H   H1430     1.0  0.77872  0.32955  0.31741  1.0000
  C   C1794     1.0  0.92503  0.45073  0.30686  1.0000
  C   C1795     1.0  0.88623  0.43203  0.45606  1.0000
  C   C1796     1.0  0.71295  0.21497  0.27653  1.0000
  C   C1797     1.0  0.87763  0.43079  0.30590  1.0000
  C   C1798     1.0  0.88085  0.45301  0.31281  1.0000
  H   H1431     1.0  0.56632  0.10935  0.48706  1.0000
  C   C1799     1.0  0.93248  0.45556  0.34417  1.0000
  C   C1800     1.0  0.94995  0.44776  0.35477  1.0000
  H   H1432     1.0  0.77340  0.23150  0.27674  1.0000
  C   C1801     1.0  0.90296  0.43210  0.44353  1.0000
  C   C1802     1.0  0.51799  0.18418  0.47799  1.0000
  C   C1803     1.0  0.92169  0.42858  0.29987  1.0000
  H   H1433     1.0  0.68307  0.23815  0.26849  1.0000
  C   C1804     1.0  0.77024  0.18334  0.25416  1.0000
  C   C1805     1.0  0.51032  0.07694  0.33638  1.0000
  C   C1806     1.0  0.59810  0.01018  0.43326  1.0000
  H   H1434     1.0  0.84968  0.25227  0.26915  1.0000
  H   H1435     1.0  0.75644  0.38659  0.47602  1.0000
  C   C1807     1.0  0.78935  0.99683  0.31816  1.0000
  H   H1436     1.0  0.72532  0.36074  0.24373  1.0000
  H   H1437     1.0  0.51248  0.08855  0.29345  1.0000
  H   H1438     1.0  0.70389  0.99343  0.35980  1.0000
  H   H1439     1.0  0.98880  0.38604  0.45489  1.0000
  H   H1440     1.0  0.98045  0.45844  0.36774  1.0000
  H   H1441     1.0  0.87717  0.16128  0.25244  1.0000
  H   H1442     1.0  0.88056  0.30773  0.24609  1.0000
  C   C1808     1.0  0.81056  0.49030  0.45403  1.0000
  H   H1443     1.0  0.68914  0.43707  0.24425  1.0000
  C   C1809     1.0  0.99320  0.35271  0.35250  1.0000
  H   H1444     1.0  0.88089  0.48759  0.28740  1.0000
  H   H1445     1.0  0.50424  0.99620  0.44329  1.0000
  C   C1810     1.0  0.49796  0.99705  0.39479  1.0000
  C   C1811     1.0  0.49495  0.19540  0.48134  1.0000
  H   H1446     1.0  0.51371  0.18060  0.43987  1.0000
  H   H1447     1.0  0.88851  0.11802  0.24701  1.0000
  C   C1812     1.0  0.49742  0.12205  0.47868  1.0000
  C   C1813     1.0  0.74921  0.17519  0.24737  1.0000
  H   H1448     1.0  0.85164  0.99910  0.32231  1.0000
  H   H1449     1.0  0.85408  0.38088  0.49116  1.0000
  C   C1814     1.0  0.49362  0.05229  0.35839  1.0000
  C   C1815     1.0  0.67310  0.15566  0.24203  1.0000
  C   C1816     1.0  0.49368  0.09412  0.29647  1.0000
  C   C1817     1.0  0.72906  0.34150  0.24161  1.0000
  Fe  Fe121     1.0  0.68972  0.13533  0.63899  1.0000
  S   S240      1.0  0.72543  0.11296  0.64035  1.0000
  S   S241      1.0  0.67065  0.14373  0.61648  1.0000
  Fe  Fe122     1.0  0.68800  0.14194  0.67321  1.0000
  S   S242      1.0  0.72244  0.11939  0.67693  1.0000
  S   S243      1.0  0.66782  0.16236  0.69168  1.0000
  Fe  Fe123     1.0  0.73809  0.14174  0.65614  1.0000
  S   S244      1.0  0.77760  0.15797  0.65761  1.0000
  Fe  Fe124     1.0  0.70697  0.09282  0.66098  1.0000
  S   S245      1.0  0.69793  0.05155  0.66699  1.0000
  S   S246      1.0  0.70377  0.16521  0.65313  1.0000
  S   S247      1.0  0.67106  0.11445  0.65882  1.0000
  Fe  Fe125     1.0  0.54034  0.11140  0.57453  1.0000
  H   H1450     1.0  0.81181  0.45267  0.49296  1.0000
  S   S248      1.0  0.56583  0.10760  0.59482  1.0000
  Fe  Fe126     1.0  0.52448  0.11456  0.54064  1.0000
  S   S249      1.0  0.54128  0.11575  0.51603  1.0000
  H   H1451     1.0  0.60598  0.13716  0.57917  1.0000
  H   H1452     1.0  0.67800  0.24041  0.71706  1.0000
  H   H1453     1.0  0.55280  0.14224  0.61839  1.0000
  S   S250      1.0  0.52597  0.14270  0.55878  1.0000
  S   S251      1.0  0.54151  0.08457  0.55615  1.0000
  Fe  Fe127     1.0  0.87113  0.28278  0.65475  1.0000
  S   S252      1.0  0.86666  0.31950  0.66563  1.0000
  S   S253      1.0  0.83364  0.26362  0.65103  1.0000
  Fe  Fe128     1.0  0.92845  0.28846  0.65307  1.0000
  S   S254      1.0  0.92706  0.32456  0.66411  1.0000
  S   S255      1.0  0.96614  0.27473  0.64397  1.0000
  Fe  Fe129     1.0  0.89812  0.30653  0.68002  1.0000
  S   S256      1.0  0.90103  0.30780  0.70556  1.0000
  Fe  Fe130     1.0  0.89589  0.33484  0.64865  1.0000
  S   S257      1.0  0.89403  0.37567  0.63970  1.0000
  S   S258      1.0  0.90157  0.26915  0.67013  1.0000
  S   S259      1.0  0.89834  0.29941  0.63659  1.0000
  Fe  Fe131     1.0  0.89794  0.46753  0.56467  1.0000
  S   S260      1.0  0.89924  0.42612  0.57206  1.0000
  C   C1818     1.0  0.67712  0.28216  0.73306  1.0000
  H   H1454     1.0  0.93105  0.46672  0.65384  1.0000
  C   C1819     1.0  0.52410  0.18051  0.51731  1.0000
  C   C1820     1.0  0.89590  0.38920  0.62078  1.0000
  C   C1821     1.0  0.89103  0.41476  0.61827  1.0000
  C   C1822     1.0  0.89203  0.42635  0.60347  1.0000
  C   C1823     1.0  0.89766  0.41243  0.59096  1.0000
  C   C1824     1.0  0.90216  0.38679  0.59346  1.0000
  C   C1825     1.0  0.90140  0.37523  0.60828  1.0000
  H   H1455     1.0  0.88642  0.42565  0.62783  1.0000
  H   H1456     1.0  0.88862  0.44606  0.60172  1.0000
  H   H1457     1.0  0.90639  0.37584  0.58386  1.0000
  H   H1458     1.0  0.90505  0.35555  0.61006  1.0000
  C   C1826     1.0  0.84964  0.35735  0.72062  1.0000
  C   C1827     1.0  0.86374  0.34219  0.71107  1.0000
  C   C1828     1.0  0.88199  0.32628  0.71714  1.0000
  H   H1459     1.0  0.98435  0.36129  0.71289  1.0000
  H   H1460     1.0  0.83573  0.36982  0.71586  1.0000
  H   H1461     1.0  0.86069  0.34294  0.69904  1.0000
  C   C1829     1.0  0.96897  0.39893  0.61991  1.0000
  H   H1462     1.0  0.64648  0.15075  0.58810  1.0000
  C   C1830     1.0  0.54292  0.22611  0.52432  1.0000
  C   C1831     1.0  0.84318  0.19670  0.73441  1.0000
  C   C1832     1.0  0.52695  0.01831  0.55541  1.0000
  C   C1833     1.0  0.85577  0.08507  0.73164  1.0000
  H   H1463     1.0  0.53521  0.03606  0.55602  1.0000
  C   C1834     1.0  0.79255  0.18771  0.65586  1.0000
  C   C1835     1.0  0.77965  0.21015  0.65312  1.0000
  C   C1836     1.0  0.79251  0.23299  0.65171  1.0000
  C   C1837     1.0  0.81844  0.23400  0.65321  1.0000
  C   C1838     1.0  0.83127  0.21159  0.65612  1.0000
  C   C1839     1.0  0.81846  0.18873  0.65733  1.0000
  H   H1464     1.0  0.75980  0.20990  0.65185  1.0000
  H   H1465     1.0  0.78225  0.25003  0.64933  1.0000
  H   H1466     1.0  0.85117  0.21180  0.65712  1.0000
  H   H1467     1.0  0.82878  0.17161  0.65930  1.0000
  C   C1840     1.0  0.67129  0.15471  0.71122  1.0000
  C   C1841     1.0  0.68152  0.13200  0.71652  1.0000
  C   C1842     1.0  0.72844  0.01499  0.65446  1.0000
  C   C1843     1.0  0.80323  0.24322  0.70460  1.0000
  H   H1468     1.0  0.93809  0.44989  0.60530  1.0000
  C   C1844     1.0  0.66331  0.17184  0.72168  1.0000
  H   H1469     1.0  0.68758  0.11860  0.70855  1.0000
  H   H1470     1.0  0.74918  0.05939  0.67803  1.0000
  C   C1845     1.0  0.95103  0.49216  0.63804  1.0000
  H   H1471     1.0  0.65496  0.18924  0.71769  1.0000
  C   C1846     1.0  0.56558  0.05319  0.62479  1.0000
  C   C1847     1.0  0.70647  0.02061  0.66257  1.0000
  H   H1472     1.0  0.60156  0.02015  0.49334  1.0000
  C   C1848     1.0  0.94160  0.32506  0.59216  1.0000
  H   H1473     1.0  0.74069  0.02979  0.65027  1.0000
  C   C1849     1.0  0.64122  0.13383  0.61078  1.0000
  C   C1850     1.0  0.62491  0.11999  0.62064  1.0000
  C   C1851     1.0  0.60198  0.11227  0.61553  1.0000
  C   C1852     1.0  0.59492  0.11830  0.60053  1.0000
  C   C1853     1.0  0.61109  0.13232  0.59071  1.0000
  C   C1854     1.0  0.63407  0.14000  0.59582  1.0000
  H   H1474     1.0  0.63011  0.11498  0.63215  1.0000
  H   H1475     1.0  0.58965  0.10151  0.62324  1.0000
  C   C1855     1.0  0.90540  0.24459  0.71245  1.0000
  C   C1856     1.0  0.54918  0.03622  0.60258  1.0000
  C   C1857     1.0  0.60297  0.02222  0.58827  1.0000
  H   H1476     1.0  0.82884  0.30211  0.73008  1.0000
  H   H1477     1.0  0.84404  0.48127  0.62425  1.0000
  C   C1858     1.0  0.58718  0.04181  0.51140  1.0000
  C   C1859     1.0  0.59685  0.04294  0.57862  1.0000
  P   P62       1.0  0.59827  0.02324  0.60860  1.0000
  H   H1478     1.0  0.51706  0.16271  0.51465  1.0000
  C   C1860     1.0  0.54297  0.06540  0.62744  1.0000
  C   C1861     1.0  0.90852  0.49228  0.62094  1.0000
  C   C1862     1.0  0.83755  0.46405  0.62026  1.0000
  C   C1863     1.0  0.59384  0.14707  0.70969  1.0000
  H   H1479     1.0  0.86226  0.20045  0.73083  1.0000
  P   P63       1.0  0.58935  0.13988  0.69022  1.0000
  C   C1864     1.0  0.55663  0.14373  0.68689  1.0000
  C   C1865     1.0  0.60696  0.16036  0.67693  1.0000
  C   C1866     1.0  0.61281  0.18444  0.68058  1.0000
  C   C1867     1.0  0.62639  0.20012  0.67015  1.0000
  C   C1868     1.0  0.63412  0.19192  0.65603  1.0000
  C   C1869     1.0  0.62803  0.16816  0.65221  1.0000
  C   C1870     1.0  0.61441  0.15245  0.66257  1.0000
  C   C1871     1.0  0.53899  0.13443  0.69789  1.0000
  C   C1872     1.0  0.56164  0.01908  0.49530  1.0000
  H   H1480     1.0  0.51671  0.14825  0.60208  1.0000
  H   H1481     1.0  0.98817  0.40126  0.58255  1.0000
  C   C1873     1.0  0.54850  0.15676  0.67367  1.0000
  C   C1874     1.0  0.59938  0.10838  0.68730  1.0000
  C   C1875     1.0  0.58224  0.08971  0.68511  1.0000
  C   C1876     1.0  0.54243  0.04288  0.51499  1.0000
  H   H1482     1.0  0.88674  0.41549  0.52776  1.0000
  H   H1483     1.0  0.96491  0.47506  0.50178  1.0000
  H   H1484     1.0  0.56837  0.17848  0.70891  1.0000
  H   H1485     1.0  0.84389  0.12146  0.72350  1.0000
  H   H1486     1.0  0.60763  0.19092  0.69159  1.0000
  H   H1487     1.0  0.63149  0.21839  0.67320  1.0000
  H   H1488     1.0  0.64513  0.20382  0.64808  1.0000
  H   H1489     1.0  0.63425  0.16178  0.64128  1.0000
  H   H1490     1.0  0.61002  0.13407  0.65938  1.0000
  H   H1491     1.0  0.54488  0.12459  0.70825  1.0000
  C   C1877     1.0  0.64830  0.04732  0.63801  1.0000
  C   C1878     1.0  0.84177  0.10173  0.72258  1.0000
  C   C1879     1.0  0.69523  0.23284  0.71260  1.0000
  H   H1492     1.0  0.56164  0.16431  0.66504  1.0000
  C   C1880     1.0  0.52360  0.06325  0.61760  1.0000
  C   C1881     1.0  0.61218  0.00066  0.58193  1.0000
  C   C1882     1.0  0.94126  0.44503  0.49701  1.0000
  H   H1493     1.0  0.89946  0.31272  0.73762  1.0000
  H   H1494     1.0  0.62065  0.11757  0.71470  1.0000
  H   H1495     1.0  0.84509  0.47548  0.59670  1.0000
  H   H1496     1.0  0.86414  0.04662  0.73760  1.0000
  C   C1883     1.0  0.71759  0.23533  0.71996  1.0000
  H   H1497     1.0  0.79247  0.10963  0.73374  1.0000
  C   C1884     1.0  0.56896  0.03873  0.61224  1.0000
  C   C1885     1.0  0.71643  0.20890  0.69364  1.0000
  C   C1886     1.0  0.88547  0.32508  0.73284  1.0000
  H   H1498     1.0  0.50650  0.07347  0.61937  1.0000
  C   C1887     1.0  0.86702  0.25010  0.72729  1.0000
  H   H1499     1.0  0.55021  0.24376  0.52709  1.0000
  H   H1500     1.0  0.92959  0.44668  0.50718  1.0000
  C   C1888     1.0  0.95790  0.34415  0.59468  1.0000
  C   C1889     1.0  0.51227  0.20252  0.51207  1.0000
  C   C1890     1.0  0.53429  0.13814  0.62308  1.0000
  H   H1501     1.0  0.79319  0.27992  0.67258  1.0000
  H   H1502     1.0  0.54072  0.07710  0.63687  1.0000
  C   C1891     1.0  0.61593  0.06008  0.68194  1.0000
  H   H1503     1.0  0.67739  0.21737  0.69398  1.0000
  H   H1504     1.0  0.93387  0.28604  0.59597  1.0000
  C   C1892     1.0  0.59908  0.04173  0.56286  1.0000
  C   C1893     1.0  0.95058  0.43400  0.60578  1.0000
  H   H1505     1.0  0.78028  0.23985  0.68538  1.0000
  H   H1506     1.0  0.75619  0.22450  0.72016  1.0000
  C   C1894     1.0  0.62879  0.03499  0.63189  1.0000
  S   S261      1.0  0.86327  0.49088  0.56222  1.0000
  H   H1507     1.0  0.50484  0.11680  0.65590  1.0000
  C   C1895     1.0  0.83803  0.46087  0.60469  1.0000
  H   H1508     1.0  0.75324  0.27125  0.71182  1.0000
  C   C1896     1.0  0.73838  0.27904  0.73425  1.0000
  C   C1897     1.0  0.82521  0.09298  0.71234  1.0000
  P   P64       1.0  0.51009  0.01949  0.49653  1.0000
  P   P65       1.0  0.80703  0.11497  0.70099  1.0000
  C   C1898     1.0  0.82764  0.14005  0.69457  1.0000
  C   C1899     1.0  0.79454  0.10007  0.68525  1.0000
  C   C1900     1.0  0.80397  0.10500  0.67033  1.0000
  C   C1901     1.0  0.79369  0.09359  0.65831  1.0000
  C   C1902     1.0  0.77415  0.07699  0.66111  1.0000
  C   C1903     1.0  0.76472  0.07187  0.67593  1.0000
  C   C1904     1.0  0.77465  0.08359  0.68793  1.0000
  C   C1905     1.0  0.85115  0.13454  0.68815  1.0000
  C   C1906     1.0  0.86789  0.15354  0.68388  1.0000
  C   C1907     1.0  0.86139  0.17818  0.68609  1.0000
  C   C1908     1.0  0.83810  0.18386  0.69253  1.0000
  C   C1909     1.0  0.82125  0.16492  0.69676  1.0000
  C   C1910     1.0  0.78105  0.12642  0.71210  1.0000
  C   C1911     1.0  0.77897  0.12127  0.72790  1.0000
  C   C1912     1.0  0.75920  0.13121  0.73636  1.0000
  C   C1913     1.0  0.74133  0.14608  0.72910  1.0000
  C   C1914     1.0  0.74263  0.15025  0.71332  1.0000
  C   C1915     1.0  0.76252  0.14067  0.70484  1.0000
  C   C1916     1.0  0.51392  0.14159  0.61388  1.0000
  H   H1509     1.0  0.89337  0.46696  0.63866  1.0000
  C   C1917     1.0  0.59948  0.15797  0.74005  1.0000
  C   C1918     1.0  0.69082  0.00091  0.66784  1.0000
  H   H1510     1.0  0.81846  0.11843  0.66774  1.0000
  H   H1511     1.0  0.80037  0.09831  0.64676  1.0000
  H   H1512     1.0  0.76587  0.06857  0.65176  1.0000
  H   H1513     1.0  0.76662  0.07994  0.69929  1.0000
  H   H1514     1.0  0.85648  0.11551  0.68637  1.0000
  H   H1515     1.0  0.88583  0.14921  0.67867  1.0000
  H   H1516     1.0  0.87415  0.19297  0.68247  1.0000
  H   H1517     1.0  0.83289  0.20305  0.69376  1.0000
  H   H1518     1.0  0.80331  0.16990  0.70160  1.0000
  H   H1519     1.0  0.58050  0.05555  0.63236  1.0000
  C   C1919     1.0  0.52313  0.16059  0.67159  1.0000
  C   C1920     1.0  0.50503  0.12049  0.49390  1.0000
  H   H1520     1.0  0.72792  0.16056  0.70765  1.0000
  H   H1521     1.0  0.76351  0.14441  0.69259  1.0000
  C   C1921     1.0  0.59054  0.06565  0.68243  1.0000
  H   H1522     1.0  0.57730  0.05131  0.68073  1.0000
  H   H1523     1.0  0.62246  0.04150  0.67985  1.0000
  H   H1524     1.0  0.95322  0.36287  0.59058  1.0000
  H   H1525     1.0  0.72611  0.15389  0.73567  1.0000
  C   C1922     1.0  0.62323  0.03965  0.61653  1.0000
  H   H1526     1.0  0.72537  0.42411  0.61897  1.0000
  H   H1527     1.0  0.87390  0.37755  0.51586  1.0000
  C   C1923     1.0  0.54535  0.18128  0.52579  1.0000
  C   C1924     1.0  0.96324  0.42725  0.59257  1.0000
  C   C1925     1.0  0.97899  0.40649  0.59302  1.0000
  C   C1926     1.0  0.96851  0.29540  0.60528  1.0000
  C   C1927     1.0  0.50243  0.01433  0.56053  1.0000
  C   C1928     1.0  0.50698  0.12355  0.64416  1.0000
  H   H1528     1.0  0.59394  0.05767  0.55550  1.0000
  C   C1929     1.0  0.87854  0.41692  0.51671  1.0000
  H   H1529     1.0  0.83066  0.43612  0.58736  1.0000
  H   H1530     1.0  0.77833  0.33872  0.72864  1.0000
  H   H1531     1.0  0.69197  0.10911  0.73626  1.0000
  H   H1532     1.0  0.88031  0.45679  0.51450  1.0000
  C   C1930     1.0  0.87500  0.44019  0.50922  1.0000
  C   C1931     1.0  0.82897  0.27972  0.70341  1.0000
  C   C1932     1.0  0.60993  0.13278  0.71897  1.0000
  C   C1933     1.0  0.82276  0.06728  0.71140  1.0000
  H   H1533     1.0  0.86926  0.23900  0.70412  1.0000
  C   C1934     1.0  0.53084  0.12916  0.63820  1.0000
  H   H1534     1.0  0.97910  0.27638  0.67593  1.0000
  H   H1535     1.0  0.55120  0.02509  0.59283  1.0000
  C   C1935     1.0  0.73511  0.41559  0.62850  1.0000
  C   C1936     1.0  0.72181  0.40680  0.64162  1.0000
  C   C1937     1.0  0.73436  0.39566  0.65386  1.0000
  C   C1938     1.0  0.76023  0.39338  0.65301  1.0000
  C   C1939     1.0  0.77380  0.40245  0.63992  1.0000
  C   C1940     1.0  0.76098  0.41333  0.62760  1.0000
  P   P66       1.0  0.80719  0.39887  0.63873  1.0000
  C   C1941     1.0  0.81493  0.36801  0.63308  1.0000
  C   C1942     1.0  0.82009  0.42286  0.62544  1.0000
  C   C1943     1.0  0.82061  0.41989  0.60974  1.0000
  C   C1944     1.0  0.82975  0.43872  0.59944  1.0000
  C   C1945     1.0  0.60748  0.01988  0.55662  1.0000
  H   H1536     1.0  0.92468  0.32924  0.58625  1.0000
  C   C1946     1.0  0.82871  0.44514  0.63061  1.0000
  C   C1947     1.0  0.80108  0.34749  0.63904  1.0000
  C   C1948     1.0  0.80838  0.32342  0.63574  1.0000
  C   C1949     1.0  0.82957  0.31962  0.62653  1.0000
  C   C1950     1.0  0.84345  0.33988  0.62059  1.0000
  C   C1951     1.0  0.83620  0.36394  0.62387  1.0000
  C   C1952     1.0  0.81922  0.40209  0.65731  1.0000
  C   C1953     1.0  0.83913  0.38717  0.66232  1.0000
  C   C1954     1.0  0.84856  0.38967  0.67664  1.0000
  C   C1955     1.0  0.83796  0.40685  0.68618  1.0000
  C   C1956     1.0  0.81807  0.42178  0.68132  1.0000
  C   C1957     1.0  0.80879  0.41952  0.66691  1.0000
  H   H1537     1.0  0.52628  0.05012  0.52096  1.0000
  H   H1538     1.0  0.94285  0.42460  0.62955  1.0000
  C   C1958     1.0  0.68389  0.12663  0.73222  1.0000
  H   H1539     1.0  0.76963  0.38448  0.66255  1.0000
  H   H1540     1.0  0.77081  0.42014  0.61728  1.0000
  H   H1541     1.0  0.81397  0.40301  0.60540  1.0000
  C   C1959     1.0  0.52998  0.11608  0.49711  1.0000
  H   H1542     1.0  0.61806  0.02187  0.63918  1.0000
  H   H1543     1.0  0.67721  0.07431  0.63374  1.0000
  H   H1544     1.0  0.82857  0.44811  0.64258  1.0000
  H   H1545     1.0  0.78497  0.34988  0.64648  1.0000
  H   H1546     1.0  0.79800  0.30753  0.64055  1.0000
  H   H1547     1.0  0.83546  0.30091  0.62425  1.0000
  H   H1548     1.0  0.86020  0.33694  0.61373  1.0000
  H   H1549     1.0  0.84767  0.37924  0.61955  1.0000
  H   H1550     1.0  0.84756  0.37363  0.65518  1.0000
  H   H1551     1.0  0.86423  0.37829  0.68024  1.0000
  H   H1552     1.0  0.84523  0.40859  0.69733  1.0000
  H   H1553     1.0  0.80990  0.43514  0.68872  1.0000
  H   H1554     1.0  0.79354  0.43140  0.66324  1.0000
  H   H1555     1.0  0.51698  0.17096  0.66147  1.0000
  C   C1960     1.0  0.62484  0.10259  0.68670  1.0000
  H   H1556     1.0  0.75527  0.20191  0.69665  1.0000
  P   P67       1.0  0.71888  0.25199  0.73703  1.0000
  C   C1961     1.0  0.82082  0.25765  0.71125  1.0000
  H   H1557     1.0  0.81025  0.05986  0.70364  1.0000
  H   H1558     1.0  0.50010  0.13123  0.70432  1.0000
  H   H1559     1.0  0.63841  0.11677  0.68822  1.0000
  C   C1962     1.0  0.81844  0.28803  0.68978  1.0000
  C   C1963     1.0  0.51363  0.13814  0.69571  1.0000
  H   H1560     1.0  0.96619  0.31960  0.71167  1.0000
  C   C1964     1.0  0.65659  0.06967  0.61374  1.0000
  H   H1561     1.0  0.72403  0.38870  0.66400  1.0000
  H   H1562     1.0  0.82452  0.30520  0.68390  1.0000
  C   C1965     1.0  0.69475  0.21975  0.69947  1.0000
  C   C1966     1.0  0.52663  0.04851  0.60524  1.0000
  C   C1967     1.0  0.58079  0.16706  0.71580  1.0000
  H   H1563     1.0  0.51178  0.04712  0.59743  1.0000
  C   C1968     1.0  0.80058  0.27387  0.68346  1.0000
  C   C1969     1.0  0.63305  0.07852  0.68412  1.0000
  C   C1970     1.0  0.87949  0.24395  0.71376  1.0000
  C   C1971     1.0  0.73911  0.22364  0.71430  1.0000
  H   H1564     1.0  0.84382  0.29034  0.70762  1.0000
  H   H1565     1.0  0.66696  0.08370  0.60687  1.0000
  H   H1566     1.0  0.58994  0.05994  0.58326  1.0000
  H   H1567     1.0  0.89211  0.49240  0.61421  1.0000
  C   C1972     1.0  0.56587  0.05012  0.51912  1.0000
  H   H1568     1.0  0.97012  0.38776  0.63048  1.0000
  H   H1569     1.0  0.65278  0.07422  0.68368  1.0000
  H   H1570     1.0  0.65269  0.04359  0.64983  1.0000
  H   H1571     1.0  0.56254  0.09360  0.68536  1.0000
  H   H1572     1.0  0.79764  0.22543  0.70977  1.0000
  C   C1973     1.0  0.66223  0.06459  0.62894  1.0000
  C   C1974     1.0  0.76708  0.32217  0.73015  1.0000
  C   C1975     1.0  0.52183  0.22539  0.51565  1.0000
  C   C1976     1.0  0.63711  0.05736  0.60756  1.0000
  C   C1977     1.0  0.98555  0.32141  0.71435  1.0000
  C   C1978     1.0  0.82532  0.21584  0.73461  1.0000
  H   H1573     1.0  0.54677  0.12644  0.64523  1.0000
  H   H1574     1.0  0.70176  0.40854  0.64227  1.0000
  C   C1979     1.0  0.76738  0.30518  0.71889  1.0000
  C   C1980     1.0  0.61410  0.99937  0.56616  1.0000
  S   S262      1.0  0.91283  0.47951  0.54108  1.0000
  C   C1981     1.0  0.95346  0.41989  0.61944  1.0000
  C   C1982     1.0  0.87122  0.39560  0.51001  1.0000
  H   H1575     1.0  0.67380  0.00491  0.67416  1.0000
  C   C1983     1.0  0.61252  0.13811  0.73410  1.0000
  H   H1576     1.0  0.71580  0.19841  0.68360  1.0000
  H   H1577     1.0  0.55457  0.16413  0.52953  1.0000
  C   C1984     1.0  0.75304  0.28373  0.72087  1.0000
  H   H1578     1.0  0.60526  0.04790  0.51444  1.0000
  C   C1985     1.0  0.90923  0.47806  0.63470  1.0000
  C   C1986     1.0  0.73863  0.21084  0.70106  1.0000
  H   H1579     1.0  0.86862  0.09194  0.73945  1.0000
  H   H1580     1.0  0.64504  0.30594  0.72999  1.0000
  C   C1987     1.0  0.79327  0.25129  0.69074  1.0000
  H   H1581     1.0  0.56737  0.06282  0.52802  1.0000
  H   H1582     1.0  0.56019  0.00221  0.54583  1.0000
  H   H1583     1.0  0.85058  0.15780  0.73919  1.0000
  C   C1988     1.0  0.94680  0.30074  0.59757  1.0000
  H   H1584     1.0  0.93901  0.25258  0.72340  1.0000
  C   C1989     1.0  0.54015  0.02728  0.50303  1.0000
  C   C1990     1.0  0.93046  0.47801  0.64325  1.0000
  H   H1585     1.0  0.57351  0.18779  0.73567  1.0000
  C   C1991     1.0  0.85351  0.35653  0.73629  1.0000
  Fe  Fe132     1.0  0.50222  0.07562  0.56349  1.0000
  C   C1992     1.0  0.97956  0.33902  0.60269  1.0000
  H   H1586     1.0  0.91491  0.24068  0.70182  1.0000
  H   H1587     1.0  0.97991  0.46871  0.61557  1.0000
  H   H1588     1.0  0.96685  0.47954  0.56292  1.0000
  C   C1993     1.0  0.98196  0.39212  0.60671  1.0000
  C   C1994     1.0  0.58361  0.17243  0.73092  1.0000
  C   C1995     1.0  0.85995  0.39760  0.49597  1.0000
  H   H1589     1.0  0.97231  0.27662  0.60977  1.0000
  C   C1996     1.0  0.91900  0.25134  0.72463  1.0000
  H   H1590     1.0  0.63281  0.06207  0.59586  1.0000
  C   C1997     1.0  0.83677  0.05067  0.72049  1.0000
  C   C1998     1.0  0.65390  0.29189  0.73732  1.0000
  S   S263      1.0  0.50187  0.10000  0.58285  1.0000
  H   H1591     1.0  0.60862  0.01878  0.54441  1.0000
  H   H1592     1.0  0.57111  0.20457  0.53602  1.0000
  C   C1999     1.0  0.86417  0.44220  0.49507  1.0000
  H   H1593     1.0  0.96738  0.49147  0.64470  1.0000
  C   C2000     1.0  0.85327  0.05954  0.73060  1.0000
  H   H1594     1.0  0.68616  0.28891  0.72243  1.0000
  C   C2001     1.0  0.55471  0.20406  0.52937  1.0000
  C   C2002     1.0  0.54123  0.99897  0.54976  1.0000
  H   H1595     1.0  0.77870  0.30872  0.70858  1.0000
  H   H1596     1.0  0.96021  0.43775  0.58190  1.0000
  P   P68       1.0  0.83373  0.24760  0.72927  1.0000
  C   C2003     1.0  0.98492  0.31439  0.60776  1.0000
  H   H1597     1.0  0.51314  0.24269  0.51180  1.0000
  H   H1598     1.0  0.90896  0.49288  0.50295  1.0000
  C   C2004     1.0  0.66601  0.16663  0.73733  1.0000
  H   H1599     1.0  0.83483  0.03086  0.71967  1.0000
  H   H1600     1.0  0.69797  0.00160  0.60293  1.0000
  H   H1601     1.0  0.97786  0.34199  0.63548  1.0000
  H   H1602     1.0  0.99260  0.28205  0.71575  1.0000
  C   C2005     1.0  0.50570  0.15128  0.68259  1.0000
  C   C2006     1.0  0.98582  0.48466  0.56000  1.0000
  C   C2007     1.0  0.58508  0.02622  0.49952  1.0000
  C   C2008     1.0  0.83660  0.17236  0.73910  1.0000
  H   H1603     1.0  0.62508  0.12714  0.74117  1.0000
  C   C2009     1.0  0.80073  0.21015  0.73927  1.0000
  H   H1604     1.0  0.78674  0.22469  0.73956  1.0000
  C   C2010     1.0  0.88083  0.25648  0.73956  1.0000
  C   C2011     1.0  0.90673  0.25721  0.73819  1.0000
  C   C2012     1.0  0.82208  0.29356  0.74081  1.0000
  C   C2013     1.0  0.96127  0.46099  0.49398  1.0000
  Fe  Fe133     1.0  0.66302  0.16221  0.77938  1.0000
  S   S264      1.0  0.64852  0.20069  0.77422  1.0000
  S   S265      1.0  0.68131  0.13747  0.76221  1.0000
  Fe  Fe134     1.0  0.64307  0.16059  0.81259  1.0000
  S   S266      1.0  0.62731  0.19969  0.80945  1.0000
  S   S267      1.0  0.62971  0.13247  0.83184  1.0000
  Fe  Fe135     1.0  0.61335  0.18839  0.78718  1.0000
  S   S268      1.0  0.57613  0.18935  0.77522  1.0000
  Fe  Fe136     1.0  0.66406  0.20927  0.79671  1.0000
  S   S269      1.0  0.68384  0.24747  0.79653  1.0000
  S   S270      1.0  0.62750  0.14938  0.79090  1.0000
  S   S271      1.0  0.68040  0.17071  0.80125  1.0000
  S   S272      1.0  0.62671  0.02911  0.91900  1.0000
  Fe  Fe137     1.0  0.64921  0.02829  0.89702  1.0000
  S   S273      1.0  0.67093  0.06176  0.88653  1.0000
  Fe  Fe138     1.0  0.80724  0.34225  0.80006  1.0000
  S   S274      1.0  0.84463  0.33746  0.78803  1.0000
  S   S275      1.0  0.78622  0.30495  0.80540  1.0000
  Fe  Fe139     1.0  0.81615  0.39949  0.80078  1.0000
  S   S276      1.0  0.85329  0.39746  0.78855  1.0000
  S   S277      1.0  0.80115  0.43633  0.80945  1.0000
  Fe  Fe140     1.0  0.83476  0.37162  0.77361  1.0000
  C   C2014     1.0  0.75253  0.31766  0.74347  1.0000
  Fe  Fe141     1.0  0.86007  0.36356  0.80424  1.0000
  S   S278      1.0  0.89891  0.35600  0.81360  1.0000
  S   S279      1.0  0.79677  0.37565  0.78483  1.0000
  S   S280      1.0  0.82353  0.36642  0.81730  1.0000
  H   H1605     1.0  0.79810  0.31119  0.77459  1.0000
  H   H1606     1.0  0.57911  0.04521  0.86381  1.0000
  S   S281      1.0  0.94686  0.38468  0.87529  1.0000
  C   C2015     1.0  0.72759  0.18983  0.76537  1.0000
  C   C2016     1.0  0.66625  0.99562  0.84568  1.0000
  C   C2017     1.0  0.74778  0.23737  0.76187  1.0000
  C   C2018     1.0  0.80598  0.27340  0.76941  1.0000
  C   C2019     1.0  0.91887  0.46196  0.89836  1.0000
  H   H1607     1.0  0.87422  0.33912  0.75447  1.0000
  C   C2020     1.0  0.91198  0.36421  0.83079  1.0000
  C   C2021     1.0  0.93752  0.36018  0.83287  1.0000
  C   C2022     1.0  0.94859  0.36629  0.84635  1.0000
  C   C2023     1.0  0.93418  0.37643  0.85799  1.0000
  C   C2024     1.0  0.90867  0.38045  0.85589  1.0000
  C   C2025     1.0  0.89763  0.37442  0.84239  1.0000
  H   H1608     1.0  0.94883  0.35225  0.82399  1.0000
  H   H1609     1.0  0.96822  0.36311  0.84776  1.0000
  H   H1610     1.0  0.89734  0.38809  0.86486  1.0000
  H   H1611     1.0  0.87797  0.37732  0.84100  1.0000
  H   H1612     1.0  0.98953  0.46941  0.87029  1.0000
  S   S282      1.0  0.61980  0.01060  0.88432  1.0000
  C   C2026     1.0  0.80772  0.46752  0.80258  1.0000
  C   C2027     1.0  0.82468  0.47321  0.79046  1.0000
  H   H1613     1.0  0.79423  0.48560  0.85809  1.0000
  H   H1614     1.0  0.78233  0.48313  0.81895  1.0000
  H   H1615     1.0  0.83413  0.45836  0.78486  1.0000
  C   C2028     1.0  0.69784  0.03723  0.92424  1.0000
  C   C2029     1.0  0.50410  0.00812  0.99050  1.0000
  H   H1616     1.0  0.75080  0.49233  0.85099  1.0000
  C   C2030     1.0  0.64792  0.02042  0.98616  1.0000
  C   C2031     1.0  0.56029  0.01252  0.83481  1.0000
  C   C2032     1.0  0.71313  0.26258  0.79815  1.0000
  C   C2033     1.0  0.73394  0.25037  0.80421  1.0000
  C   C2034     1.0  0.75605  0.26355  0.80612  1.0000
  C   C2035     1.0  0.75803  0.28912  0.80185  1.0000
  C   C2036     1.0  0.73749  0.30117  0.79536  1.0000
  C   C2037     1.0  0.71525  0.28807  0.79366  1.0000
  H   H1617     1.0  0.73278  0.23088  0.80780  1.0000
  H   H1618     1.0  0.77164  0.25391  0.81122  1.0000
  H   H1619     1.0  0.73849  0.32074  0.79195  1.0000
  H   H1620     1.0  0.69942  0.29785  0.78894  1.0000
  C   C2038     1.0  0.64242  0.11269  0.84659  1.0000
  C   C2039     1.0  0.62735  0.09396  0.85374  1.0000
  C   C2040     1.0  0.63578  0.07854  0.86601  1.0000
  C   C2041     1.0  0.65955  0.08144  0.87129  1.0000
  C   C2042     1.0  0.67474  0.10016  0.86416  1.0000
  C   C2043     1.0  0.66631  0.11560  0.85180  1.0000
  H   H1621     1.0  0.60884  0.09154  0.84990  1.0000
  H   H1622     1.0  0.62376  0.06458  0.87154  1.0000
  H   H1623     1.0  0.69315  0.10266  0.86817  1.0000
  H   H1624     1.0  0.67810  0.13000  0.84650  1.0000
  C   C2044     1.0  0.53760  0.01316  0.90062  1.0000
  H   H1625     1.0  0.61965  0.03855  0.85090  1.0000
  C   C2045     1.0  0.53665  0.21146  0.79108  1.0000
  C   C2046     1.0  0.54425  0.19406  0.78075  1.0000
  C   C2047     1.0  0.52590  0.18133  0.77353  1.0000
  C   C2048     1.0  0.86599  0.47514  0.86284  1.0000
  C   C2049     1.0  0.67638  0.14403  0.74268  1.0000
  H   H1626     1.0  0.55044  0.22174  0.79653  1.0000
  H   H1627     1.0  0.53148  0.16802  0.76539  1.0000
  H   H1628     1.0  0.96693  0.30419  0.85158  1.0000
  H   H1629     1.0  0.81300  0.32895  0.74960  1.0000
  H   H1630     1.0  0.52318  0.14815  0.87337  1.0000
  C   C2050     1.0  0.69496  0.02051  0.85837  1.0000
  C   C2051     1.0  0.72022  0.20639  0.75352  1.0000
  C   C2052     1.0  0.86304  0.43583  0.85144  1.0000
  H   H1631     1.0  0.75010  0.18436  0.78491  1.0000
  C   C2053     1.0  0.74498  0.19699  0.77547  1.0000
  C   C2054     1.0  0.71852  0.27778  0.83975  1.0000
  C   C2055     1.0  0.73136  0.25534  0.84213  1.0000
  C   C2056     1.0  0.75514  0.25511  0.84785  1.0000
  C   C2057     1.0  0.76622  0.27735  0.85104  1.0000
  C   C2058     1.0  0.75376  0.30008  0.84821  1.0000
  C   C2059     1.0  0.72946  0.30001  0.84306  1.0000
  P   P69       1.0  0.76729  0.32880  0.85308  1.0000
  C   C2060     1.0  0.75383  0.33466  0.87153  1.0000
  C   C2061     1.0  0.80077  0.32720  0.85349  1.0000
  C   C2062     1.0  0.81349  0.34075  0.86372  1.0000
  C   C2063     1.0  0.83947  0.34079  0.86332  1.0000
  C   C2064     1.0  0.85290  0.32764  0.85256  1.0000
  C   C2065     1.0  0.84039  0.31449  0.84219  1.0000
  C   C2066     1.0  0.81445  0.31431  0.84262  1.0000
  C   C2067     1.0  0.73340  0.35084  0.87294  1.0000
  C   C2068     1.0  0.72260  0.35471  0.88727  1.0000
  C   C2069     1.0  0.73191  0.34223  0.90024  1.0000
  C   C2070     1.0  0.75194  0.32575  0.89888  1.0000
  C   C2071     1.0  0.76278  0.32184  0.88457  1.0000
  C   C2072     1.0  0.76105  0.35439  0.83952  1.0000
  C   C2073     1.0  0.75291  0.35037  0.82500  1.0000
  C   C2074     1.0  0.74903  0.37036  0.81447  1.0000
  C   C2075     1.0  0.75359  0.39451  0.81827  1.0000
  C   C2076     1.0  0.76201  0.39868  0.83261  1.0000
  C   C2077     1.0  0.76586  0.37871  0.84319  1.0000
  H   H1632     1.0  0.70015  0.27790  0.83518  1.0000
  H   H1633     1.0  0.72290  0.23818  0.83941  1.0000
  H   H1634     1.0  0.76502  0.23767  0.84975  1.0000
  H   H1635     1.0  0.78447  0.27670  0.85569  1.0000
  H   H1636     1.0  0.71900  0.31715  0.84141  1.0000
  H   H1637     1.0  0.80344  0.35166  0.87183  1.0000
  H   H1638     1.0  0.84926  0.35135  0.87116  1.0000
  H   H1639     1.0  0.87302  0.32801  0.85205  1.0000
  H   H1640     1.0  0.85080  0.30495  0.83353  1.0000
  H   H1641     1.0  0.80511  0.30457  0.83425  1.0000
  H   H1642     1.0  0.72560  0.36026  0.86300  1.0000
  H   H1643     1.0  0.70685  0.36723  0.88830  1.0000
  H   H1644     1.0  0.72343  0.34515  0.91133  1.0000
  H   H1645     1.0  0.75895  0.31583  0.90892  1.0000
  H   H1646     1.0  0.77804  0.30871  0.88365  1.0000
  H   H1647     1.0  0.75002  0.33184  0.82160  1.0000
  H   H1648     1.0  0.74311  0.36705  0.80321  1.0000
  H   H1649     1.0  0.75131  0.40998  0.80995  1.0000
  H   H1650     1.0  0.76628  0.41739  0.83531  1.0000
  H   H1651     1.0  0.77298  0.38222  0.85411  1.0000
  H   H1652     1.0  0.50159  0.14018  0.82831  1.0000
  C   C2078     1.0  0.73012  0.23037  0.75174  1.0000
  P   P70       1.0  0.94953  0.48548  0.85002  1.0000
  H   H1653     1.0  0.58814  0.11965  0.81218  1.0000
  H   H1654     1.0  0.80724  0.14817  0.74784  1.0000
  C   C2079     1.0  0.91381  0.48577  0.89199  1.0000
  C   C2080     1.0  0.54716  0.10403  0.86598  1.0000
  H   H1655     1.0  0.70308  0.00447  0.98802  1.0000
  C   C2081     1.0  0.55462  0.13949  0.80635  1.0000
  C   C2082     1.0  0.98874  0.48715  0.90045  1.0000
  C   C2083     1.0  0.55934  0.11387  0.82961  1.0000
  H   H1656     1.0  0.60181  0.16226  0.75173  1.0000
  H   H1657     1.0  0.87167  0.26123  0.75013  1.0000
  C   C2084     1.0  0.58590  0.09919  0.88634  1.0000
  C   C2085     1.0  0.58516  0.11948  0.87572  1.0000
  C   C2086     1.0  0.56588  0.12196  0.86561  1.0000
  H   H1658     1.0  0.52262  0.07450  0.82716  1.0000
  H   H1659     1.0  0.99125  0.44336  0.94868  1.0000
  C   C2087     1.0  0.56727  0.08142  0.88690  1.0000
  C   C2088     1.0  0.65366  0.26567  0.76061  1.0000
  C   C2089     1.0  0.53026  0.14525  0.81099  1.0000
  H   H1660     1.0  0.98133  0.33934  0.97006  1.0000
  H   H1661     1.0  0.96904  0.48444  0.90254  1.0000
  H   H1662     1.0  0.57088  0.10162  0.83659  1.0000
  H   H1663     1.0  0.64480  0.25948  0.77143  1.0000
  H   H1664     1.0  0.56231  0.14726  0.79557  1.0000
  C   C2090     1.0  0.82999  0.48639  0.74340  1.0000
  C   C2091     1.0  0.84765  0.48533  0.85342  1.0000
  H   H1665     1.0  0.60114  0.09700  0.89397  1.0000
  H   H1666     1.0  0.59996  0.13296  0.87502  1.0000
  C   C2092     1.0  0.98385  0.43762  0.95991  1.0000
  H   H1667     1.0  0.77519  0.18156  0.74752  1.0000
  H   H1668     1.0  0.49526  0.19791  0.82384  1.0000
  H   H1669     1.0  0.98387  0.35638  0.76495  1.0000
  C   C2093     1.0  0.97379  0.41397  0.96260  1.0000
  S   S283      1.0  0.56009  0.02138  0.91292  1.0000
  C   C2094     1.0  0.90964  0.48744  0.83064  1.0000
  C   C2095     1.0  0.50036  0.18587  0.77657  1.0000
  H   H1670     1.0  0.65325  0.99722  0.79358  1.0000
  C   C2096     1.0  0.55874  0.02585  0.84786  1.0000
  C   C2097     1.0  0.50443  0.14599  0.86981  1.0000
  H   H1671     1.0  0.51898  0.15735  0.80373  1.0000
  C   C2098     1.0  0.60504  0.01778  0.83324  1.0000
  C   C2099     1.0  0.49432  0.00598  0.89628  1.0000
  P   P71       1.0  0.63460  0.01457  0.82317  1.0000
  C   C2100     1.0  0.63853  0.03979  0.80873  1.0000
  C   C2101     1.0  0.68412  0.99766  0.85654  1.0000
  C   C2102     1.0  0.65892  0.01656  0.83658  1.0000
  H   H1672     1.0  0.53398  0.06953  0.87744  1.0000
  C   C2103     1.0  0.73814  0.03299  0.91160  1.0000
  C   C2104     1.0  0.97693  0.30161  0.82783  1.0000
  C   C2105     1.0  0.72308  0.00040  0.92988  1.0000
  C   C2106     1.0  0.66190  0.04389  0.80143  1.0000
  C   C2107     1.0  0.66561  0.06427  0.79099  1.0000
  C   C2108     1.0  0.64610  0.08081  0.78782  1.0000
  C   C2109     1.0  0.62283  0.07695  0.79505  1.0000
  C   C2110     1.0  0.61901  0.05656  0.80548  1.0000
  C   C2111     1.0  0.67676  0.25576  0.75633  1.0000
  H   H1673     1.0  0.56585  0.13773  0.85736  1.0000
  H   H1674     1.0  0.95917  0.29416  0.82520  1.0000
  H   H1675     1.0  0.56369  0.00253  0.88309  1.0000
  H   H1676     1.0  0.87443  0.48631  0.87086  1.0000
  C   C2112     1.0  0.68805  0.04134  0.84926  1.0000
  C   C2113     1.0  0.50790  0.07809  0.85015  1.0000
  H   H1677     1.0  0.54092  0.02903  0.85355  1.0000
  H   H1678     1.0  0.69621  0.05913  0.85086  1.0000
  C   C2114     1.0  0.51112  0.21671  0.79365  1.0000
  H   H1679     1.0  0.82461  0.47849  0.83462  1.0000
  H   H1680     1.0  0.66388  0.05634  0.83231  1.0000
  C   C2115     1.0  0.54796  0.08375  0.87678  1.0000
  C   C2116     1.0  0.89340  0.47727  0.82082  1.0000
  H   H1681     1.0  0.70824  0.02227  0.86711  1.0000
  C   C2117     1.0  0.56912  0.12378  0.81566  1.0000
  H   H1682     1.0  0.67740  0.03162  0.80407  1.0000
  H   H1683     1.0  0.68372  0.06760  0.78553  1.0000
  H   H1684     1.0  0.64916  0.09686  0.77992  1.0000
  H   H1685     1.0  0.60789  0.09011  0.79276  1.0000
  H   H1686     1.0  0.60098  0.05441  0.81119  1.0000
  C   C2118     1.0  0.71634  0.04666  0.91402  1.0000
  H   H1687     1.0  0.71503  0.00761  0.96083  1.0000
  H   H1688     1.0  0.58427  0.99876  0.81716  1.0000
  H   H1689     1.0  0.50734  0.02295  0.91579  1.0000
  H   H1690     1.0  0.68066  0.04757  0.92576  1.0000
  C   C2119     1.0  0.96483  0.42238  0.98887  1.0000
  C   C2120     1.0  0.87360  0.45042  0.86190  1.0000
  Fe  Fe142     1.0  0.98567  0.37964  0.88497  1.0000
  C   C2121     1.0  0.98920  0.47001  0.83170  1.0000
  H   H1691     1.0  0.88782  0.44257  0.86917  1.0000
  H   H1692     1.0  0.86892  0.41677  0.85065  1.0000
  C   C2122     1.0  0.87122  0.34004  0.74241  1.0000
  C   C2123     1.0  0.66981  0.03955  0.83861  1.0000
  H   H1693     1.0  0.65023  0.03992  0.98773  1.0000
  C   C2124     1.0  0.93774  0.47660  0.86905  1.0000
  C   C2125     1.0  0.85225  0.47505  0.74771  1.0000
  H   H1694     1.0  0.91202  0.45640  0.90977  1.0000
  C   C2126     1.0  0.93272  0.44523  0.88998  1.0000
  C   C2127     1.0  0.94189  0.45241  0.87534  1.0000
  H   H1695     1.0  0.95724  0.38773  0.97928  1.0000
  H   H1696     1.0  0.91726  0.26282  0.74754  1.0000
  H   H1697     1.0  0.62419  0.29113  0.75446  1.0000
  C   C2128     1.0  0.98016  0.47268  0.84664  1.0000
  C   C2129     1.0  0.98499  0.45345  0.97178  1.0000
  C   C2130     1.0  0.52050  0.13558  0.82502  1.0000
  H   H1698     1.0  0.87884  0.48864  0.81572  1.0000
  C   C2131     1.0  0.56295  0.00215  0.98343  1.0000
  H   H1699     1.0  0.97377  0.40131  0.95355  1.0000
  C   C2132     1.0  0.92843  0.47271  0.83729  1.0000
  H   H1700     1.0  0.99323  0.32199  0.74832  1.0000
  C   C2133     1.0  0.97486  0.44626  0.98625  1.0000
  C   C2134     1.0  0.89553  0.45225  0.81779  1.0000
  C   C2135     1.0  0.91380  0.43733  0.82467  1.0000
  C   C2136     1.0  0.93010  0.44744  0.83446  1.0000
  C   C2137     1.0  0.70107  0.01410  0.93203  1.0000
  S   S284      1.0  0.83596  0.37647  0.74779  1.0000
  H   H1701     1.0  0.93642  0.42661  0.89480  1.0000
  H   H1702     1.0  0.95235  0.43901  0.86899  1.0000
  C   C2138     1.0  0.58022  0.03507  0.85362  1.0000
  C   C2139     1.0  0.51072  0.06664  0.83635  1.0000
  H   H1703     1.0  0.97771  0.47510  0.82219  1.0000
  H   H1704     1.0  0.80010  0.26585  0.78065  1.0000
  H   H1705     1.0  0.57163  0.05298  0.95877  1.0000
  H   H1706     1.0  0.81616  0.23811  0.76137  1.0000
  H   H1707     1.0  0.75220  0.04014  0.90342  1.0000
  H   H1708     1.0  0.64858  0.02570  0.96157  1.0000
  H   H1709     1.0  0.88268  0.44429  0.81037  1.0000
  H   H1710     1.0  0.91512  0.41780  0.82253  1.0000
  H   H1711     1.0  0.94384  0.43543  0.83990  1.0000
  H   H1712     1.0  0.58785  0.02061  0.94237  1.0000
  C   C2140     1.0  0.64215  0.28360  0.75109  1.0000
  H   H1713     1.0  0.75250  0.33071  0.75229  1.0000
  C   C2141     1.0  0.84526  0.44601  0.84173  1.0000
  C   C2142     1.0  0.96438  0.40634  0.97709  1.0000
  H   H1714     1.0  0.83750  0.43483  0.83337  1.0000
  C   C2143     1.0  0.75523  0.22066  0.77363  1.0000
  H   H1715     1.0  0.68615  0.00670  0.93949  1.0000
  C   C2144     1.0  0.49767  0.04503  0.83418  1.0000
  C   C2145     1.0  0.83786  0.47077  0.84255  1.0000
  C   C2146     1.0  0.64698  0.01240  0.97125  1.0000
  H   H1716     1.0  0.83344  0.49296  0.88513  1.0000
  C   C2147     1.0  0.56290  0.02713  0.97787  1.0000
  Fe  Fe143     1.0  0.59866  0.00872  0.90681  1.0000
  H   H1717     1.0  0.71342  0.06428  0.90769  1.0000
  H   H1718     1.0  0.71931  0.17163  0.76697  1.0000
  H   H1719     1.0  0.85237  0.45582  0.75216  1.0000
  H   H1720     1.0  0.54355  0.00539  0.83041  1.0000
  C   C2148     1.0  0.80496  0.29898  0.76611  1.0000
  H   H1721     1.0  0.75553  0.25576  0.76101  1.0000
  H   H1722     1.0  0.76833  0.22639  0.78166  1.0000
  H   H1723     1.0  0.99130  0.30183  0.80486  1.0000
  H   H1724     1.0  0.55567  0.04146  0.98490  1.0000
  C   C2149     1.0  0.60325  0.03114  0.84632  1.0000
  P   P72       1.0  0.52256  0.10733  0.85262  1.0000
  C   C2150     1.0  0.79559  0.48722  0.80964  1.0000
  H   H1725     1.0  0.70619  0.20070  0.74605  1.0000
  C   C2151     1.0  0.53515  0.12021  0.83458  1.0000
  C   C2152     1.0  0.73816  0.29627  0.74550  1.0000
  C   C2153     1.0  0.50110  0.99566  0.88263  1.0000
  C   C2154     1.0  0.82241  0.26769  0.74375  1.0000
  C   C2155     1.0  0.81489  0.25778  0.75835  1.0000
  H   H1726     1.0  0.68536  0.24213  0.76402  1.0000
  H   H1727     1.0  0.56795  0.06568  0.89513  1.0000
  C   C2156     1.0  0.54436  0.00360  0.88673  1.0000
  H   H1728     1.0  0.72687  0.29314  0.75589  1.0000
  C   C2157     1.0  0.58111  0.01552  0.95384  1.0000
  C   C2158     1.0  0.57187  0.03375  0.96311  1.0000
  H   H1729     1.0  0.50557  0.23107  0.80109  1.0000
  H   H1730     1.0  0.49957  0.03646  0.82346  1.0000
  C   C2159     1.0  0.51257  0.01518  0.90514  1.0000
  C   C2160     1.0  0.74146  0.00986  0.91941  1.0000
  C   C2161     1.0  0.58335  0.00864  0.82744  1.0000
  C   C2162     1.0  0.81333  0.30903  0.75194  1.0000
  C   C2163     1.0  0.98127  0.30726  0.84271  1.0000
  S   S285      1.0  0.99305  0.39841  0.90646  1.0000
  H   H1731     1.0  0.75812  0.99925  0.91699  1.0000
  C   C2164     1.0  0.49884  0.12804  0.85972  1.0000
  C   C2165     1.0  0.52601  0.99505  0.87765  1.0000
  H   H1732     1.0  0.51421  0.01857  0.98147  1.0000
  H   H1733     1.0  0.65997  0.18010  0.74522  1.0000
  H   H1734     1.0  0.75747  0.12722  0.74854  1.0000
  C   C2166     1.0  0.81217  0.16693  0.74392  1.0000
  C   C2167     1.0  0.79418  0.18577  0.74385  1.0000
  H   H1735     1.0  0.81291  0.47596  0.74457  1.0000
  C   C2168     1.0  0.68856  0.26377  0.74245  1.0000
  H   H1736     1.0  0.89139  0.47980  0.75003  1.0000
  C   C2169     1.0  0.87422  0.48859  0.74651  1.0000
  C   C2170     1.0  0.92281  0.49292  0.87729  1.0000
  Fe  Fe144     1.0  0.64332  0.95875  0.06838  1.0000
  S   S286      1.0  0.65297  0.91782  0.07386  1.0000
  S   S287      1.0  0.61631  0.97017  0.05023  1.0000
  Fe  Fe145     1.0  0.64390  0.82040  0.14994  1.0000
  S   S288      1.0  0.64148  0.78439  0.13877  1.0000
  S   S289      1.0  0.64176  0.86035  0.13932  1.0000
  Fe  Fe146     1.0  0.64110  0.79367  0.18198  1.0000
  S   S290      1.0  0.63658  0.75612  0.17275  1.0000
  S   S291      1.0  0.64248  0.79418  0.20773  1.0000
  Fe  Fe147     1.0  0.66794  0.76772  0.15628  1.0000
  S   S292      1.0  0.70599  0.74721  0.15415  1.0000
  Fe  Fe148     1.0  0.61031  0.77570  0.15633  1.0000
  S   S293      1.0  0.57327  0.76332  0.14725  1.0000
  S   S294      1.0  0.67276  0.80504  0.16600  1.0000
  S   S295      1.0  0.61242  0.81202  0.16701  1.0000
  C   C2171     1.0  0.49729  0.76853  0.14923  1.0000
  C   C2172     1.0  0.72870  0.61988  0.18688  1.0000
  S   S296      1.0  0.96396  0.57420  0.08128  1.0000
  Fe  Fe149     1.0  0.83012  0.57468  0.15803  1.0000
  S   S297      1.0  0.86574  0.59627  0.15497  1.0000
  S   S298      1.0  0.84045  0.53328  0.16289  1.0000
  Fe  Fe150     1.0  0.79839  0.62340  0.15346  1.0000
  S   S299      1.0  0.83231  0.64696  0.14944  1.0000
  S   S300      1.0  0.75809  0.63896  0.15324  1.0000
  Fe  Fe151     1.0  0.84831  0.61676  0.13526  1.0000
  S   S301      1.0  0.86915  0.62632  0.11249  1.0000
  Fe  Fe152     1.0  0.84711  0.62428  0.16944  1.0000
  S   S302      1.0  0.86950  0.64386  0.18621  1.0000
  S   S303      1.0  0.81304  0.59457  0.13759  1.0000
  S   S304      1.0  0.81281  0.60155  0.17424  1.0000
  H   H1737     1.0  0.85104  0.51300  0.12808  1.0000
  H   H1738     1.0  0.51056  0.93508  0.08441  1.0000
  H   H1739     1.0  0.97242  0.63948  0.08711  1.0000
  C   C2173     1.0  0.93148  0.51240  0.08765  1.0000
  H   H1740     1.0  0.83721  0.72509  0.21293  1.0000
  H   H1741     1.0  0.50169  0.99006  0.11800  1.0000
  C   C2174     1.0  0.66474  0.95319  0.13110  1.0000
  C   C2175     1.0  0.84080  0.63256  0.21251  1.0000
  C   C2176     1.0  0.86207  0.64403  0.20589  1.0000
  C   C2177     1.0  0.87839  0.65553  0.21516  1.0000
  H   H1742     1.0  0.64122  0.87690  0.17523  1.0000
  H   H1743     1.0  0.82819  0.62354  0.20549  1.0000
  H   H1744     1.0  0.89487  0.66443  0.21012  1.0000
  H   H1745     1.0  0.82626  0.72674  0.17123  1.0000
  C   C2178     1.0  0.93852  0.58986  0.09022  1.0000
  C   C2179     1.0  0.92768  0.61132  0.08353  1.0000
  C   C2180     1.0  0.90674  0.62233  0.09062  1.0000
  C   C2181     1.0  0.89640  0.61222  0.10454  1.0000
  C   C2182     1.0  0.90753  0.59099  0.11139  1.0000
  C   C2183     1.0  0.92839  0.57987  0.10425  1.0000
  H   H1746     1.0  0.93508  0.61917  0.07272  1.0000
  H   H1747     1.0  0.89830  0.63870  0.08518  1.0000
  H   H1748     1.0  0.89969  0.58283  0.12200  1.0000
  H   H1749     1.0  0.93659  0.56334  0.10961  1.0000
  H   H1750     1.0  0.95874  0.63877  0.16058  1.0000
  C   C2184     1.0  0.71975  0.71666  0.15486  1.0000
  C   C2185     1.0  0.70585  0.69497  0.15476  1.0000
  C   C2186     1.0  0.71788  0.67151  0.15436  1.0000
  C   C2187     1.0  0.74398  0.66917  0.15435  1.0000
  C   C2188     1.0  0.75779  0.69077  0.15516  1.0000
  C   C2189     1.0  0.74575  0.71421  0.15542  1.0000
  H   H1751     1.0  0.68584  0.69629  0.15464  1.0000
  H   H1752     1.0  0.70686  0.65502  0.15391  1.0000
  H   H1753     1.0  0.77779  0.68946  0.15544  1.0000
  H   H1754     1.0  0.75668  0.73062  0.15615  1.0000
  C   C2190     1.0  0.91556  0.49436  0.09471  1.0000
  C   C2191     1.0  0.65900  0.90431  0.18763  1.0000
  C   C2192     1.0  0.52234  0.76542  0.14423  1.0000
  C   C2193     1.0  0.54200  0.76873  0.15394  1.0000
  C   C2194     1.0  0.53616  0.77537  0.16872  1.0000
  C   C2195     1.0  0.51111  0.77779  0.17384  1.0000
  C   C2196     1.0  0.68779  0.85042  0.21759  1.0000
  H   H1755     1.0  0.52656  0.76034  0.13276  1.0000
  H   H1756     1.0  0.55094  0.77790  0.17638  1.0000
  C   C2197     1.0  0.57978  0.91588  0.01774  1.0000
  H   H1757     1.0  0.95785  0.52156  0.06924  1.0000
  C   C2198     1.0  0.67446  0.83372  0.20949  1.0000
  C   C2199     1.0  0.66000  0.81535  0.21733  1.0000
  H   H1758     1.0  0.60464  0.91702  0.05944  1.0000
  H   H1759     1.0  0.78611  0.79321  0.20862  1.0000
  H   H1760     1.0  0.67527  0.83513  0.19721  1.0000
  H   H1761     1.0  0.79180  0.51505  0.15448  1.0000
  C   C2200     1.0  0.64708  0.90105  0.09168  1.0000
  C   C2201     1.0  0.65460  0.87601  0.09364  1.0000
  C   C2202     1.0  0.65168  0.86264  0.10790  1.0000
  C   C2203     1.0  0.64158  0.87432  0.12044  1.0000
  C   C2204     1.0  0.63279  0.89888  0.11823  1.0000
  C   C2205     1.0  0.63559  0.91220  0.10399  1.0000
  H   H1762     1.0  0.66316  0.86703  0.08414  1.0000
  H   H1763     1.0  0.65793  0.84356  0.10928  1.0000
  H   H1764     1.0  0.62441  0.90799  0.12768  1.0000
  H   H1765     1.0  0.62957  0.93133  0.10268  1.0000
  C   C2206     1.0  0.75540  0.77749  0.22243  1.0000
  H   H1766     1.0  0.71791  0.78771  0.18570  1.0000
  H   H1767     1.0  0.54236  0.86897  0.06753  1.0000
  C   C2207     1.0  0.50150  0.84191  0.08553  1.0000
  C   C2208     1.0  0.71653  0.77610  0.20949  1.0000
  C   C2209     1.0  0.77391  0.71931  0.19390  1.0000
  C   C2210     1.0  0.80890  0.74648  0.22434  1.0000
  C   C2211     1.0  0.94582  0.50734  0.07466  1.0000
  C   C2212     1.0  0.68453  0.96669  0.10674  1.0000
  C   C2213     1.0  0.72840  0.78494  0.19591  1.0000
  C   C2214     1.0  0.79198  0.73115  0.18428  1.0000
  H   H1768     1.0  0.55654  0.92487  0.09871  1.0000
  H   H1769     1.0  0.83014  0.68175  0.17836  1.0000
  C   C2215     1.0  0.81439  0.69228  0.18265  1.0000
  C   C2216     1.0  0.70318  0.82356  0.12385  1.0000
  C   C2217     1.0  0.71066  0.84168  0.11264  1.0000
  C   C2218     1.0  0.72379  0.83485  0.09958  1.0000
  C   C2219     1.0  0.72951  0.80986  0.09772  1.0000
  C   C2220     1.0  0.72185  0.79148  0.10888  1.0000
  C   C2221     1.0  0.70885  0.79859  0.12202  1.0000
  P   P73       1.0  0.72911  0.75907  0.10671  1.0000
  C   C2222     1.0  0.73691  0.75463  0.08697  1.0000
  C   C2223     1.0  0.75574  0.74948  0.11758  1.0000
  C   C2224     1.0  0.76832  0.72721  0.11472  1.0000
  C   C2225     1.0  0.78959  0.72018  0.12254  1.0000
  C   C2226     1.0  0.79877  0.73553  0.13307  1.0000
  C   C2227     1.0  0.78659  0.75786  0.13586  1.0000
  C   C2228     1.0  0.76502  0.76472  0.12827  1.0000
  C   C2229     1.0  0.76136  0.75831  0.08122  1.0000
  C   C2230     1.0  0.76756  0.75476  0.06599  1.0000
  C   C2231     1.0  0.74941  0.74767  0.05635  1.0000
  C   C2232     1.0  0.72499  0.74422  0.06193  1.0000
  C   C2233     1.0  0.71872  0.74774  0.07717  1.0000
  C   C2234     1.0  0.70208  0.74057  0.11222  1.0000
  C   C2235     1.0  0.70456  0.71557  0.11745  1.0000
  C   C2236     1.0  0.68352  0.70114  0.12099  1.0000
  C   C2237     1.0  0.65985  0.71158  0.11958  1.0000
  C   C2238     1.0  0.65716  0.73638  0.11432  1.0000
  C   C2239     1.0  0.67815  0.75078  0.11054  1.0000
  H   H1770     1.0  0.69265  0.82889  0.13387  1.0000
  H   H1771     1.0  0.70586  0.86096  0.11399  1.0000
  H   H1772     1.0  0.72933  0.84894  0.09085  1.0000
  H   H1773     1.0  0.73967  0.80504  0.08751  1.0000
  H   H1774     1.0  0.70286  0.78480  0.13080  1.0000
  H   H1775     1.0  0.76174  0.71523  0.10642  1.0000
  H   H1776     1.0  0.79886  0.70270  0.12051  1.0000
  H   H1777     1.0  0.81515  0.72991  0.13918  1.0000
  H   H1778     1.0  0.79353  0.76962  0.14416  1.0000
  H   H1779     1.0  0.75564  0.78183  0.13086  1.0000
  H   H1780     1.0  0.77565  0.76393  0.08851  1.0000
  H   H1781     1.0  0.78650  0.75743  0.06167  1.0000
  H   H1782     1.0  0.75426  0.74483  0.04456  1.0000
  H   H1783     1.0  0.71090  0.73876  0.05445  1.0000
  H   H1784     1.0  0.69970  0.74499  0.08122  1.0000
  H   H1785     1.0  0.72258  0.70714  0.11909  1.0000
  H   H1786     1.0  0.68566  0.68196  0.12521  1.0000
  H   H1787     1.0  0.64358  0.70055  0.12271  1.0000
  H   H1788     1.0  0.63878  0.74453  0.11335  1.0000
  H   H1789     1.0  0.67559  0.76989  0.10636  1.0000
  C   C2240     1.0  0.50346  0.90979  0.10416  1.0000
  C   C2241     1.0  0.66908  0.97159  0.11930  1.0000
  C   C2242     1.0  0.87416  0.58059  0.20802  1.0000
  H   H1790     1.0  0.67921  0.72165  0.23267  1.0000
  C   C2243     1.0  0.95829  0.51208  0.13677  1.0000
  H   H1791     1.0  0.97222  0.56500  0.13061  1.0000
  C   C2244     1.0  0.72993  0.77217  0.22268  1.0000
  H   H1792     1.0  0.69885  0.86463  0.21146  1.0000
  H   H1793     1.0  0.74408  0.58297  0.18656  1.0000
  H   H1794     1.0  0.93139  0.57276  0.14301  1.0000
  C   C2245     1.0  0.80448  0.49943  0.15567  1.0000
  H   H1795     1.0  0.56043  0.82018  0.14416  1.0000
  C   C2246     1.0  0.74481  0.60070  0.19157  1.0000
  H   H1796     1.0  0.53284  0.93645  0.04696  1.0000
  H   H1797     1.0  0.69672  0.77283  0.20983  1.0000
  C   C2247     1.0  0.51821  0.84770  0.12060  1.0000
  C   C2248     1.0  0.64129  0.91280  0.16306  1.0000
  H   H1798     1.0  0.96257  0.55187  0.01626  1.0000
  H   H1799     1.0  0.85057  0.56180  0.19347  1.0000
  H   H1800     1.0  0.88046  0.59402  0.19906  1.0000
  H   H1801     1.0  0.56549  0.96194  0.05697  1.0000
  H   H1802     1.0  0.81989  0.62317  0.23344  1.0000
  C   C2249     1.0  0.81222  0.71764  0.17867  1.0000
  C   C2250     1.0  0.66123  0.94568  0.17519  1.0000
  H   H1803     1.0  0.59332  0.93812  0.08278  1.0000
  H   H1804     1.0  0.79019  0.75077  0.18112  1.0000
  H   H1805     1.0  0.92459  0.60928  0.15820  1.0000
  C   C2251     1.0  0.75356  0.79082  0.19561  1.0000
  C   C2252     1.0  0.85273  0.64355  0.23761  1.0000
  H   H1806     1.0  0.76252  0.79839  0.18516  1.0000
  C   C2253     1.0  0.76242  0.60472  0.20227  1.0000
  H   H1807     1.0  0.79729  0.69314  0.22470  1.0000
  C   C2254     1.0  0.55905  0.86518  0.11528  1.0000
  H   H1808     1.0  0.91336  0.52838  0.16255  1.0000
  H   H1809     1.0  0.72431  0.70089  0.18510  1.0000
  H   H1810     1.0  0.97826  0.51037  0.13536  1.0000
  C   C2255     1.0  0.56910  0.94061  0.14428  1.0000
  C   C2256     1.0  0.59351  0.93696  0.02000  1.0000
  C   C2257     1.0  0.87475  0.52536  0.10864  1.0000
  C   C2258     1.0  0.87768  0.54361  0.09662  1.0000
  C   C2259     1.0  0.86047  0.56309  0.09495  1.0000
  C   C2260     1.0  0.84001  0.56433  0.10507  1.0000
  C   C2261     1.0  0.83659  0.54593  0.11681  1.0000
  C   C2262     1.0  0.94281  0.60566  0.15308  1.0000
  H   H1811     1.0  0.77851  0.63092  0.21602  1.0000
  C   C2263     1.0  0.53975  0.98780  0.06668  1.0000
  H   H1812     1.0  0.63185  0.90603  0.15362  1.0000
  P   P74       1.0  0.52137  0.88446  0.09672  1.0000
  C   C2264     1.0  0.64335  0.97832  0.99670  1.0000
  C   C2265     1.0  0.85722  0.56249  0.20487  1.0000
  H   H1813     1.0  0.61129  0.93508  0.02527  1.0000
  C   C2266     1.0  0.49631  0.98044  0.06276  1.0000
  P   P75       1.0  0.89738  0.50066  0.11177  1.0000
  C   C2267     1.0  0.66633  0.92904  0.18755  1.0000
  C   C2268     1.0  0.83619  0.63231  0.22833  1.0000
  H   H1814     1.0  0.55499  0.93145  0.15164  1.0000
  C   C2269     1.0  0.85394  0.52672  0.11868  1.0000
  H   H1815     1.0  0.86340  0.57770  0.08605  1.0000
  H   H1816     1.0  0.82707  0.57981  0.10395  1.0000
  H   H1817     1.0  0.72008  0.76573  0.23308  1.0000
  C   C2270     1.0  0.68678  0.84893  0.23356  1.0000
  H   H1818     1.0  0.93311  0.53035  0.09224  1.0000
  H   H1819     1.0  0.59655  0.93761  0.16120  1.0000
  C   C2271     1.0  0.55294  0.83271  0.13532  1.0000
  H   H1820     1.0  0.73158  0.65071  0.23709  1.0000
  C   C2272     1.0  0.92182  0.52226  0.15207  1.0000
  H   H1821     1.0  0.58684  0.89768  0.02136  1.0000
  C   C2273     1.0  0.50244  0.98064  0.01332  1.0000
  H   H1822     1.0  0.79964  0.75126  0.21397  1.0000
  H   H1823     1.0  0.57883  0.88287  0.05173  1.0000
  C   C2274     1.0  0.82911  0.50338  0.15920  1.0000
  C   C2275     1.0  0.76411  0.62800  0.20815  1.0000
  H   H1824     1.0  0.82073  0.54671  0.12470  1.0000
  C   C2276     1.0  0.87376  0.65532  0.23095  1.0000
  H   H1825     1.0  0.71818  0.65780  0.18843  1.0000
  C   C2277     1.0  0.57372  0.89212  0.06191  1.0000
  C   C2278     1.0  0.58823  0.91145  0.06623  1.0000
  C   C2279     1.0  0.58185  0.92331  0.07943  1.0000
  C   C2280     1.0  0.56098  0.91580  0.08838  1.0000
  C   C2281     1.0  0.54644  0.89619  0.08421  1.0000
  C   C2282     1.0  0.55299  0.88437  0.07091  1.0000
  C   C2283     1.0  0.79620  0.68031  0.19207  1.0000
  C   C2284     1.0  0.76689  0.78758  0.20888  1.0000
  C   C2285     1.0  0.74805  0.64750  0.20344  1.0000
  C   C2286     1.0  0.85763  0.54614  0.23109  1.0000
  H   H1826     1.0  0.64231  0.96496  0.00636  1.0000
  C   C2287     1.0  0.97001  0.58053  0.13769  1.0000
  H   H1827     1.0  0.95923  0.52435  0.15947  1.0000
  C   C2288     1.0  0.84252  0.72444  0.23696  1.0000
  C   C2289     1.0  0.69226  0.92527  0.11769  1.0000
  H   H1828     1.0  0.51581  0.81889  0.13875  1.0000
  C   C2290     1.0  0.77570  0.69368  0.19771  1.0000
  H   H1829     1.0  0.71570  0.61705  0.17814  1.0000
  P   P76       1.0  0.77258  0.77464  0.23966  1.0000
  C   C2291     1.0  0.96208  0.62228  0.15441  1.0000
  H   H1830     1.0  0.75856  0.73022  0.19824  1.0000
  H   H1831     1.0  0.70717  0.93944  0.09585  1.0000
  H   H1832     1.0  0.88685  0.51875  0.14193  1.0000
  C   C2292     1.0  0.91732  0.50919  0.12651  1.0000
  H   H1833     1.0  0.66309  0.89136  0.19715  1.0000
  C   C2293     1.0  0.90676  0.51694  0.14023  1.0000
  C   C2294     1.0  0.65928  0.81365  0.23330  1.0000
  H   H1834     1.0  0.66282  0.73592  0.20771  1.0000
  H   H1835     1.0  0.71779  0.69695  0.23403  1.0000
  C   C2295     1.0  0.64656  0.89619  0.17535  1.0000
  C   C2296     1.0  0.71089  0.70253  0.22301  1.0000
  P   P77       1.0  0.75227  0.67815  0.21001  1.0000
  H   H1836     1.0  0.68563  0.72562  0.18399  1.0000
  C   C2297     1.0  0.68896  0.71667  0.22232  1.0000
  C   C2298     1.0  0.72363  0.69614  0.20959  1.0000
  C   C2299     1.0  0.67686  0.93010  0.13030  1.0000
  C   C2300     1.0  0.67967  0.72471  0.20827  1.0000
  C   C2301     1.0  0.71440  0.70486  0.19556  1.0000
  H   H1837     1.0  0.57172  0.87762  0.10888  1.0000
  C   C2302     1.0  0.64844  0.93773  0.16287  1.0000
  H   H1838     1.0  0.79832  0.66063  0.19487  1.0000
  C   C2303     1.0  0.69251  0.71895  0.19490  1.0000
  C   C2304     1.0  0.56853  0.84936  0.12690  1.0000
  H   H1839     1.0  0.54646  0.90198  0.00886  1.0000
  H   H1840     1.0  0.89330  0.54345  0.08864  1.0000
  C   C2305     1.0  0.56365  0.94879  0.12942  1.0000
  H   H1841     1.0  0.95202  0.50017  0.11467  1.0000
  H   H1842     1.0  0.66015  0.98965  0.11956  1.0000
  C   C2306     1.0  0.88277  0.58166  0.22269  1.0000
  C   C2307     1.0  0.61153  0.95499  0.13999  1.0000
  C   C2308     1.0  0.96863  0.51436  0.00981  1.0000
  H   H1843     1.0  0.61948  0.97261  0.11766  1.0000
  H   H1844     1.0  0.50694  0.78219  0.18545  1.0000
  H   H1845     1.0  0.54534  0.94600  0.12524  1.0000
  H   H1846     1.0  0.97818  0.60643  0.10716  1.0000
  H   H1847     1.0  0.69878  0.96347  0.00194  1.0000
  C   C2309     1.0  0.59284  0.94391  0.14962  1.0000
  H   H1848     1.0  0.70069  0.90710  0.11687  1.0000
  C   C2310     1.0  0.73034  0.64320  0.19272  1.0000
  H   H1849     1.0  0.89561  0.59614  0.22477  1.0000
  C   C2311     1.0  0.96164  0.53925  0.00724  1.0000
  C   C2312     1.0  0.87488  0.56416  0.23431  1.0000
  C   C2313     1.0  0.56149  0.96315  0.00848  1.0000
  C   C2314     1.0  0.52778  0.95273  0.05295  1.0000
  H   H1850     1.0  0.51142  0.96972  0.02230  1.0000
  C   C2315     1.0  0.50072  0.93217  0.09531  1.0000
  C   C2316     1.0  0.58442  0.96052  0.01541  1.0000
  C   C2317     1.0  0.50039  0.86791  0.08561  1.0000
  C   C2318     1.0  0.60568  0.96358  0.12520  1.0000
  C   C2319     1.0  0.54628  0.96711  0.05863  1.0000
  H   H1851     1.0  0.67615  0.93522  0.19705  1.0000
  C   C2320     1.0  0.83028  0.73153  0.22369  1.0000
  C   C2321     1.0  0.69589  0.94346  0.10584  1.0000
  H   H1852     1.0  0.51511  0.83127  0.09196  1.0000
  C   C2322     1.0  0.94759  0.51992  0.15033  1.0000
  H   H1853     1.0  0.74459  0.82135  0.23935  1.0000
  H   H1854     1.0  0.91262  0.52395  0.23741  1.0000
  C   C2323     1.0  0.84886  0.54534  0.21643  1.0000
  H   H1855     1.0  0.67379  0.91533  0.13902  1.0000
  C   C2324     1.0  0.78571  0.68270  0.23302  1.0000
  S   S305      1.0  0.99093  0.61538  0.00705  1.0000
  S   S306      1.0  0.62576  0.98284  0.08544  1.0000
  C   C2325     1.0  0.64527  0.99044  0.15166  1.0000
  S   S307      1.0  0.67147  0.98766  0.05996  1.0000
  H   H1856     1.0  0.85114  0.53255  0.23988  1.0000
  P   P78       1.0  0.64262  0.95878  0.14652  1.0000
  C   C2326     1.0  0.94674  0.58490  0.14464  1.0000
  C   C2327     1.0  0.58191  0.96046  0.11992  1.0000
  H   H1857     1.0  0.77533  0.59003  0.20562  1.0000
  H   H1858     1.0  0.58811  0.84981  0.12928  1.0000
  H   H1859     1.0  0.66739  0.96463  0.17531  1.0000
  C   C2328     1.0  0.98958  0.59705  0.13907  1.0000
  H   H1860     1.0  0.59546  0.97661  0.01719  1.0000
  C   C2329     1.0  0.94325  0.50654  0.12494  1.0000
  H   H1861     1.0  0.49875  0.84654  0.11821  1.0000
  C   C2330     1.0  0.52778  0.83196  0.13222  1.0000
  H   H1862     1.0  0.57778  0.96692  0.10837  1.0000
  C   C2331     1.0  0.53376  0.86444  0.11198  1.0000
  C   C2332     1.0  0.76282  0.67344  0.22915  1.0000
  H   H1863     1.0  0.83570  0.53134  0.21394  1.0000
  C   C2333     1.0  0.50278  0.95939  0.05507  1.0000
  H   H1864     1.0  0.68731  0.98083  0.09754  1.0000
  C   C2334     1.0  0.98526  0.61823  0.14724  1.0000
  C   C2335     1.0  0.96830  0.49810  0.99804  1.0000
  H   H1865     1.0  0.88661  0.66402  0.23798  1.0000
  H   H1866     1.0  0.97472  0.50788  0.02096  1.0000
  C   C2336     1.0  0.79970  0.75462  0.23830  1.0000
  H   H1867     1.0  0.64817  0.79948  0.23943  1.0000
  C   C2337     1.0  0.74894  0.65868  0.24003  1.0000
  C   C2338     1.0  0.54807  0.94182  0.00591  1.0000
  C   C2339     1.0  0.55708  0.91831  0.01068  1.0000
  C   C2340     1.0  0.95389  0.54807  0.99297  1.0000
  C   C2341     1.0  0.98916  0.63891  0.09351  1.0000
  C   C2342     1.0  0.99267  0.61998  0.10479  1.0000
  Fe  Fe153     1.0  0.99308  0.58767  0.06279  1.0000
  H   H1868     1.0  0.85894  0.71264  0.23651  1.0000
  C   C2343     1.0  0.67258  0.83036  0.24139  1.0000
  H   H1869     1.0  0.53068  0.94329  0.00021  1.0000
  H   H1870     1.0  0.68480  0.99267  0.14633  1.0000
  Fe  Fe154     1.0  0.51758  0.86523  0.41417  1.0000
  C   C2344     1.0  0.77041  0.98640  0.25848  1.0000
  S   S308      1.0  0.53866  0.89801  0.40357  1.0000
  C   C2345     1.0  0.75683  0.96895  0.25138  1.0000
  H   H1871     1.0  0.89433  0.90745  0.28853  1.0000
  C   C2346     1.0  0.60981  0.96832  0.32079  1.0000
  Fe  Fe155     1.0  0.54524  0.87694  0.38255  1.0000
  S   S309      1.0  0.58438  0.88200  0.37154  1.0000
  S   S310      1.0  0.52645  0.84291  0.39359  1.0000
  Fe  Fe156     1.0  0.67915  0.85943  0.30035  1.0000
  S   S311      1.0  0.71418  0.86604  0.31223  1.0000
  S   S312      1.0  0.64137  0.84837  0.31122  1.0000
  Fe  Fe157     1.0  0.70501  0.86862  0.26904  1.0000
  S   S313      1.0  0.74169  0.87705  0.27891  1.0000
  C   C2347     1.0  0.89380  0.53153  0.25875  1.0000
  Fe  Fe158     1.0  0.73433  0.84318  0.29475  1.0000
  S   S314      1.0  0.75940  0.80896  0.30095  1.0000
  Fe  Fe159     1.0  0.71860  0.89935  0.29533  1.0000
  S   S315      1.0  0.72647  0.93669  0.30532  1.0000
  S   S316      1.0  0.69851  0.83416  0.28412  1.0000
  S   S317      1.0  0.68267  0.89327  0.28420  1.0000
  Fe  Fe160     1.0  0.88041  0.52002  0.38958  1.0000
  S   S318      1.0  0.85541  0.54663  0.37583  1.0000
  C   C2348     1.0  0.49674  0.89629  0.28903  1.0000
  S   S319      1.0  0.90615  0.53331  0.40670  1.0000
  Fe  Fe161     1.0  0.87645  0.70586  0.29064  1.0000
  S   S320      1.0  0.85501  0.67042  0.29576  1.0000
  S   S321      1.0  0.85991  0.74586  0.28879  1.0000
  Fe  Fe162     1.0  0.92477  0.67679  0.28101  1.0000
  S   S322      1.0  0.90478  0.64052  0.28445  1.0000
  S   S323      1.0  0.96497  0.67287  0.27125  1.0000
  Fe  Fe163     1.0  0.87229  0.65942  0.27353  1.0000
  S   S324      1.0  0.84678  0.64204  0.25746  1.0000
  Fe  Fe164     1.0  0.88977  0.65434  0.30641  1.0000
  S   S325      1.0  0.90076  0.62624  0.32571  1.0000
  S   S326      1.0  0.89298  0.69467  0.26810  1.0000
  S   S327      1.0  0.91032  0.69080  0.30315  1.0000
  H   H1872     1.0  0.80208  0.85177  0.29563  1.0000
  C   C2349     1.0  0.73283  0.72459  0.26725  1.0000
  C   C2350     1.0  0.93429  0.62270  0.25192  1.0000
  H   H1873     1.0  0.81238  0.68420  0.25045  1.0000
  C   C2351     1.0  0.86796  0.56755  0.36114  1.0000
  C   C2352     1.0  0.89356  0.56933  0.35815  1.0000
  C   C2353     1.0  0.90307  0.58708  0.34707  1.0000
  C   C2354     1.0  0.88720  0.60316  0.33870  1.0000
  C   C2355     1.0  0.86154  0.60081  0.34128  1.0000
  C   C2356     1.0  0.85201  0.58316  0.35249  1.0000
  H   H1874     1.0  0.90608  0.55741  0.36464  1.0000
  H   H1875     1.0  0.92293  0.58863  0.34516  1.0000
  H   H1876     1.0  0.84908  0.61306  0.33497  1.0000
  H   H1877     1.0  0.83218  0.58192  0.35469  1.0000
  S   S328      1.0  0.90946  0.49863  0.37691  1.0000
  H   H1878     1.0  0.83337  0.57416  0.25326  1.0000
  C   C2357     1.0  0.93867  0.55924  0.29565  1.0000
  C   C2358     1.0  0.50670  0.97252  0.39554  1.0000
  C   C2359     1.0  0.86594  0.51140  0.46968  1.0000
  C   C2360     1.0  0.78659  0.79085  0.29630  1.0000
  C   C2361     1.0  0.80572  0.79995  0.28636  1.0000
  C   C2362     1.0  0.82772  0.78583  0.28410  1.0000
  C   C2363     1.0  0.83079  0.76196  0.29133  1.0000
  C   C2364     1.0  0.81115  0.75234  0.30071  1.0000
  C   C2365     1.0  0.78942  0.76678  0.30329  1.0000
  H   H1879     1.0  0.80384  0.81812  0.28067  1.0000
  H   H1880     1.0  0.84262  0.79353  0.27676  1.0000
  H   H1881     1.0  0.81306  0.73410  0.30640  1.0000
  H   H1882     1.0  0.77480  0.75926  0.31090  1.0000
  H   H1883     1.0  0.94125  0.55114  0.25275  1.0000
  C   C2366     1.0  0.94165  0.53579  0.28998  1.0000
  H   H1884     1.0  0.67162  0.82910  0.25365  1.0000
  H   H1885     1.0  0.60399  0.98047  0.35046  1.0000
  C   C2367     1.0  0.72077  0.96798  0.29839  1.0000
  C   C2368     1.0  0.71685  0.97440  0.28307  1.0000
  C   C2369     1.0  0.51984  0.83129  0.34834  1.0000
  H   H1886     1.0  0.71575  0.95995  0.27524  1.0000
  C   C2370     1.0  0.62576  0.85856  0.32783  1.0000
  C   C2371     1.0  0.60199  0.84933  0.33189  1.0000
  C   C2372     1.0  0.58911  0.85620  0.34520  1.0000
  C   C2373     1.0  0.59962  0.87283  0.35450  1.0000
  C   C2374     1.0  0.62330  0.88232  0.35033  1.0000
  C   C2375     1.0  0.63635  0.87520  0.33711  1.0000
  H   H1887     1.0  0.59365  0.83645  0.32485  1.0000
  H   H1888     1.0  0.57123  0.84829  0.34842  1.0000
  H   H1889     1.0  0.63170  0.89513  0.35746  1.0000
  H   H1890     1.0  0.65463  0.88247  0.33416  1.0000
  C   C2376     1.0  0.88826  0.49564  0.27663  1.0000
  C   C2377     1.0  0.53128  0.96738  0.39919  1.0000
  H   H1891     1.0  0.81908  0.51741  0.35429  1.0000
  H   H1892     1.0  0.53830  0.94865  0.39954  1.0000
  H   H1893     1.0  0.59234  0.97773  0.32297  1.0000
  C   C2378     1.0  0.94904  0.49716  0.34306  1.0000
  C   C2379     1.0  0.75922  0.94373  0.25577  1.0000
  H   H1894     1.0  0.97926  0.50241  0.35772  1.0000
  C   C2380     1.0  0.93506  0.62928  0.36788  1.0000
  C   C2381     1.0  0.93011  0.60816  0.37747  1.0000
  C   C2382     1.0  0.94705  0.58837  0.37799  1.0000
  C   C2383     1.0  0.96876  0.58950  0.36878  1.0000
  C   C2384     1.0  0.97369  0.61051  0.35888  1.0000
  C   C2385     1.0  0.95687  0.63060  0.35876  1.0000
  H   H1895     1.0  0.49790  0.91967  0.34066  1.0000
  C   C2386     1.0  0.74719  0.73576  0.25520  1.0000
  H   H1896     1.0  0.59239  0.93417  0.31597  1.0000
  H   H1897     1.0  0.90978  0.54279  0.32963  1.0000
  C   C2387     1.0  0.88095  0.91874  0.28225  1.0000
  H   H1898     1.0  0.98137  0.57380  0.36949  1.0000
  H   H1899     1.0  0.74703  0.64213  0.26295  1.0000
  H   H1900     1.0  0.78766  0.65886  0.26956  1.0000
  H   H1901     1.0  0.67191  0.93462  0.31126  1.0000
  C   C2388     1.0  0.81088  0.96724  0.30256  1.0000
  H   H1902     1.0  0.90520  0.92455  0.26238  1.0000
  C   C2389     1.0  0.88493  0.52098  0.27288  1.0000
  H   H1903     1.0  0.87504  0.53203  0.28097  1.0000
  H   H1904     1.0  0.94525  0.57565  0.28902  1.0000
  C   C2390     1.0  0.92710  0.56160  0.30992  1.0000
  C   C2391     1.0  0.51995  0.92979  0.46608  1.0000
  C   C2392     1.0  0.53017  0.80927  0.34345  1.0000
  S   S329      1.0  0.52894  0.85268  0.43859  1.0000
  C   C2393     1.0  0.60147  0.96553  0.43753  1.0000
  H   H1905     1.0  0.92165  0.64440  0.36722  1.0000
  H   H1906     1.0  0.91289  0.60686  0.38424  1.0000
  H   H1907     1.0  0.94308  0.57187  0.38532  1.0000
  Fe  Fe165     1.0  0.89542  0.49886  0.42134  1.0000
  C   C2394     1.0  0.65465  0.96847  0.31822  1.0000
  C   C2395     1.0  0.79722  0.86928  0.30028  1.0000
  C   C2396     1.0  0.96521  0.62027  0.30647  1.0000
  H   H1908     1.0  0.83309  0.95852  0.25941  1.0000
  C   C2397     1.0  0.91525  0.58208  0.25247  1.0000
  H   H1909     1.0  0.93529  0.49683  0.29381  1.0000
  C   C2398     1.0  0.77516  0.93593  0.26728  1.0000
  C   C2399     1.0  0.79893  0.91437  0.29894  1.0000
  C   C2400     1.0  0.63233  0.98054  0.32220  1.0000
  H   H1910     1.0  0.77576  0.85208  0.31909  1.0000
  C   C2401     1.0  0.53059  0.93133  0.31388  1.0000
  C   C2402     1.0  0.60975  0.94375  0.31666  1.0000
  H   H1911     1.0  0.64187  0.88047  0.45140  1.0000
  H   H1912     1.0  0.79655  0.99247  0.27545  1.0000
  H   H1913     1.0  0.84285  0.72674  0.26119  1.0000
  H   H1914     1.0  0.95478  0.62100  0.32994  1.0000
  C   C2403     1.0  0.71359  0.75148  0.33445  1.0000
  C   C2404     1.0  0.72552  0.77406  0.33099  1.0000
  C   C2405     1.0  0.71177  0.79503  0.32627  1.0000
  C   C2406     1.0  0.68622  0.79343  0.32473  1.0000
  C   C2407     1.0  0.67398  0.77091  0.32832  1.0000
  C   C2408     1.0  0.68788  0.74989  0.33323  1.0000
  P   P79       1.0  0.64074  0.76951  0.32672  1.0000
  C   C2409     1.0  0.62502  0.78487  0.34209  1.0000
  C   C2410     1.0  0.63276  0.78375  0.30843  1.0000
  C   C2411     1.0  0.60927  0.79461  0.30636  1.0000
  C   C2412     1.0  0.60318  0.80550  0.29215  1.0000
  C   C2413     1.0  0.62037  0.80530  0.27988  1.0000
  C   C2414     1.0  0.64361  0.79411  0.28178  1.0000
  C   C2415     1.0  0.64981  0.78334  0.29597  1.0000
  C   C2416     1.0  0.63708  0.80289  0.34979  1.0000
  C   C2417     1.0  0.62514  0.81377  0.36208  1.0000
  C   C2418     1.0  0.60104  0.80688  0.36677  1.0000
  C   C2419     1.0  0.58880  0.78914  0.35913  1.0000
  C   C2420     1.0  0.60063  0.77827  0.34679  1.0000
  C   C2421     1.0  0.63111  0.73751  0.32786  1.0000
  C   C2422     1.0  0.62865  0.72428  0.34207  1.0000
  C   C2423     1.0  0.62112  0.69954  0.34311  1.0000
  C   C2424     1.0  0.61606  0.68779  0.32997  1.0000
  C   C2425     1.0  0.61860  0.70077  0.31577  1.0000
  C   C2426     1.0  0.62615  0.72552  0.31469  1.0000
  H   H1915     1.0  0.72432  0.73524  0.33812  1.0000
  H   H1916     1.0  0.74545  0.77541  0.33186  1.0000
  H   H1917     1.0  0.72101  0.81255  0.32368  1.0000
  H   H1918     1.0  0.67597  0.80986  0.32083  1.0000
  H   H1919     1.0  0.67909  0.73224  0.33606  1.0000
  H   H1920     1.0  0.59587  0.79516  0.31576  1.0000
  H   H1921     1.0  0.58533  0.81452  0.29071  1.0000
  H   H1922     1.0  0.61580  0.81401  0.26892  1.0000
  H   H1923     1.0  0.65699  0.79410  0.27228  1.0000
  H   H1924     1.0  0.66799  0.77491  0.29720  1.0000
  H   H1925     1.0  0.65554  0.80898  0.34633  1.0000
  H   H1926     1.0  0.63430  0.82812  0.36772  1.0000
  H   H1927     1.0  0.59167  0.81582  0.37608  1.0000
  H   H1928     1.0  0.57010  0.78393  0.36280  1.0000
  H   H1929     1.0  0.59078  0.76464  0.34098  1.0000
  H   H1930     1.0  0.63262  0.73311  0.35236  1.0000
  H   H1931     1.0  0.61919  0.68947  0.35412  1.0000
  H   H1932     1.0  0.61017  0.66863  0.33079  1.0000
  H   H1933     1.0  0.61469  0.69165  0.30558  1.0000
  H   H1934     1.0  0.62803  0.73517  0.30358  1.0000
  H   H1935     1.0  0.55683  0.84804  0.46582  1.0000
  C   C2427     1.0  0.52070  0.85877  0.45796  1.0000
  C   C2428     1.0  0.74488  0.77481  0.26724  1.0000
  C   C2429     1.0  0.90613  0.51630  0.24851  1.0000
  C   C2430     1.0  0.54677  0.98655  0.40279  1.0000
  H   H1936     1.0  0.53076  0.85944  0.28095  1.0000
  H   H1937     1.0  0.74405  0.97500  0.24269  1.0000
  H   H1938     1.0  0.72851  0.70506  0.26737  1.0000
  H   H1939     1.0  0.93352  0.53808  0.48478  1.0000
  H   H1940     1.0  0.52190  0.93311  0.30305  1.0000
  C   C2431     1.0  0.78866  0.95332  0.27459  1.0000
  C   C2432     1.0  0.72448  0.73851  0.27928  1.0000
  H   H1941     1.0  0.54952  0.82927  0.30779  1.0000
  C   C2433     1.0  0.77578  0.89195  0.31961  1.0000
  C   C2434     1.0  0.54120  0.83021  0.31907  1.0000
  P   P80       1.0  0.88740  0.56369  0.25305  1.0000
  C   C2435     1.0  0.78040  0.66319  0.25841  1.0000
  C   C2436     1.0  0.73048  0.76359  0.27925  1.0000
  C   C2437     1.0  0.79436  0.67766  0.24761  1.0000
  S   S330      1.0  0.70310  0.87088  0.24329  1.0000
  C   C2438     1.0  0.54092  0.80872  0.32882  1.0000
  P   P81       1.0  0.53024  0.88004  0.31108  1.0000
  C   C2439     1.0  0.93897  0.57103  0.25259  1.0000
  H   H1942     1.0  0.52955  0.79263  0.35100  1.0000
  P   P82       1.0  0.80954  0.94320  0.28932  1.0000
  Fe  Fe166     1.0  0.93408  0.50937  0.39499  1.0000
  C   C2440     1.0  0.78631  0.97865  0.27003  1.0000
  H   H1943     1.0  0.94869  0.51648  0.33904  1.0000
  C   C2441     1.0  0.53232  0.85679  0.48479  1.0000
  H   H1944     1.0  0.97842  0.57726  0.25278  1.0000
  H   H1945     1.0  0.63220  0.91237  0.31038  1.0000
  H   H1946     1.0  0.96027  0.64706  0.35130  1.0000
  C   C2442     1.0  0.83581  0.51155  0.34825  1.0000
  C   C2443     1.0  0.83339  0.73228  0.25088  1.0000
  C   C2444     1.0  0.96997  0.61794  0.32193  1.0000
  H   H1947     1.0  0.89396  0.58185  0.28299  1.0000
  H   H1948     1.0  0.93247  0.64275  0.25174  1.0000
  H   H1949     1.0  0.77833  0.93138  0.31723  1.0000
  H   H1950     1.0  0.72446  0.77433  0.28871  1.0000
  H   H1951     1.0  0.74974  0.79411  0.26772  1.0000
  H   H1952     1.0  0.92470  0.57979  0.31434  1.0000
  H   H1953     1.0  0.54884  0.79160  0.32502  1.0000
  H   H1954     1.0  0.85398  0.51688  0.46050  1.0000
  C   C2445     1.0  0.75764  0.65373  0.25464  1.0000
  C   C2446     1.0  0.57515  0.93462  0.47811  1.0000
  C   C2447     1.0  0.86581  0.57638  0.26675  1.0000
  C   C2448     1.0  0.87445  0.58334  0.28064  1.0000
  C   C2449     1.0  0.85801  0.59263  0.29157  1.0000
  C   C2450     1.0  0.83279  0.59505  0.28871  1.0000
  C   C2451     1.0  0.82400  0.58803  0.27496  1.0000
  C   C2452     1.0  0.84044  0.57875  0.26399  1.0000
  C   C2453     1.0  0.91855  0.54054  0.31852  1.0000
  H   H1955     1.0  0.71367  0.72985  0.28874  1.0000
  C   C2454     1.0  0.61041  0.90498  0.45432  1.0000
  H   H1956     1.0  0.86493  0.59850  0.30213  1.0000
  H   H1957     1.0  0.82020  0.60291  0.29701  1.0000
  H   H1958     1.0  0.80459  0.59064  0.27257  1.0000
  H   H1959     1.0  0.51167  0.83167  0.35972  1.0000
  C   C2455     1.0  0.51970  0.85269  0.33856  1.0000
  C   C2456     1.0  0.54685  0.95109  0.33521  1.0000
  C   C2457     1.0  0.55346  0.92787  0.34179  1.0000
  C   C2458     1.0  0.54847  0.90640  0.33451  1.0000
  C   C2459     1.0  0.53653  0.90782  0.32064  1.0000
  C   C2460     1.0  0.84236  0.52260  0.33393  1.0000
  H   H1960     1.0  0.95070  0.53395  0.27895  1.0000
  H   H1961     1.0  0.77669  0.91637  0.27054  1.0000
  C   C2461     1.0  0.55431  0.87663  0.29649  1.0000
  C   C2462     1.0  0.54924  0.86575  0.28295  1.0000
  C   C2463     1.0  0.56823  0.86237  0.27198  1.0000
  C   C2464     1.0  0.59245  0.86945  0.27455  1.0000
  C   C2465     1.0  0.59771  0.87974  0.28813  1.0000
  C   C2466     1.0  0.57880  0.88319  0.29911  1.0000
  C   C2467     1.0  0.53067  0.85245  0.32388  1.0000
  C   C2468     1.0  0.88074  0.49850  0.33360  1.0000
  C   C2469     1.0  0.58223  0.96577  0.44874  1.0000
  C   C2470     1.0  0.78411  0.91430  0.31239  1.0000
  H   H1962     1.0  0.55044  0.96766  0.34101  1.0000
  H   H1963     1.0  0.56233  0.92632  0.35265  1.0000
  H   H1964     1.0  0.55366  0.88878  0.33993  1.0000
  H   H1965     1.0  0.58664  0.97255  0.47985  1.0000
  H   H1966     1.0  0.94679  0.62551  0.30292  1.0000
  H   H1967     1.0  0.56427  0.85398  0.26154  1.0000
  H   H1968     1.0  0.60728  0.86658  0.26616  1.0000
  H   H1969     1.0  0.61666  0.88448  0.29029  1.0000
  H   H1970     1.0  0.58348  0.89034  0.30978  1.0000
  C   C2471     1.0  0.80532  0.89160  0.29290  1.0000
  C   C2472     1.0  0.63214  0.93149  0.31344  1.0000
  S   S331      1.0  0.97230  0.52314  0.38792  1.0000
  H   H1971     1.0  0.96177  0.52817  0.46325  1.0000
  C   C2473     1.0  0.53559  0.95284  0.32119  1.0000
  C   C2474     1.0  0.92122  0.51687  0.31286  1.0000
  H   H1972     1.0  0.86927  0.52456  0.31539  1.0000
  C   C2475     1.0  0.61189  0.87135  0.43748  1.0000
  C   C2476     1.0  0.58781  0.87734  0.43320  1.0000
  C   C2477     1.0  0.57493  0.89707  0.43949  1.0000
  C   C2478     1.0  0.58612  0.91102  0.45011  1.0000
  H   H1973     1.0  0.80533  0.75309  0.26252  1.0000
  P   P83       1.0  0.57036  0.93724  0.45794  1.0000
  C   C2479     1.0  0.53755  0.93684  0.45447  1.0000
  H   H1974     1.0  0.61944  0.91561  0.46244  1.0000
  H   H1975     1.0  0.98143  0.68674  0.30102  1.0000
  H   H1976     1.0  0.85302  0.91578  0.30028  1.0000
  C   C2480     1.0  0.84627  0.94752  0.26596  1.0000
  C   C2481     1.0  0.52942  0.94375  0.43986  1.0000
  C   C2482     1.0  0.62321  0.88517  0.44805  1.0000
  H   H1977     1.0  0.53050  0.97086  0.31606  1.0000
  C   C2483     1.0  0.96899  0.52850  0.47448  1.0000
  C   C2484     1.0  0.53837  0.85413  0.46920  1.0000
  C   C2485     1.0  0.85752  0.92346  0.28886  1.0000
  H   H1978     1.0  0.55613  0.90094  0.43616  1.0000
  C   C2486     1.0  0.86975  0.94277  0.25938  1.0000
  H   H1979     1.0  0.62166  0.85590  0.43265  1.0000
  H   H1980     1.0  0.57884  0.86646  0.42515  1.0000
  H   H1981     1.0  0.78929  0.51739  0.46600  1.0000
  C   C2487     1.0  0.65455  0.94396  0.31405  1.0000
  C   C2488     1.0  0.96014  0.58578  0.25259  1.0000
  H   H1982     1.0  0.52544  0.92417  0.47743  1.0000
  H   H1983     1.0  0.81638  0.89101  0.28243  1.0000
  H   H1984     1.0  0.94745  0.51705  0.43505  1.0000
  H   H1985     1.0  0.77117  0.97280  0.30381  1.0000
  H   H1986     1.0  0.54261  0.94918  0.43071  1.0000
  H   H1987     1.0  0.85091  0.96640  0.30422  1.0000
  H   H1988     1.0  0.98069  0.61990  0.28367  1.0000
  H   H1989     1.0  0.81970  0.79697  0.24799  1.0000
  C   C2489     1.0  0.78239  0.86944  0.31359  1.0000
  H   H1990     1.0  0.56570  0.89575  0.48038  1.0000
  C   C2490     1.0  0.88706  0.92837  0.26751  1.0000
  H   H1991     1.0  0.87450  0.95009  0.24793  1.0000
  H   H1992     1.0  0.50208  0.95104  0.35959  1.0000
  H   H1993     1.0  0.76377  0.89213  0.32974  1.0000
  C   C2491     1.0  0.49684  0.86638  0.46266  1.0000
  H   H1994     1.0  0.83966  0.52226  0.48724  1.0000
  H   H1995     1.0  0.98458  0.53508  0.42126  1.0000
  C   C2492     1.0  0.86457  0.51584  0.32650  1.0000
  C   C2493     1.0  0.58291  0.95485  0.48584  1.0000
  C   C2494     1.0  0.49978  0.88309  0.30311  1.0000
  C   C2495     1.0  0.88924  0.50092  0.46639  1.0000
  C   C2496     1.0  0.57142  0.91163  0.48619  1.0000
  C   C2497     1.0  0.95299  0.53416  0.48663  1.0000
  C   C2498     1.0  0.75326  0.76097  0.25509  1.0000
  Fe  Fe167     1.0  0.50273  0.91010  0.39354  1.0000
  C   C2499     1.0  0.91313  0.60803  0.25209  1.0000
  C   C2500     1.0  0.83997  0.93783  0.28075  1.0000
  C   C2501     1.0  0.98431  0.61695  0.29564  1.0000
  H   H1996     1.0  0.97405  0.62319  0.25242  1.0000
  H   H1997     1.0  0.66474  0.98350  0.34816  1.0000
  H   H1998     1.0  0.61004  0.94833  0.43436  1.0000
  H   H1999     1.0  0.89504  0.61697  0.25203  1.0000
  H   H2000     1.0  0.67221  0.97788  0.31832  1.0000
  H   H2001     1.0  0.83048  0.53681  0.32877  1.0000
  H   H2002     1.0  0.74834  0.93020  0.25046  1.0000
  C   C2502     1.0  0.79861  0.49949  0.46685  1.0000
  H   H2003     1.0  0.56561  0.98245  0.40599  1.0000
  C   C2503     1.0  0.95777  0.61161  0.25230  1.0000
  H   H2004     1.0  0.51244  0.90505  0.28291  1.0000
  C   C2504     1.0  0.93295  0.51468  0.29852  1.0000
  C   C2505     1.0  0.85792  0.51458  0.48490  1.0000
  H   H2005     1.0  0.81052  0.50108  0.44323  1.0000
  S   S332      1.0  0.51066  0.89200  0.37175  1.0000
  C   C2506     1.0  0.78882  0.97848  0.30775  1.0000
  C   C2507     1.0  0.72196  0.98716  0.30841  1.0000
  C   C2508     1.0  0.96514  0.50729  0.43553  1.0000
  C   C2509     1.0  0.81205  0.74719  0.25158  1.0000
  C   C2510     1.0  0.49473  0.92938  0.46303  1.0000
  C   C2511     1.0  0.50421  0.94303  0.43683  1.0000
  C   C2512     1.0  0.78127  0.80581  0.24329  1.0000
  H   H2006     1.0  0.75598  0.86390  0.24428  1.0000
  H   H2007     1.0  0.50005  0.98819  0.47091  1.0000
  H   H2008     1.0  0.83054  0.83953  0.25296  1.0000
  H   H2009     1.0  0.51076  0.86931  0.34242  1.0000
  H   H2010     1.0  0.72482  0.98247  0.32032  1.0000
  C   C2513     1.0  0.83358  0.97475  0.30792  1.0000
  H   H2011     1.0  0.57257  0.99027  0.37037  1.0000
  C   C2514     1.0  0.50825  0.86370  0.48952  1.0000
  C   C2515     1.0  0.57088  0.98844  0.45198  1.0000
  H   H2012     1.0  0.49814  0.94770  0.42544  1.0000
  C   C2516     1.0  0.60935  0.98769  0.42984  1.0000
  C   C2517     1.0  0.98607  0.51750  0.42783  1.0000
  H   H2013     1.0  0.55551  0.98891  0.46021  1.0000
  C   C2518     1.0  0.85130  0.49355  0.35509  1.0000
  H   H2014     1.0  0.62376  0.98742  0.42094  1.0000
  H   H2015     1.0  0.79875  0.87324  0.25125  1.0000
  C   C2519     1.0  0.79399  0.85451  0.24891  1.0000
  C   C2520     1.0  0.80557  0.81129  0.24704  1.0000
  C   C2521     1.0  0.81186  0.83556  0.24984  1.0000
  H   H2016     1.0  0.75383  0.72471  0.24605  1.0000
  C   C2522     1.0  0.76988  0.84925  0.24502  1.0000
  S   S333      1.0  0.90000  0.49519  0.44743  1.0000
  C   C2523     1.0  0.90463  0.49439  0.47858  1.0000
  C   C2524     1.0  0.76350  0.82503  0.24221  1.0000
  H   H2017     1.0  0.79021  0.49315  0.49083  1.0000
  Fe  Fe168     1.0  0.68202  0.86002  0.67682  1.0000
  S   S334      1.0  0.72247  0.86727  0.67078  1.0000
  S   S335      1.0  0.66786  0.83762  0.69822  1.0000
  Fe  Fe169     1.0  0.66548  0.87473  0.64417  1.0000
  S   S336      1.0  0.70504  0.88192  0.63619  1.0000
  S   S337      1.0  0.63201  0.88625  0.62976  1.0000
  Fe  Fe170     1.0  0.71600  0.84689  0.64994  1.0000
  S   S338      1.0  0.73958  0.81505  0.64032  1.0000
  Fe  Fe171     1.0  0.70835  0.90191  0.65763  1.0000
  S   S339      1.0  0.72903  0.93912  0.65455  1.0000
  S   S340      1.0  0.67596  0.83854  0.65629  1.0000
  S   S341      1.0  0.66843  0.89596  0.66525  1.0000
  Fe  Fe172     1.0  0.54024  0.86428  0.56377  1.0000
  S   S342      1.0  0.52361  0.89882  0.57295  1.0000
  S   S343      1.0  0.56981  0.84237  0.57727  1.0000
  Fe  Fe173     1.0  0.51209  0.87096  0.53335  1.0000
  S   S344      1.0  0.49861  0.86512  0.50920  1.0000
  Fe  Fe174     1.0  0.53107  0.91492  0.54920  1.0000
  S   S345      1.0  0.54984  0.95114  0.54331  1.0000
  S   S346      1.0  0.55003  0.88160  0.54032  1.0000
  H   H2018     1.0  0.80977  0.70046  0.71109  1.0000
  Fe  Fe175     1.0  0.87278  0.66657  0.64253  1.0000
  S   S347      1.0  0.89137  0.70412  0.64262  1.0000
  S   S348      1.0  0.87708  0.64704  0.62003  1.0000
  Fe  Fe176     1.0  0.85810  0.66753  0.67650  1.0000
  S   S349      1.0  0.87680  0.70362  0.67859  1.0000
  S   S350      1.0  0.83684  0.64753  0.69639  1.0000
  Fe  Fe177     1.0  0.85786  0.71618  0.65698  1.0000
  S   S351      1.0  0.83865  0.75468  0.65903  1.0000
  Fe  Fe178     1.0  0.90833  0.68844  0.66416  1.0000
  S   S352      1.0  0.94831  0.68978  0.67243  1.0000
  S   S353      1.0  0.83823  0.67993  0.65528  1.0000
  S   S354      1.0  0.89055  0.65102  0.66372  1.0000
  C   C2525     1.0  0.50667  0.97122  0.55470  1.0000
  H   H2019     1.0  0.89919  0.53292  0.68380  1.0000
  S   S355      1.0  0.89791  0.53730  0.54961  1.0000
  H   H2020     1.0  0.79257  0.94602  0.58935  1.0000
  Fe  Fe179     1.0  0.88487  0.52086  0.57271  1.0000
  S   S356      1.0  0.87219  0.53782  0.59516  1.0000
  C   C2526     1.0  0.73493  0.99003  0.65208  1.0000
  H   H2021     1.0  0.58395  0.92743  0.52169  1.0000
  H   H2022     1.0  0.91229  0.61302  0.68859  1.0000
  C   C2527     1.0  0.82600  0.73508  0.71572  1.0000
  H   H2023     1.0  0.50101  0.99181  0.59162  1.0000
  C   C2528     1.0  0.87316  0.50779  0.49713  1.0000
  C   C2529     1.0  0.49370  0.78867  0.57130  1.0000
  H   H2024     1.0  0.96734  0.68968  0.64064  1.0000
  C   C2530     1.0  0.87514  0.61643  0.61348  1.0000
  C   C2531     1.0  0.86955  0.59550  0.62318  1.0000
  C   C2532     1.0  0.86888  0.57170  0.61739  1.0000
  C   C2533     1.0  0.87371  0.56836  0.60183  1.0000
  C   C2534     1.0  0.87920  0.58929  0.59214  1.0000
  C   C2535     1.0  0.87996  0.61307  0.59794  1.0000
  H   H2025     1.0  0.86570  0.59766  0.63514  1.0000
  H   H2026     1.0  0.86437  0.55575  0.62501  1.0000
  H   H2027     1.0  0.88272  0.58720  0.58015  1.0000
  H   H2028     1.0  0.88416  0.62904  0.59026  1.0000
  C   C2536     1.0  0.86267  0.56123  0.71015  1.0000
  C   C2537     1.0  0.85743  0.67183  0.71957  1.0000
  C   C2538     1.0  0.84159  0.65322  0.71559  1.0000
  C   C2539     1.0  0.82955  0.63825  0.72716  1.0000
  H   H2029     1.0  0.68934  0.97457  0.58243  1.0000
  H   H2030     1.0  0.52839  0.93224  0.51400  1.0000
  H   H2031     1.0  0.86646  0.68382  0.71080  1.0000
  H   H2032     1.0  0.81704  0.62403  0.72423  1.0000
  C   C2540     1.0  0.53121  0.97536  0.54955  1.0000
  C   C2541     1.0  0.68682  0.72977  0.71200  1.0000
  C   C2542     1.0  0.77938  0.57757  0.72089  1.0000
  C   C2543     1.0  0.66879  0.72485  0.72361  1.0000
  H   H2033     1.0  0.95977  0.67348  0.71538  1.0000
  C   C2544     1.0  0.88130  0.56851  0.68000  1.0000
  C   C2545     1.0  0.98440  0.63868  0.62009  1.0000
  C   C2546     1.0  0.52049  0.97043  0.50703  1.0000
  C   C2547     1.0  0.76541  0.79686  0.64717  1.0000
  C   C2548     1.0  0.78057  0.80464  0.65839  1.0000
  C   C2549     1.0  0.80259  0.79133  0.66200  1.0000
  C   C2550     1.0  0.80947  0.76952  0.65486  1.0000
  C   C2551     1.0  0.79352  0.76093  0.64428  1.0000
  C   C2552     1.0  0.77186  0.77464  0.64036  1.0000
  H   H2034     1.0  0.77565  0.82133  0.66394  1.0000
  H   H2035     1.0  0.81454  0.79812  0.67031  1.0000
  H   H2036     1.0  0.79834  0.74424  0.63866  1.0000
  H   H2037     1.0  0.76033  0.76828  0.63171  1.0000
  C   C2553     1.0  0.61458  0.87264  0.61571  1.0000
  C   C2554     1.0  0.62023  0.84937  0.61028  1.0000
  C   C2555     1.0  0.60634  0.84025  0.59860  1.0000
  C   C2556     1.0  0.58664  0.85422  0.59220  1.0000
  C   C2557     1.0  0.58068  0.87714  0.59794  1.0000
  C   C2558     1.0  0.59441  0.88612  0.60963  1.0000
  H   H2038     1.0  0.63539  0.83851  0.61500  1.0000
  H   H2039     1.0  0.61098  0.82233  0.59444  1.0000
  H   H2040     1.0  0.56546  0.88801  0.59336  1.0000
  H   H2041     1.0  0.58944  0.90382  0.61388  1.0000
  C   C2559     1.0  0.71941  0.97031  0.65752  1.0000
  C   C2560     1.0  0.69710  0.97599  0.66525  1.0000
  C   C2561     1.0  0.99095  0.50591  0.55055  1.0000
  H   H2042     1.0  0.68493  0.96115  0.66953  1.0000
  C   C2562     1.0  0.94479  0.57632  0.66070  1.0000
  C   C2563     1.0  0.87804  0.54318  0.70372  1.0000
  C   C2564     1.0  0.67453  0.86651  0.72268  1.0000
  C   C2565     1.0  0.66717  0.84379  0.71771  1.0000
  C   C2566     1.0  0.65849  0.82526  0.72850  1.0000
  H   H2043     1.0  0.98211  0.64025  0.70258  1.0000
  H   H2044     1.0  0.68121  0.88092  0.71450  1.0000
  H   H2045     1.0  0.65275  0.80763  0.72476  1.0000
  C   C2567     1.0  0.94182  0.56758  0.70802  1.0000
  H   H2046     1.0  0.87426  0.68912  0.73790  1.0000
  C   C2568     1.0  0.57465  0.90904  0.50182  1.0000
  H   H2047     1.0  0.65564  0.71006  0.72279  1.0000
  H   H2048     1.0  0.62026  0.98231  0.56134  1.0000
  H   H2049     1.0  0.92513  0.54336  0.72575  1.0000
  H   H2050     1.0  0.83979  0.76876  0.72377  1.0000
  H   H2051     1.0  0.75218  0.98595  0.64603  1.0000
  C   C2569     1.0  0.80385  0.56893  0.71932  1.0000
  H   H2052     1.0  0.88829  0.57139  0.66834  1.0000
  H   H2053     1.0  0.77629  0.84283  0.71206  1.0000
  C   C2570     1.0  0.96810  0.63848  0.60822  1.0000
  C   C2571     1.0  0.97637  0.63008  0.59427  1.0000
  H   H2054     1.0  0.72939  0.95365  0.52871  1.0000
  P   P84       1.0  0.96440  0.59928  0.68520  1.0000
  C   C2572     1.0  0.95927  0.56982  0.69577  1.0000
  C   C2573     1.0  0.95230  0.52399  0.71226  1.0000
  C   C2574     1.0  0.80896  0.71591  0.71830  1.0000
  C   C2575     1.0  0.57334  0.98016  0.61967  1.0000
  C   C2576     1.0  0.58188  0.92936  0.50951  1.0000
  H   H2055     1.0  0.57120  0.89131  0.50798  1.0000
  H   H2056     1.0  0.75144  0.59244  0.73602  1.0000
  C   C2577     1.0  0.50273  0.98732  0.50122  1.0000
  H   H2057     1.0  0.71371  0.77964  0.72615  1.0000
  H   H2058     1.0  0.84500  0.59708  0.70598  1.0000
  H   H2059     1.0  0.54607  0.85265  0.49318  1.0000
  S   S357      1.0  0.91882  0.49652  0.57579  1.0000
  C   C2578     1.0  0.75044  0.92480  0.61664  1.0000
  H   H2060     1.0  0.94922  0.64541  0.60971  1.0000
  C   C2579     1.0  0.78510  0.93567  0.59940  1.0000
  C   C2580     1.0  0.80067  0.92014  0.60819  1.0000
  C   C2581     1.0  0.79121  0.90702  0.62140  1.0000
  C   C2582     1.0  0.76580  0.90891  0.62528  1.0000
  P   P85       1.0  0.81124  0.88735  0.63306  1.0000
  C   C2583     1.0  0.84232  0.89957  0.63130  1.0000
  C   C2584     1.0  0.80069  0.88713  0.65278  1.0000
  C   C2585     1.0  0.80417  0.86596  0.66258  1.0000
  C   C2586     1.0  0.79544  0.86554  0.67771  1.0000
  C   C2587     1.0  0.78317  0.88626  0.68320  1.0000
  C   C2588     1.0  0.78004  0.90759  0.67360  1.0000
  C   C2589     1.0  0.78898  0.90815  0.65851  1.0000
  C   C2590     1.0  0.85867  0.89270  0.61947  1.0000
  C   C2591     1.0  0.88272  0.90218  0.61805  1.0000
  C   C2592     1.0  0.89056  0.91871  0.62834  1.0000
  C   C2593     1.0  0.87433  0.92585  0.64003  1.0000
  C   C2594     1.0  0.85027  0.91638  0.64151  1.0000
  C   C2595     1.0  0.81140  0.85609  0.62692  1.0000
  C   C2596     1.0  0.83127  0.83983  0.63034  1.0000
  C   C2597     1.0  0.83129  0.81554  0.62578  1.0000
  C   C2598     1.0  0.81161  0.80735  0.61770  1.0000
  C   C2599     1.0  0.79167  0.82330  0.61440  1.0000
  C   C2600     1.0  0.79145  0.84753  0.61907  1.0000
  H   H2061     1.0  0.73115  0.92702  0.62022  1.0000
  S   S358      1.0  0.96698  0.52458  0.54340  1.0000
  H   H2062     1.0  0.99253  0.52793  0.58391  1.0000
  H   H2063     1.0  0.82005  0.91863  0.60473  1.0000
  H   H2064     1.0  0.75790  0.89861  0.63522  1.0000
  H   H2065     1.0  0.81325  0.84953  0.65859  1.0000
  H   H2066     1.0  0.79782  0.84889  0.68503  1.0000
  H   H2067     1.0  0.77580  0.88576  0.69480  1.0000
  H   H2068     1.0  0.77011  0.92356  0.67771  1.0000
  H   H2069     1.0  0.78621  0.92489  0.65129  1.0000
  H   H2070     1.0  0.85284  0.88006  0.61132  1.0000
  H   H2071     1.0  0.89528  0.89668  0.60896  1.0000
  H   H2072     1.0  0.90921  0.92603  0.62723  1.0000
  H   H2073     1.0  0.88037  0.93875  0.64797  1.0000
  H   H2074     1.0  0.83799  0.92225  0.65060  1.0000
  H   H2075     1.0  0.84650  0.84570  0.63681  1.0000
  H   H2076     1.0  0.84621  0.80275  0.62889  1.0000
  H   H2077     1.0  0.81136  0.78832  0.61453  1.0000
  H   H2078     1.0  0.77584  0.81650  0.60882  1.0000
  H   H2079     1.0  0.77540  0.85922  0.61686  1.0000
  C   C2601     1.0  0.99073  0.56499  0.63201  1.0000
  H   H2080     1.0  0.94969  0.53921  0.51063  1.0000
  H   H2081     1.0  0.92796  0.51680  0.60484  1.0000
  C   C2602     1.0  0.51477  0.94527  0.50941  1.0000
  C   C2603     1.0  0.51898  0.80397  0.59064  1.0000
  H   H2082     1.0  0.68724  0.71886  0.70213  1.0000
  H   H2083     1.0  0.49914  0.82064  0.60903  1.0000
  H   H2084     1.0  0.68998  0.97509  0.53559  1.0000
  C   C2604     1.0  0.76002  0.93819  0.60371  1.0000
  C   C2605     1.0  0.97942  0.54256  0.58642  1.0000
  H   H2085     1.0  0.94110  0.56348  0.61448  1.0000
  C   C2606     1.0  0.95451  0.57753  0.57710  1.0000
  C   C2607     1.0  0.96208  0.53486  0.50115  1.0000
  C   C2608     1.0  0.51705  0.79271  0.57696  1.0000
  C   C2609     1.0  0.76088  0.68856  0.69799  1.0000
  H   H2086     1.0  0.89042  0.64623  0.70148  1.0000
  C   C2610     1.0  0.76699  0.82648  0.70880  1.0000
  C   C2611     1.0  0.57189  0.95636  0.62692  1.0000
  H   H2087     1.0  0.98708  0.55030  0.68266  1.0000
  H   H2088     1.0  0.63290  0.94576  0.63310  1.0000
  H   H2089     1.0  0.98112  0.55826  0.56334  1.0000
  P   P86       1.0  0.97778  0.52322  0.61671  1.0000
  H   H2090     1.0  0.92919  0.59289  0.59350  1.0000
  C   C2612     1.0  0.97336  0.54891  0.69197  1.0000
  C   C2613     1.0  0.96207  0.64093  0.70253  1.0000
  H   H2091     1.0  0.96393  0.63068  0.58492  1.0000
  H   H2092     1.0  0.59236  0.92574  0.63755  1.0000
  Fe  Fe180     1.0  0.92990  0.51078  0.55211  1.0000
  C   C2614     1.0  0.59921  0.93613  0.58692  1.0000
  C   C2615     1.0  0.59076  0.93021  0.57291  1.0000
  C   C2616     1.0  0.60738  0.92134  0.56196  1.0000
  C   C2617     1.0  0.63258  0.91872  0.56495  1.0000
  C   C2618     1.0  0.64130  0.92503  0.57896  1.0000
  C   C2619     1.0  0.62431  0.93313  0.59006  1.0000
  P   P87       1.0  0.67391  0.92210  0.58274  1.0000
  C   C2620     1.0  0.68179  0.89031  0.58856  1.0000
  C   C2621     1.0  0.69164  0.93200  0.56563  1.0000
  C   C2622     1.0  0.68310  0.95194  0.55612  1.0000
  C   C2623     1.0  0.69670  0.95972  0.54288  1.0000
  C   C2624     1.0  0.71890  0.94767  0.53901  1.0000
  C   C2625     1.0  0.72755  0.92784  0.54839  1.0000
  C   C2626     1.0  0.71402  0.92002  0.56166  1.0000
  C   C2627     1.0  0.70380  0.88491  0.59616  1.0000
  C   C2628     1.0  0.71015  0.86038  0.60060  1.0000
  C   C2629     1.0  0.69464  0.84105  0.59746  1.0000
  C   C2630     1.0  0.67289  0.84622  0.58973  1.0000
  C   C2631     1.0  0.66636  0.87074  0.58538  1.0000
  C   C2632     1.0  0.68080  0.94225  0.59757  1.0000
  C   C2633     1.0  0.67841  0.93344  0.61286  1.0000
  C   C2634     1.0  0.68352  0.94888  0.62442  1.0000
  C   C2635     1.0  0.96977  0.52606  0.70013  1.0000
  H   H2093     1.0  0.98073  0.57641  0.62377  1.0000
  C   C2636     1.0  0.68774  0.96703  0.59406  1.0000
  H   H2094     1.0  0.58615  0.94236  0.59552  1.0000
  H   H2095     1.0  0.57120  0.93198  0.57067  1.0000
  H   H2096     1.0  0.60053  0.91624  0.55124  1.0000
  H   H2097     1.0  0.64518  0.91153  0.55640  1.0000
  H   H2098     1.0  0.63026  0.93685  0.60120  1.0000
  H   H2099     1.0  0.66595  0.96153  0.55897  1.0000
  P   P88       1.0  0.85120  0.55739  0.72971  1.0000
  C   C2637     1.0  0.67273  0.87075  0.73828  1.0000
  H   H2100     1.0  0.74472  0.91841  0.54534  1.0000
  H   H2101     1.0  0.72107  0.90455  0.56866  1.0000
  H   H2102     1.0  0.71596  0.89966  0.59876  1.0000
  H   H2103     1.0  0.72683  0.85630  0.60680  1.0000
  H   H2104     1.0  0.69932  0.82210  0.60120  1.0000
  H   H2105     1.0  0.94873  0.59004  0.56777  1.0000
  H   H2106     1.0  0.64905  0.87422  0.57978  1.0000
  H   H2107     1.0  0.67246  0.91463  0.61589  1.0000
  H   H2108     1.0  0.68202  0.94179  0.63621  1.0000
  C   C2638     1.0  0.86177  0.67486  0.73495  1.0000
  C   C2639     1.0  0.66725  0.73944  0.73611  1.0000
  C   C2640     1.0  0.77041  0.58581  0.73477  1.0000
  C   C2641     1.0  0.70376  0.74910  0.71291  1.0000
  C   C2642     1.0  0.89684  0.49805  0.49379  1.0000
  H   H2109     1.0  0.55413  0.94726  0.62864  1.0000
  C   C2643     1.0  0.95156  0.59872  0.66660  1.0000
  C   C2644     1.0  0.97265  0.55946  0.57459  1.0000
  C   C2645     1.0  0.59336  0.94421  0.63191  1.0000
  P   P89       1.0  0.72544  0.75660  0.69713  1.0000
  C   C2646     1.0  0.74244  0.78404  0.70079  1.0000
  C   C2647     1.0  0.74712  0.73145  0.69364  1.0000
  C   C2648     1.0  0.76732  0.73552  0.68325  1.0000
  C   C2649     1.0  0.78378  0.71619  0.68003  1.0000
  C   C2650     1.0  0.78040  0.69264  0.68725  1.0000
  H   H2110     1.0  0.92812  0.55924  0.64224  1.0000
  H   H2111     1.0  0.77896  0.70074  0.73232  1.0000
  C   C2651     1.0  0.76671  0.78218  0.70600  1.0000
  C   C2652     1.0  0.77906  0.80342  0.70972  1.0000
  H   H2112     1.0  0.75870  0.67039  0.70382  1.0000
  Fe  Fe181     1.0  0.88006  0.50515  0.53922  1.0000
  H   H2113     1.0  0.97832  0.64604  0.63073  1.0000
  C   C2653     1.0  0.70665  0.76385  0.68085  1.0000
  C   C2654     1.0  0.71540  0.75934  0.66608  1.0000
  C   C2655     1.0  0.70051  0.76489  0.65369  1.0000
  C   C2656     1.0  0.67671  0.77480  0.65591  1.0000
  C   C2657     1.0  0.66787  0.77946  0.67054  1.0000
  C   C2658     1.0  0.68280  0.77424  0.68293  1.0000
  H   H2114     1.0  0.76736  0.57783  0.71136  1.0000
  C   C2659     1.0  0.95047  0.56251  0.60348  1.0000
  C   C2660     1.0  0.69063  0.97339  0.62083  1.0000
  H   H2115     1.0  0.86111  0.60329  0.67959  1.0000
  C   C2661     1.0  0.97876  0.68806  0.66372  1.0000
  H   H2116     1.0  0.77032  0.75367  0.67755  1.0000
  H   H2117     1.0  0.79922  0.71950  0.67192  1.0000
  H   H2118     1.0  0.79325  0.67769  0.68476  1.0000
  H   H2119     1.0  0.94774  0.55870  0.66687  1.0000
  C   C2662     1.0  0.85158  0.52509  0.73669  1.0000
  H   H2120     1.0  0.77607  0.76438  0.70737  1.0000
  H   H2121     1.0  0.79785  0.80187  0.71358  1.0000
  C   C2663     1.0  0.82609  0.75427  0.72556  1.0000
  C   C2664     1.0  0.87391  0.51350  0.74100  1.0000
  C   C2665     1.0  0.70178  0.76392  0.72540  1.0000
  S   S359      1.0  0.50342  0.85000  0.55620  1.0000
  H   H2122     1.0  0.70775  0.76214  0.64229  1.0000
  H   H2123     1.0  0.66542  0.77960  0.64626  1.0000
  H   H2124     1.0  0.64974  0.78797  0.67225  1.0000
  H   H2125     1.0  0.67576  0.77886  0.69407  1.0000
  C   C2666     1.0  0.61635  0.95558  0.62938  1.0000
  C   C2667     1.0  0.85675  0.58287  0.70128  1.0000
  H   H2126     1.0  0.49879  0.95301  0.55458  1.0000
  C   C2668     1.0  0.93360  0.57649  0.64667  1.0000
  H   H2127     1.0  0.71207  0.80934  0.69558  1.0000
  C   C2669     1.0  0.92361  0.66161  0.70964  1.0000
  H   H2128     1.0  0.69453  0.98533  0.62982  1.0000
  C   C2670     1.0  0.92906  0.50629  0.61565  1.0000
  C   C2671     1.0  0.88737  0.54688  0.68871  1.0000
  C   C2672     1.0  0.91036  0.64456  0.70204  1.0000
  H   H2129     1.0  0.59148  0.96796  0.50759  1.0000
  H   H2130     1.0  0.88285  0.52627  0.71022  1.0000
  H   H2131     1.0  0.72964  0.70424  0.70970  1.0000
  H   H2132     1.0  0.74802  0.95060  0.59713  1.0000
  H   H2133     1.0  0.91391  0.67660  0.71500  1.0000
  C   C2673     1.0  0.61797  0.97924  0.62196  1.0000
  C   C2674     1.0  0.93845  0.54478  0.71624  1.0000
  C   C2675     1.0  0.86595  0.58647  0.68629  1.0000
  S   S360      1.0  0.86100  0.51022  0.51623  1.0000
  C   C2676     1.0  0.94878  0.62378  0.69485  1.0000
  H   H2134     1.0  0.92022  0.59924  0.62763  1.0000
  C   C2677     1.0  0.94682  0.62117  0.65823  1.0000
  C   C2678     1.0  0.93558  0.62124  0.64424  1.0000
  H   H2135     1.0  0.53377  0.78784  0.57054  1.0000
  H   H2136     1.0  0.73329  0.84625  0.70297  1.0000
  C   C2679     1.0  0.68363  0.75904  0.73694  1.0000
  C   C2680     1.0  0.92286  0.62580  0.69463  1.0000
  C   C2681     1.0  0.92911  0.59896  0.63843  1.0000
  C   C2682     1.0  0.74286  0.82846  0.70366  1.0000
  C   C2683     1.0  0.82962  0.51125  0.73783  1.0000
  C   C2684     1.0  0.79150  0.71618  0.73044  1.0000
  H   H2137     1.0  0.81208  0.51963  0.73470  1.0000
  H   H2138     1.0  0.83947  0.73471  0.70626  1.0000
  H   H2139     1.0  0.73376  0.75196  0.66390  1.0000
  H   H2140     1.0  0.53864  0.97651  0.50986  1.0000
  C   C2685     1.0  0.98715  0.52987  0.50353  1.0000
  H   H2141     1.0  0.95116  0.63876  0.66269  1.0000
  H   H2142     1.0  0.93120  0.63871  0.63808  1.0000
  C   C2686     1.0  0.74436  0.70788  0.70124  1.0000
  C   C2687     1.0  0.81971  0.56897  0.73156  1.0000
  C   C2688     1.0  0.96898  0.54451  0.60112  1.0000
  C   C2689     1.0  0.88046  0.59791  0.73539  1.0000
  C   C2690     1.0  0.73076  0.80740  0.69949  1.0000
  C   C2691     1.0  0.95057  0.50639  0.62413  1.0000
  C   C2692     1.0  0.94946  0.65978  0.70990  1.0000
  H   H2143     1.0  0.87746  0.60499  0.72387  1.0000
  H   H2144     1.0  0.81027  0.56219  0.70857  1.0000
  H   H2145     1.0  0.53712  0.80755  0.59483  1.0000
  H   H2146     1.0  0.93087  0.58331  0.71144  1.0000
  H   H2147     1.0  0.66069  0.83126  0.58743  1.0000
  C   C2693     1.0  0.58606  0.95223  0.50153  1.0000
  H   H2148     1.0  0.94963  0.50633  0.71865  1.0000
  C   C2694     1.0  0.94341  0.57902  0.59156  1.0000
  C   C2695     1.0  0.98296  0.68830  0.64797  1.0000
  H   H2149     1.0  0.61747  0.98470  0.58913  1.0000
  H   H2150     1.0  0.55645  0.98918  0.61594  1.0000
  C   C2696     1.0  0.69262  0.98250  0.60566  1.0000
  H   H2151     1.0  0.63605  0.98759  0.61994  1.0000
  C   C2697     1.0  0.59638  0.99199  0.61735  1.0000
  H   H2152     1.0  0.50332  0.88965  0.64797  1.0000
  S   S361      1.0  0.49376  0.90553  0.54150  1.0000
  C   C2698     1.0  0.49757  0.81134  0.59863  1.0000
  C   C2699     1.0  0.99211  0.53907  0.63149  1.0000
  H   H2153     1.0  0.98065  0.50999  0.69711  1.0000
  H   H2154     1.0  0.76863  0.78357  0.73923  1.0000
  C   C2700     1.0  0.80900  0.75436  0.73792  1.0000
  H   H2155     1.0  0.90103  0.63021  0.74014  1.0000
  C   C2701     1.0  0.79117  0.73562  0.74027  1.0000
  H   H2156     1.0  0.70062  0.68758  0.73999  1.0000
  C   C2702     1.0  0.87008  0.57538  0.74129  1.0000
  H   H2157     1.0  0.89098  0.52383  0.74035  1.0000
  H   H2158     1.0  0.72844  0.72361  0.73946  1.0000
  H   H2159     1.0  0.74070  0.81979  0.74103  1.0000
  Fe  Fe182     1.0  0.66159  0.78303  0.80661  1.0000
  S   S362      1.0  0.67013  0.82371  0.80843  1.0000
  S   S363      1.0  0.69741  0.75865  0.80850  1.0000
  Fe  Fe183     1.0  0.60640  0.79595  0.79980  1.0000
  S   S364      1.0  0.61252  0.83681  0.80090  1.0000
  S   S365      1.0  0.56852  0.78652  0.79064  1.0000
  Fe  Fe184     1.0  0.64805  0.83055  0.78743  1.0000
  S   S366      1.0  0.66102  0.85880  0.76850  1.0000
  Fe  Fe185     1.0  0.63392  0.82688  0.82179  1.0000
  S   S367      1.0  0.62359  0.84641  0.84371  1.0000
  S   S368      1.0  0.64109  0.79029  0.78489  1.0000
  S   S369      1.0  0.62627  0.78568  0.82148  1.0000
  Fe  Fe186     1.0  0.63680  0.97387  0.89246  1.0000
  C   C2703     1.0  0.71953  0.66702  0.75785  1.0000
  S   S370      1.0  0.64964  0.94711  0.87427  1.0000
  C   C2704     1.0  0.54781  0.84750  0.77211  1.0000
  C   C2705     1.0  0.75382  0.78288  0.74777  1.0000
  H   H2160     1.0  0.90737  0.50668  0.83309  1.0000
  P   P90       1.0  0.50323  0.87223  0.77842  1.0000
  S   S371      1.0  0.61240  0.97048  0.91388  1.0000
  H   H2161     1.0  0.64126  0.95067  0.98019  1.0000
  Fe  Fe187     1.0  0.81857  0.58759  0.79485  1.0000
  S   S372      1.0  0.85524  0.60658  0.79631  1.0000
  S   S373      1.0  0.82330  0.54900  0.78538  1.0000
  Fe  Fe188     1.0  0.78947  0.63518  0.80412  1.0000
  S   S374      1.0  0.82461  0.65619  0.80651  1.0000
  S   S375      1.0  0.74966  0.65048  0.80780  1.0000
  Fe  Fe189     1.0  0.83697  0.63969  0.78457  1.0000
  S   S376      1.0  0.85715  0.66298  0.76568  1.0000
  Fe  Fe190     1.0  0.84008  0.62095  0.81805  1.0000
  S   S377      1.0  0.86002  0.61398  0.84050  1.0000
  S   S378      1.0  0.80128  0.62025  0.78161  1.0000
  S   S379      1.0  0.80383  0.60068  0.81719  1.0000
  H   H2162     1.0  0.70720  0.65131  0.75822  1.0000
  S   S380      1.0  0.96784  0.64191  0.86188  1.0000
  C   C2706     1.0  0.76560  0.93694  0.93301  1.0000
  C   C2707     1.0  0.70820  0.94990  0.92739  1.0000
  H   H2163     1.0  0.53970  0.88746  0.93201  1.0000
  C   C2708     1.0  0.71848  0.80323  0.75966  1.0000
  H   H2164     1.0  0.83923  0.52540  0.82136  1.0000
  H   H2165     1.0  0.68185  0.77084  0.74639  1.0000
  C   C2709     1.0  0.57263  0.98399  0.97410  1.0000
  C   C2710     1.0  0.81712  0.51789  0.79253  1.0000
  H   H2166     1.0  0.58215  0.82803  0.76754  1.0000
  H   H2167     1.0  0.60141  0.95512  0.86196  1.0000
  C   C2711     1.0  0.89071  0.62082  0.84573  1.0000
  C   C2712     1.0  0.89899  0.61113  0.85987  1.0000
  C   C2713     1.0  0.92285  0.61654  0.86472  1.0000
  C   C2714     1.0  0.93862  0.63223  0.85563  1.0000
  C   C2715     1.0  0.93043  0.64169  0.84141  1.0000
  C   C2716     1.0  0.90680  0.63580  0.83641  1.0000
  H   H2168     1.0  0.88679  0.59947  0.86719  1.0000
  H   H2169     1.0  0.92875  0.60922  0.87571  1.0000
  H   H2170     1.0  0.94239  0.65390  0.83429  1.0000
  H   H2171     1.0  0.90094  0.64318  0.82545  1.0000
  H   H2172     1.0  0.94634  0.53876  0.97033  1.0000
  C   C2717     1.0  0.83389  0.64127  0.74254  1.0000
  C   C2718     1.0  0.75667  0.52979  0.84179  1.0000
  H   H2173     1.0  0.53870  0.83083  0.77685  1.0000
  H   H2174     1.0  0.81169  0.55997  0.84044  1.0000
  C   C2719     1.0  0.58311  0.94707  0.86328  1.0000
  H   H2175     1.0  0.76789  0.56655  0.83374  1.0000
  C   C2720     1.0  0.97674  0.56619  0.93762  1.0000
  C   C2721     1.0  0.70662  0.98776  0.98208  1.0000
  C   C2722     1.0  0.98357  0.61589  0.97619  1.0000
  C   C2723     1.0  0.77567  0.97479  0.94458  1.0000
  C   C2724     1.0  0.71134  0.72831  0.80780  1.0000
  C   C2725     1.0  0.69754  0.70670  0.80693  1.0000
  C   C2726     1.0  0.70958  0.68323  0.80681  1.0000
  C   C2727     1.0  0.73563  0.68088  0.80720  1.0000
  C   C2728     1.0  0.74948  0.70255  0.80762  1.0000
  C   C2729     1.0  0.73738  0.72593  0.80820  1.0000
  H   H2176     1.0  0.67754  0.70801  0.80664  1.0000
  H   H2177     1.0  0.69855  0.66671  0.80648  1.0000
  H   H2178     1.0  0.76947  0.70122  0.80785  1.0000
  H   H2179     1.0  0.74822  0.74239  0.80909  1.0000
  C   C2730     1.0  0.75806  0.95977  0.93851  1.0000
  C   C2731     1.0  0.75464  0.68742  0.76769  1.0000
  H   H2180     1.0  0.58943  0.97676  0.95223  1.0000
  C   C2732     1.0  0.63100  0.87476  0.85178  1.0000
  C   C2733     1.0  0.61806  0.88111  0.86518  1.0000
  C   C2734     1.0  0.62333  0.90310  0.87222  1.0000
  C   C2735     1.0  0.64176  0.91912  0.86594  1.0000
  C   C2736     1.0  0.65466  0.91282  0.85251  1.0000
  C   C2737     1.0  0.64931  0.89086  0.84545  1.0000
  H   H2181     1.0  0.60398  0.86878  0.87021  1.0000
  H   H2182     1.0  0.61322  0.90755  0.88253  1.0000
  H   H2183     1.0  0.66899  0.92497  0.84752  1.0000
  H   H2184     1.0  0.65954  0.88627  0.83520  1.0000
  C   C2738     1.0  0.51791  0.78354  0.78810  1.0000
  C   C2739     1.0  0.53756  0.78180  0.79817  1.0000
  C   C2740     1.0  0.53202  0.77559  0.81357  1.0000
  H   H2185     1.0  0.52193  0.78776  0.77612  1.0000
  H   H2186     1.0  0.54688  0.77380  0.82144  1.0000
  H   H2187     1.0  0.84446  0.58303  0.89027  1.0000
  C   C2741     1.0  0.95806  0.53355  0.85846  1.0000
  H   H2188     1.0  0.84199  0.70152  0.78529  1.0000
  C   C2742     1.0  0.49695  0.94185  0.83909  1.0000
  H   H2189     1.0  0.65633  0.91427  0.92906  1.0000
  C   C2743     1.0  0.50388  0.97196  0.93277  1.0000
  H   H2190     1.0  0.82494  0.62924  0.75129  1.0000
  H   H2191     1.0  0.77883  0.59131  0.75792  1.0000
  C   C2744     1.0  0.80029  0.51221  0.80471  1.0000
  C   C2745     1.0  0.95258  0.53186  0.98135  1.0000
  C   C2746     1.0  0.75101  0.70803  0.75744  1.0000
  C   C2747     1.0  0.49743  0.85501  0.79642  1.0000
  H   H2192     1.0  0.84093  0.55400  0.91325  1.0000
  H   H2193     1.0  0.66742  0.91296  0.90153  1.0000
  H   H2194     1.0  0.81488  0.70494  0.76356  1.0000
  H   H2195     1.0  0.50875  0.95385  0.84493  1.0000
  C   C2748     1.0  0.87986  0.54625  0.84602  1.0000
  C   C2749     1.0  0.62914  0.93989  0.81829  1.0000
  H   H2196     1.0  0.50570  0.98981  0.93752  1.0000
  C   C2750     1.0  0.80060  0.96738  0.94481  1.0000
  C   C2751     1.0  0.67285  0.92350  0.92429  1.0000
  C   C2752     1.0  0.95902  0.54830  0.93550  1.0000
  H   H2197     1.0  0.90297  0.49875  0.89844  1.0000
  C   C2753     1.0  0.75015  0.76167  0.75765  1.0000
  C   C2754     1.0  0.51414  0.84126  0.85933  1.0000
  H   H2198     1.0  0.65662  0.95569  0.78376  1.0000
  C   C2755     1.0  0.76416  0.50702  0.84867  1.0000
  P   P91       1.0  0.83820  0.51739  0.85434  1.0000
  C   C2756     1.0  0.87345  0.56766  0.75658  1.0000
  C   C2757     1.0  0.52230  0.93765  0.91991  1.0000
  C   C2758     1.0  0.62719  0.96341  0.82399  1.0000
  C   C2759     1.0  0.71437  0.94899  0.91182  1.0000
  C   C2760     1.0  0.52459  0.96058  0.92614  1.0000
  H   H2199     1.0  0.84216  0.50234  0.77598  1.0000
  C   C2761     1.0  0.78887  0.50321  0.85253  1.0000
  H   H2200     1.0  0.54240  0.96977  0.92569  1.0000
  H   H2201     1.0  0.71828  0.92768  0.96108  1.0000
  C   C2762     1.0  0.50720  0.77101  0.81874  1.0000
  C   C2763     1.0  0.84247  0.56330  0.88914  1.0000
  C   C2764     1.0  0.51690  0.84592  0.80536  1.0000
  C   C2765     1.0  0.57523  0.86411  0.90357  1.0000
  H   H2202     1.0  0.62268  0.92368  0.82515  1.0000
  C   C2766     1.0  0.69989  0.93541  0.90260  1.0000
  C   C2767     1.0  0.66366  0.85234  0.74904  1.0000
  H   H2203     1.0  0.75230  0.92465  0.92867  1.0000
  C   C2768     1.0  0.80806  0.94482  0.93911  1.0000
  H   H2204     1.0  0.95943  0.52556  0.86994  1.0000
  H   H2205     1.0  0.51309  0.95490  0.79807  1.0000
  C   C2769     1.0  0.71466  0.78219  0.76949  1.0000
  H   H2206     1.0  0.95204  0.51816  0.82203  1.0000
  C   C2770     1.0  0.53525  0.87045  0.77154  1.0000
  H   H2207     1.0  0.76919  0.68702  0.77577  1.0000
  C   C2771     1.0  0.77383  0.54882  0.83891  1.0000
  H   H2208     1.0  0.86474  0.55098  0.76166  1.0000
  H   H2209     1.0  0.64971  0.81516  0.75220  1.0000
  C   C2772     1.0  0.55787  0.86498  0.89224  1.0000
  H   H2210     1.0  0.90700  0.61619  0.76703  1.0000
  C   C2773     1.0  0.57177  0.88945  0.75875  1.0000
  C   C2774     1.0  0.82651  0.71448  0.78532  1.0000
  C   C2775     1.0  0.56948  0.94874  0.87695  1.0000
  H   H2211     1.0  0.84277  0.56737  0.86482  1.0000
  C   C2776     1.0  0.88726  0.58202  0.76570  1.0000
  H   H2212     1.0  0.64169  0.91877  0.79955  1.0000
  H   H2213     1.0  0.52103  0.87469  0.88607  1.0000
  H   H2214     1.0  0.56317  0.85909  0.88108  1.0000
  H   H2215     1.0  0.97656  0.61856  0.95215  1.0000
  C   C2777     1.0  0.64281  0.97025  0.98178  1.0000
  C   C2778     1.0  0.83729  0.52161  0.90054  1.0000
  C   C2779     1.0  0.67907  0.92277  0.90882  1.0000
  H   H2216     1.0  0.53584  0.80791  0.86373  1.0000
  H   H2217     1.0  0.53745  0.90886  0.76281  1.0000
  H   H2218     1.0  0.91800  0.51118  0.87243  1.0000
  C   C2780     1.0  0.50907  0.91932  0.78882  1.0000
  C   C2781     1.0  0.80639  0.52199  0.84919  1.0000
  C   C2782     1.0  0.52679  0.88178  0.90960  1.0000
  C   C2783     1.0  0.96439  0.52325  0.93895  1.0000
  C   C2784     1.0  0.84172  0.55429  0.87470  1.0000
  H   H2219     1.0  0.53605  0.84829  0.80157  1.0000
  C   C2785     1.0  0.85903  0.53427  0.84104  1.0000
  H   H2220     1.0  0.70623  0.81924  0.76050  1.0000
  H   H2221     1.0  0.58205  0.87156  0.92666  1.0000
  C   C2786     1.0  0.89072  0.56099  0.82014  1.0000
  C   C2787     1.0  0.87074  0.54812  0.81504  1.0000
  C   C2788     1.0  0.85487  0.53491  0.82546  1.0000
  H   H2222     1.0  0.53872  0.92948  0.91482  1.0000
  H   H2223     1.0  0.68914  0.98156  0.86380  1.0000
  C   C2789     1.0  0.73800  0.80354  0.74876  1.0000
  H   H2224     1.0  0.79630  0.91198  0.92897  1.0000
  S   S381      1.0  0.97755  0.53627  0.89825  1.0000
  H   H2225     1.0  0.91029  0.57049  0.83965  1.0000
  H   H2226     1.0  0.86708  0.54890  0.80305  1.0000
  H   H2227     1.0  0.74170  0.65123  0.77586  1.0000
  C   C2790     1.0  0.71296  0.98941  0.96654  1.0000
  H   H2228     1.0  0.58491  0.93227  0.84140  1.0000
  C   C2791     1.0  0.95826  0.55494  0.82880  1.0000
  C   C2792     1.0  0.96122  0.56986  0.84093  1.0000
  C   C2793     1.0  0.96092  0.55913  0.85575  1.0000
  C   C2794     1.0  0.85020  0.65946  0.74651  1.0000
  C   C2795     1.0  0.83974  0.52870  0.87305  1.0000
  H   H2229     1.0  0.95869  0.56326  0.81729  1.0000
  H   H2230     1.0  0.96375  0.58973  0.83892  1.0000
  H   H2231     1.0  0.96313  0.57064  0.86520  1.0000
  H   H2232     1.0  0.60370  0.86530  0.75598  1.0000
  C   C2796     1.0  0.78750  0.69885  0.83941  1.0000
  C   C2797     1.0  0.78716  0.67304  0.84177  1.0000
  C   C2798     1.0  0.80897  0.66007  0.84527  1.0000
  C   C2799     1.0  0.83118  0.67284  0.84615  1.0000
  C   C2800     1.0  0.83184  0.69875  0.84356  1.0000
  C   C2801     1.0  0.80973  0.71167  0.84019  1.0000
  P   P92       1.0  0.86125  0.71470  0.84303  1.0000
  C   C2802     1.0  0.88163  0.70024  0.85682  1.0000
  C   C2803     1.0  0.87599  0.71240  0.82440  1.0000
  C   C2804     1.0  0.88928  0.73236  0.81718  1.0000
  C   C2805     1.0  0.89995  0.73046  0.80258  1.0000
  C   C2806     1.0  0.89781  0.70853  0.79521  1.0000
  C   C2807     1.0  0.88547  0.68830  0.80256  1.0000
  C   C2808     1.0  0.87481  0.69015  0.81714  1.0000
  C   C2809     1.0  0.87201  0.68867  0.87049  1.0000
  C   C2810     1.0  0.88799  0.67742  0.88105  1.0000
  C   C2811     1.0  0.91364  0.67810  0.87817  1.0000
  C   C2812     1.0  0.92333  0.69021  0.86482  1.0000
  C   C2813     1.0  0.90745  0.70112  0.85413  1.0000
  C   C2814     1.0  0.85601  0.74672  0.84724  1.0000
  C   C2815     1.0  0.84703  0.76400  0.83612  1.0000
  C   C2816     1.0  0.84259  0.78866  0.83942  1.0000
  C   C2817     1.0  0.84709  0.79629  0.85385  1.0000
  C   C2818     1.0  0.85600  0.77926  0.86499  1.0000
  C   C2819     1.0  0.86040  0.75456  0.86174  1.0000
  H   H2233     1.0  0.77050  0.70886  0.83674  1.0000
  H   H2234     1.0  0.77003  0.66310  0.84066  1.0000
  H   H2235     1.0  0.80884  0.64000  0.84694  1.0000
  H   H2236     1.0  0.84798  0.66239  0.84855  1.0000
  H   H2237     1.0  0.80942  0.73156  0.83804  1.0000
  H   H2238     1.0  0.89162  0.74931  0.82280  1.0000
  H   H2239     1.0  0.90999  0.74596  0.79699  1.0000
  H   H2240     1.0  0.90587  0.70705  0.78385  1.0000
  H   H2241     1.0  0.88401  0.67119  0.79689  1.0000
  H   H2242     1.0  0.86580  0.67409  0.82273  1.0000
  H   H2243     1.0  0.85219  0.68815  0.87297  1.0000
  H   H2244     1.0  0.88053  0.66797  0.89141  1.0000
  H   H2245     1.0  0.92612  0.66897  0.88616  1.0000
  H   H2246     1.0  0.94325  0.69047  0.86257  1.0000
  H   H2247     1.0  0.91544  0.70999  0.84376  1.0000
  H   H2248     1.0  0.84329  0.75838  0.82490  1.0000
  H   H2249     1.0  0.83555  0.80185  0.83081  1.0000
  H   H2250     1.0  0.84358  0.81539  0.85643  1.0000
  H   H2251     1.0  0.85941  0.78516  0.87621  1.0000
  H   H2252     1.0  0.86714  0.74170  0.87060  1.0000
  C   C2820     1.0  0.73027  0.76145  0.76844  1.0000
  H   H2253     1.0  0.70418  0.93537  0.89051  1.0000
  H   H2254     1.0  0.88936  0.57611  0.77753  1.0000
  C   C2821     1.0  0.56848  0.87197  0.91793  1.0000
  H   H2255     1.0  0.79062  0.52705  0.81017  1.0000
  C   C2822     1.0  0.89529  0.55996  0.83562  1.0000
  H   H2256     1.0  0.90237  0.57216  0.81216  1.0000
  H   H2257     1.0  0.88404  0.54557  0.85791  1.0000
  C   C2823     1.0  0.57244  0.84577  0.76668  1.0000
  H   H2258     1.0  0.52688  0.82520  0.82589  1.0000
  H   H2259     1.0  0.96412  0.61461  0.97960  1.0000
  C   C2824     1.0  0.78640  0.74774  0.78532  1.0000
  C   C2825     1.0  0.80176  0.74541  0.79774  1.0000
  C   C2826     1.0  0.82170  0.72864  0.79777  1.0000
  C   C2827     1.0  0.50555  0.91870  0.83457  1.0000
  P   P93       1.0  0.77066  0.73488  0.75703  1.0000
  H   H2260     1.0  0.69955  0.78197  0.77799  1.0000
  H   H2261     1.0  0.72696  0.74535  0.77623  1.0000
  P   P94       1.0  0.72592  0.96940  0.93872  1.0000
  C   C2828     1.0  0.51178  0.83303  0.81935  1.0000
  C   C2829     1.0  0.64487  0.98714  0.96891  1.0000
  H   H2262     1.0  0.82197  0.57666  0.75526  1.0000
  H   H2263     1.0  0.97273  0.58562  0.93488  1.0000
  C   C2830     1.0  0.83661  0.51253  0.88609  1.0000
  H   H2264     1.0  0.77097  0.76069  0.78563  1.0000
  H   H2265     1.0  0.79785  0.75629  0.80743  1.0000
  H   H2266     1.0  0.83330  0.72636  0.80746  1.0000
  C   C2831     1.0  0.81108  0.71654  0.77297  1.0000
  H   H2267     1.0  0.81411  0.97908  0.94951  1.0000
  C   C2832     1.0  0.63612  0.98442  0.81530  1.0000
  C   C2833     1.0  0.95436  0.52941  0.83155  1.0000
  C   C2834     1.0  0.71481  0.94458  0.96679  1.0000
  H   H2268     1.0  0.67817  0.88847  0.74202  1.0000
  H   H2269     1.0  0.50321  0.76580  0.83061  1.0000
  C   C2835     1.0  0.79072  0.73302  0.77295  1.0000
  P   P95       1.0  0.49628  0.89521  0.91316  1.0000
  C   C2836     1.0  0.82921  0.49821  0.78545  1.0000
  C   C2837     1.0  0.53589  0.82694  0.85898  1.0000
  C   C2838     1.0  0.55784  0.83724  0.85260  1.0000
  C   C2839     1.0  0.55801  0.86174  0.84641  1.0000
  C   C2840     1.0  0.53600  0.87583  0.84595  1.0000
  C   C2841     1.0  0.51421  0.86568  0.85296  1.0000
  P   P96       1.0  0.53663  0.90778  0.83845  1.0000
  C   C2842     1.0  0.54957  0.92445  0.85320  1.0000
  C   C2843     1.0  0.55450  0.91282  0.82079  1.0000
  C   C2844     1.0  0.56343  0.89294  0.81259  1.0000
  C   C2845     1.0  0.57727  0.89745  0.79897  1.0000
  C   C2846     1.0  0.58211  0.92175  0.79336  1.0000
  C   C2847     1.0  0.57295  0.94165  0.80131  1.0000
  C   C2848     1.0  0.55909  0.93723  0.81494  1.0000
  C   C2849     1.0  0.57348  0.93448  0.85154  1.0000
  S   S382      1.0  0.97718  0.60585  0.90294  1.0000
  C   C2850     1.0  0.64829  0.95792  0.79498  1.0000
  C   C2851     1.0  0.54584  0.93847  0.87871  1.0000
  C   C2852     1.0  0.53597  0.92632  0.86692  1.0000
  H   H2270     1.0  0.68165  0.93782  0.94537  1.0000
  C   C2853     1.0  0.54714  0.89127  0.76429  1.0000
  C   C2854     1.0  0.53380  0.87379  0.89520  1.0000
  C   C2855     1.0  0.98753  0.51610  0.94445  1.0000
  C   C2856     1.0  0.58453  0.86677  0.76013  1.0000
  C   C2857     1.0  0.89730  0.60449  0.75977  1.0000
  C   C2858     1.0  0.63985  0.93711  0.80384  1.0000
  H   H2271     1.0  0.57487  0.82630  0.85252  1.0000
  H   H2272     1.0  0.57539  0.86965  0.84196  1.0000
  H   H2273     1.0  0.99114  0.49663  0.94699  1.0000
  H   H2274     1.0  0.55988  0.87394  0.81658  1.0000
  H   H2275     1.0  0.58431  0.88203  0.79275  1.0000
  H   H2276     1.0  0.59311  0.92507  0.78289  1.0000
  H   H2277     1.0  0.57690  0.96049  0.79700  1.0000
  H   H2278     1.0  0.55217  0.95281  0.82104  1.0000
  C   C2859     1.0  0.95363  0.51859  0.84648  1.0000
  H   H2279     1.0  0.57716  0.95819  0.88611  1.0000
  H   H2280     1.0  0.53480  0.94065  0.88902  1.0000
  H   H2281     1.0  0.51766  0.91849  0.86840  1.0000
  H   H2282     1.0  0.65793  0.97775  0.84478  1.0000
  H   H2283     1.0  0.94138  0.55384  0.93084  1.0000
  C   C2860     1.0  0.54440  0.88078  0.92094  1.0000
  C   C2861     1.0  0.79056  0.92959  0.93324  1.0000
  C   C2862     1.0  0.71653  0.96778  0.95867  1.0000
  Fe  Fe191     1.0  0.64150  0.99110  0.92558  1.0000
  C   C2863     1.0  0.73899  0.66697  0.76781  1.0000
  H   H2284     1.0  0.49718  0.83341  0.86447  1.0000
  H   H2285     1.0  0.52788  0.91357  0.79109  1.0000
  H   H2286     1.0  0.61924  0.96513  0.83534  1.0000
  C   C2864     1.0  0.79862  0.54499  0.84263  1.0000
  H   H2287     1.0  0.77006  0.99220  0.94918  1.0000
  H   H2288     1.0  0.59397  0.85755  0.90115  1.0000
  C   C2865     1.0  0.68738  0.93693  0.93356  1.0000
  C   C2866     1.0  0.95955  0.50691  0.98388  1.0000
  C   C2867     1.0  0.84044  0.54695  0.90206  1.0000
  H   H2289     1.0  0.95083  0.50934  0.93699  1.0000
  C   C2868     1.0  0.70841  0.94300  0.98233  1.0000
  C   C2869     1.0  0.71583  0.68745  0.74761  1.0000
  H   H2290     1.0  0.82737  0.93905  0.93935  1.0000
  H   H2291     1.0  0.57331  0.96466  0.97812  1.0000
  H   H2292     1.0  0.72996  0.95936  0.90672  1.0000
  H   H2293     1.0  0.49727  0.87654  0.85361  1.0000
  C   C2870     1.0  0.58168  0.99072  0.95936  1.0000
  H   H2294     1.0  0.73755  0.53275  0.83874  1.0000
  C   C2871     1.0  0.50068  0.94266  0.79288  1.0000
  S   S383      1.0  0.64640  0.97542  0.95033  1.0000
  H   H2295     1.0  0.95780  0.49472  0.97480  1.0000
  C   C2872     1.0  0.64642  0.98150  0.80065  1.0000
  C   C2873     1.0  0.89397  0.61237  0.74460  1.0000
  H   H2296     1.0  0.58102  0.90553  0.75328  1.0000
  H   H2297     1.0  0.83511  0.50903  0.91057  1.0000
  C   C2874     1.0  0.78586  0.58531  0.74709  1.0000
  C   C2875     1.0  0.81041  0.57695  0.74551  1.0000
  H   H2298     1.0  0.65305  0.73592  0.74502  1.0000
  C   C2876     1.0  0.99059  0.61797  0.96054  1.0000
  S   S384      1.0  0.66731  0.99178  0.90453  1.0000
  C   C2877     1.0  0.73153  0.70786  0.74739  1.0000
  H   H2299     1.0  0.49607  0.88624  0.82305  1.0000
  C   C2878     1.0  0.65673  0.82948  0.74408  1.0000
  H   H2300     1.0  0.94899  0.56753  0.99096  1.0000
  H   H2301     1.0  0.50857  0.85662  0.93746  1.0000
  H   H2302     1.0  0.53116  0.98727  0.86699  1.0000
  H   H2303     1.0  0.70654  0.92506  0.98847  1.0000
  C   C2879     1.0  0.70420  0.96460  0.98996  1.0000
  H   H2304     1.0  0.80995  0.76880  0.74581  1.0000
  Fe  Fe192     1.0  0.99155  0.62266  0.88030  1.0000
  C   C2880     1.0  0.49919  0.92576  0.92029  1.0000
