data_image0
_chemical_formula_structural       FeS2FeS2FeSFeS3FeS2FeS2FeSFeS3FeS2FeS2FeSFeCS2C5H2C2H2C7H4CSCH2C3HC2HC2HC6H4C3H3CH2C7PC17H16C6PCH3CH2CH3C7H2C2HCHCH5C2H3C2H4C4PCHC8H2C2H2CHCH3C3HC3HCH2CPHCH2C2HCHC3H3C3H6C2HC3H2CPCHC2H4CHC9H5CH5C7HC5HC2HCHC2HCH5CHCH2C3HC5H2C4HCH2C2H2CH2C2HC2H4FeS2FeS2FeSFeS3FeS2FeS2FeSFeS3CFeS2FeSCFeSFeS3CPCH2C4H2C4HCH4C6H4C6H4C2H4C2H2C2H2CHC4H2CH2CHCHC2H3CHC3HC3PCHC5HC2H3CH2CH3C3PH4CH2CHC6PC17H8C2H7C3PC18H18C2H2C2HC10H4CH2SC2HCH2C3HC6H2CH4C5H3CHCSCH4CH5C5PC3H2CHCHC2H2CPCHC2HCH4CHC3HCHC4HCH2C2H5C2HC5HCH4C3HFeS2FeS2FeSFeS3FeS2FeS2FeSFeS3FeS2FeS2FeSFeS3C3H2C2H3C3HCH3C2H5C2HC6H6CH2C4H2C2H2C6H4CHPC13H3C3H6C6PC18H20C2HC3PC3HCH2CH3CHCH3CHC2H5CH3CHCHC2H4CH2C3HCHCH2CH2C4HCHC2HC5H4C4H4C2HC2HCHC2HCHC2HCH2C4HC2PC2HC2HC2H2CHC3HCH2CH3PC4HC2H2CHPH4C2HC11HCHPC5H2CHCHC4HFeS2FeS2FeSFeS3FeS2FeS2FeSFeS3FeS2FeS2FeSFeS3H3CHC2HC2H3C4HC6H4C6H5C2H2C4H2C2H3C3HC4HPH3CH2CH3CH2CH2C3H4C3H2CHCHCHC2HC2HC5H2C2HPHCHC4HC2HCH2CHC2PCH2C2H2C3HC3HCHC7H2C3HC4H2C3HC4H3CH2CH7C2HC10H6CHCH3C2HC3H2CH4CHCH2C6PC4HC11H14CH3CH2C3PC4H4PC2HC7H4C3H2C2HC2H2C2HCHC2HC4HC2H4CH3C2HCHC3HC3HCH4CHFeSFeS2FeSFeS3FeS2FeS2FeSFeS3C4HC2HCH3C3H2C6H5C3H4C5H6C2HPH5C3HC3H3C4H2CH2C4H2CH2CHCH2CHCH3CH3C2H2CHCSHC8HCH2C2H3CH4C3HC4H2C6PC5HC3HC8H3C4H6PC2H3FeS2FeS2Fe2S3FeS2FeS2FeSFeS3C2HCH2CHC2H5C4HC7H4C2H2CH2CH7C2HCPHC3H4C5HCHC2PHCHC3HCHC5HCH2C3H3C10HCH4CH2CHC2H2CHCHCH2C2HPC2HCHC2H3C2H3C3HC2HC2H3C7H2CH2C3HC2H2CFeSHFeS2FeSFeS3FeS2FeS2FeSFeS3HSH3CH3CH2PC2HC6H4C4H6C2H4C5HCH2CPC2H5CHC3HC4HCHC2H5C2HCH5CH2CH2C2HC3HCHCH2C2H3C7PCHC11H2C2HC5HC5HC4H2C2HC3HC3H2CH5C3HCHCHC2FeS2FeS2FeSFeHS2FeS2FeS2FeSFeS3C2HC6H4C4H3C3HC4H4C2HCPHPC4H3C5H3C4H9CH3CHC4HC3HC5HC2H6CHCH2SCH2CHCHC10HC6H4CH7C3H2CH2C3HC5H2CPH3C5H2CHC2HCHC3H3C4FeS2FeS2FeSFeS3FeS2FeS2FeSFeS3FeS2FeS2FeSFeS3HC2HC4H2C6H4C3H2C6H4CHC6H4C6HCH2CHC5H3CHC2H2CHCHC2H2CH3C3HC2HCH3C2HC7HC10HCH3CHCH2CHCH3CHC2HCH5C2HCH3C6PC7PC2H2C2H2C3H2CH11CHCHCH2CHCPC2HC2HPC5HC9H3CHC2HCH2C5HC2PHC8HC8HC3H2C2H4PH5CHCH6CH2C2HC2HC2HCH4CH3C3HC3HPH2C2H7C3HC3HC2H2C2HC3H4C2HCH3FeS2FeS2FeSFeS3FeS2FeS2FeSFeS3FeS2FeS2FeSFeS3C6H4C6H4C3HC5H3CH2C5H4C5H4C2H3CHCHC4H4CHC2HC14PC18H19C2H3C3HCH2CHC2H2C2HC2H3C2H2C7H2C5HCHC4HCH3CHCH3CH4C2HC3H2C2H2C4HCH2CH2C3H3C6H3CH3C4PC16HCH2PH13PHCH3CHC4H2CHCHCHC5HPHC6H2CH2CH6C2H3C3HC2HCH3CH2PFeS2FeS2FeSFeS3FeS2FeS2FeSFeS3FeS2FeS2FeSFeS3CH2CHC4HCH8C6H5CH3C2H2C2H3C7H5C2H2CHCHC4HCH3CH3C2HCH4C7PC18H16CH4C3HC3HC4HC2H2CHC2HC2PCH2CH7CH2C4H3CHC2H2C4H3C2HCHC2H2C8PC8H2C8H11CH6C6PC2HC12H5CHPHCH2CH3C2H4C2H2C3H2C2H2CHC2HC6H2C3HPCH2C2H2CHC3H2C4HCHC2FeS2FeS2FeSFeS3FeS2FeS2FeSFeS3FeS2FeS2FeSFeS3C3HC2H4C6H4C6H5CHCHC2HC4HC3H3CH3CHCH3C5HC3PC6HC7HCHCH11PCHCHCHCH2CHCHC3HCHC5H3CHC5HCH3CHCH2C2H2C3H3CH2C4HC3PC18H2C2H12CH3C2HC2HPC10HC9HCH8C2H4C4HCHCHC2H4CHCHC3PC2H2CHC3H4C3HCH3C3HCHC2H4C6PC4HC13H5CHC2H11C2HC2PCH2CH5CH3CHC4HCHC2HC5HCHCHCHCHPHC2HC3H
_chemical_formula_sum              "Fe128 S256 C1920 H1536 P64"
_cell_length_a       68.7287
_cell_length_b       68.5394
_cell_length_c       40.2778
_cell_angle_alpha    90.0317
_cell_angle_beta     89.9615
_cell_angle_gamma    85.1585

_space_group_name_H-M_alt    "P 1"
_space_group_IT_number       1

loop_
  _space_group_symop_operation_xyz
  'x, y, z'

loop_
  _atom_site_type_symbol
  _atom_site_label
  _atom_site_symmetry_multiplicity
  _atom_site_fract_x
  _atom_site_fract_y
  _atom_site_fract_z
  _atom_site_occupancy
  Fe  Fe1       1.0  0.22836  0.10147  0.18301  1.0000
  S   S1        1.0  0.20461  0.08413  0.20289  1.0000
  S   S2        1.0  0.25275  0.10937  0.21825  1.0000
  Fe  Fe2       1.0  0.20792  0.10638  0.11390  1.0000
  S   S3        1.0  0.18296  0.08932  0.13017  1.0000
  S   S4        1.0  0.21247  0.12018  0.06234  1.0000
  Fe  Fe3       1.0  0.18337  0.10691  0.17839  1.0000
  S   S5        1.0  0.15676  0.11953  0.20982  1.0000
  Fe  Fe4       1.0  0.20616  0.06831  0.15374  1.0000
  S   S6        1.0  0.21487  0.03575  0.14380  1.0000
  S   S7        1.0  0.20716  0.12493  0.16078  1.0000
  S   S8        1.0  0.23103  0.08484  0.13528  1.0000
  Fe  Fe5       1.0  0.08432  0.21802  0.28433  1.0000
  S   S9        1.0  0.09343  0.23899  0.32411  1.0000
  S   S10       1.0  0.10647  0.20053  0.24896  1.0000
  Fe  Fe6       1.0  0.04075  0.23396  0.29211  1.0000
  S   S11       1.0  0.04741  0.25537  0.33172  1.0000
  S   S12       1.0  0.01029  0.23706  0.26889  1.0000
  Fe  Fe7       1.0  0.07276  0.26211  0.29945  1.0000
  S   S13       1.0  0.07860  0.29450  0.29376  1.0000
  Fe  Fe8       1.0  0.06723  0.23094  0.35365  1.0000
  S   S14       1.0  0.06428  0.22258  0.40915  1.0000
  S   S15       1.0  0.06521  0.24194  0.25865  1.0000
  S   S16       1.0  0.05908  0.20863  0.31514  1.0000
  Fe  Fe9       1.0  0.07842  0.42899  0.15394  1.0000
  S   S17       1.0  0.04951  0.44002  0.13325  1.0000
  S   S18       1.0  0.10205  0.45039  0.15864  1.0000
  Fe  Fe10      1.0  0.06666  0.38630  0.16100  1.0000
  S   S19       1.0  0.03690  0.39515  0.14028  1.0000
  S   S20       1.0  0.07038  0.35283  0.16877  1.0000
  Fe  Fe11      1.0  0.05174  0.41267  0.10222  1.0000
  S   S21       1.0  0.03997  0.41773  0.04990  1.0000
  Fe  Fe12      1.0  0.03728  0.42166  0.17268  1.0000
  C   C1        1.0  0.31780  0.01761  0.45427  1.0000
  S   S22       1.0  0.08176  0.40239  0.12021  1.0000
  S   S23       1.0  0.06606  0.41204  0.19633  1.0000
  C   C2        1.0  0.00500  0.31026  0.29451  1.0000
  C   C3        1.0  0.01027  0.18579  0.43372  1.0000
  C   C4        1.0  0.13778  0.17457  0.99773  1.0000
  C   C5        1.0  0.01536  0.30997  0.19136  1.0000
  C   C6        1.0  0.04129  0.48661  0.08634  1.0000
  H   H1        1.0  0.07131  0.38714  0.03511  1.0000
  H   H2        1.0  0.30818  0.13104  0.06257  1.0000
  C   C7        1.0  0.06991  0.23214  0.44923  1.0000
  C   C8        1.0  0.07861  0.24974  0.45340  1.0000
  H   H3        1.0  0.01414  0.18059  0.40894  1.0000
  H   H4        1.0  0.08227  0.25805  0.43179  1.0000
  C   C9        1.0  0.01191  0.37453  0.05652  1.0000
  C   C10       1.0  0.07510  0.31057  0.25892  1.0000
  C   C11       1.0  0.07652  0.33079  0.26348  1.0000
  C   C12       1.0  0.07470  0.34400  0.23647  1.0000
  C   C13       1.0  0.07170  0.33712  0.20430  1.0000
  C   C14       1.0  0.07004  0.31693  0.19981  1.0000
  C   C15       1.0  0.07155  0.30376  0.22690  1.0000
  H   H5        1.0  0.07924  0.33629  0.28808  1.0000
  H   H6        1.0  0.07606  0.35944  0.24045  1.0000
  H   H7        1.0  0.06774  0.31139  0.17511  1.0000
  H   H8        1.0  0.07038  0.28830  0.22289  1.0000
  C   C16       1.0  0.20789  0.11348  0.02020  1.0000
  S   S24       1.0  0.01012  0.43297  0.20014  1.0000
  C   C17       1.0  0.18208  0.00407  0.07070  1.0000
  H   H9        1.0  0.30742  0.05492  0.39952  1.0000
  H   H10       1.0  0.18942  0.09052  0.03128  1.0000
  C   C18       1.0  0.27701  0.09899  0.22601  1.0000
  C   C19       1.0  0.28580  0.08334  0.20751  1.0000
  C   C20       1.0  0.30515  0.07585  0.21467  1.0000
  H   H11       1.0  0.12549  0.28406  0.30991  1.0000
  C   C21       1.0  0.30719  0.09958  0.25854  1.0000
  C   C22       1.0  0.28782  0.10695  0.25163  1.0000
  H   H12       1.0  0.27774  0.07704  0.18772  1.0000
  C   C23       1.0  0.03000  0.36762  0.06960  1.0000
  C   C24       1.0  0.18480  0.03846  0.05924  1.0000
  H   H13       1.0  0.28121  0.11905  0.26611  1.0000
  C   C25       1.0  0.14329  0.14241  0.22058  1.0000
  C   C26       1.0  0.14641  0.16021  0.20515  1.0000
  C   C27       1.0  0.13516  0.17772  0.21427  1.0000
  C   C28       1.0  0.12060  0.17788  0.23905  1.0000
  C   C29       1.0  0.11755  0.16009  0.25457  1.0000
  C   C30       1.0  0.12871  0.14258  0.24531  1.0000
  H   H14       1.0  0.15756  0.16048  0.18628  1.0000
  H   H15       1.0  0.13776  0.19128  0.20202  1.0000
  H   H16       1.0  0.10643  0.15976  0.27352  1.0000
  H   H17       1.0  0.12601  0.12900  0.25747  1.0000
  C   C31       1.0  0.26971  0.06319  0.09330  1.0000
  C   C32       1.0  0.20452  0.01345  0.15292  1.0000
  C   C33       1.0  0.18605  0.01289  0.16730  1.0000
  H   H18       1.0  0.32369  0.14048  0.01026  1.0000
  H   H19       1.0  0.17766  0.02642  0.17381  1.0000
  H   H20       1.0  0.20956  0.25738  0.34546  1.0000
  C   C34       1.0  0.10071  0.47638  0.15386  1.0000
  H   H21       1.0  0.29113  0.03021  0.43203  1.0000
  H   H22       1.0  0.23084  0.04127  0.06295  1.0000
  C   C35       1.0  0.00310  0.34342  0.25094  1.0000
  C   C36       1.0  0.09097  0.17621  0.17268  1.0000
  C   C37       1.0  0.08464  0.19571  0.16617  1.0000
  C   C38       1.0  0.09105  0.20482  0.13762  1.0000
  C   C39       1.0  0.10393  0.19445  0.11572  1.0000
  C   C40       1.0  0.11045  0.17482  0.12217  1.0000
  C   C41       1.0  0.10393  0.16582  0.15099  1.0000
  P   P1        1.0  0.12906  0.16238  0.09610  1.0000
  C   C42       1.0  0.15275  0.16884  0.10977  1.0000
  C   C43       1.0  0.12797  0.13620  0.09948  1.0000
  C   C44       1.0  0.13612  0.12623  0.12722  1.0000
  C   C45       1.0  0.13450  0.10617  0.13106  1.0000
  C   C46       1.0  0.12527  0.09575  0.10674  1.0000
  C   C47       1.0  0.11739  0.10547  0.07870  1.0000
  C   C48       1.0  0.11860  0.12565  0.07514  1.0000
  C   C49       1.0  0.16971  0.15707  0.10104  1.0000
  C   C50       1.0  0.18806  0.16238  0.11077  1.0000
  C   C51       1.0  0.18963  0.17912  0.13005  1.0000
  C   C52       1.0  0.17284  0.19078  0.13918  1.0000
  C   C53       1.0  0.15448  0.18577  0.12891  1.0000
  C   C54       1.0  0.12514  0.16928  0.05313  1.0000
  C   C55       1.0  0.10605  0.17312  0.04090  1.0000
  C   C56       1.0  0.31384  0.02874  0.25036  1.0000
  C   C57       1.0  0.14098  0.16992  0.03121  1.0000
  C   C58       1.0  0.04080  0.47136  0.06346  1.0000
  H   H23       1.0  0.07520  0.20388  0.18383  1.0000
  H   H24       1.0  0.08639  0.22007  0.13300  1.0000
  H   H25       1.0  0.10929  0.20195  0.09436  1.0000
  H   H26       1.0  0.10918  0.15102  0.15757  1.0000
  H   H27       1.0  0.14341  0.13404  0.14625  1.0000
  H   H28       1.0  0.14044  0.09873  0.15306  1.0000
  H   H29       1.0  0.12419  0.08016  0.10975  1.0000
  H   H30       1.0  0.11019  0.09737  0.05989  1.0000
  H   H31       1.0  0.11214  0.13287  0.05349  1.0000
  H   H32       1.0  0.16885  0.14384  0.08651  1.0000
  H   H33       1.0  0.20109  0.15336  0.10355  1.0000
  H   H34       1.0  0.20385  0.18300  0.13799  1.0000
  H   H35       1.0  0.17400  0.20370  0.15433  1.0000
  H   H36       1.0  0.14175  0.19504  0.13648  1.0000
  H   H37       1.0  0.09359  0.17231  0.05720  1.0000
  H   H38       1.0  0.15584  0.16673  0.03967  1.0000
  C   C59       1.0  0.24748  0.04553  0.23437  1.0000
  C   C60       1.0  0.23820  0.02816  0.23352  1.0000
  C   C61       1.0  0.24493  0.01240  0.25365  1.0000
  C   C62       1.0  0.26069  0.01414  0.27516  1.0000
  C   C63       1.0  0.26958  0.03184  0.27707  1.0000
  C   C64       1.0  0.26317  0.04733  0.25591  1.0000
  P   P2        1.0  0.28943  0.03452  0.30574  1.0000
  C   C65       1.0  0.28590  0.01873  0.34091  1.0000
  H   H39       1.0  0.02551  0.47482  0.17537  1.0000
  H   H40       1.0  0.31241  0.06413  0.08225  1.0000
  H   H41       1.0  0.31182  0.06383  0.20012  1.0000
  C   C66       1.0  0.06617  0.39392  0.01214  1.0000
  H   H42       1.0  0.00057  0.21111  0.32338  1.0000
  H   H43       1.0  0.01117  0.38628  0.03842  1.0000
  C   C67       1.0  0.27004  0.02314  0.36244  1.0000
  H   H44       1.0  0.22831  0.07137  0.02817  1.0000
  H   H45       1.0  0.26572  0.00175  0.29047  1.0000
  H   H46       1.0  0.13184  0.47656  0.15869  1.0000
  C   C68       1.0  0.30243  0.01121  0.16537  1.0000
  C   C69       1.0  0.28797  0.05950  0.32102  1.0000
  C   C70       1.0  0.26974  0.07006  0.32586  1.0000
  C   C71       1.0  0.26866  0.08932  0.33769  1.0000
  C   C72       1.0  0.28572  0.09812  0.34531  1.0000
  C   C73       1.0  0.30388  0.08772  0.34083  1.0000
  C   C74       1.0  0.30501  0.06861  0.32839  1.0000
  H   H47       1.0  0.24247  0.05769  0.21843  1.0000
  H   H48       1.0  0.02328  0.45548  0.03109  1.0000
  C   C75       1.0  0.08271  0.25659  0.48565  1.0000
  C   C76       1.0  0.30681  0.12220  0.04050  1.0000
  H   H49       1.0  0.27010  0.06094  0.25639  1.0000
  C   C77       1.0  0.29786  0.00130  0.34584  1.0000
  H   H50       1.0  0.08954  0.27015  0.48837  1.0000
  C   C78       1.0  0.20741  0.23418  0.38104  1.0000
  H   H51       1.0  0.05401  0.46219  0.05784  1.0000
  H   H52       1.0  0.30096  0.03198  0.23530  1.0000
  H   H53       1.0  0.26024  0.03615  0.35872  1.0000
  H   H54       1.0  0.03552  0.31454  0.28642  1.0000
  H   H55       1.0  0.31538  0.10616  0.27788  1.0000
  C   C79       1.0  0.03110  0.35316  0.09409  1.0000
  C   C80       1.0  0.01160  0.38284  0.24915  1.0000
  H   H56       1.0  0.25632  0.06361  0.31998  1.0000
  H   H57       1.0  0.25458  0.09753  0.34054  1.0000
  H   H58       1.0  0.28491  0.11309  0.35419  1.0000
  C   C81       1.0  0.19930  0.01373  0.02166  1.0000
  C   C82       1.0  0.02468  0.31014  0.30385  1.0000
  H   H59       1.0  0.19312  0.19342  0.21750  1.0000
  H   H60       1.0  0.17550  0.14816  0.28165  1.0000
  H   H61       1.0  0.26984  0.10976  0.14651  1.0000
  H   H62       1.0  0.25405  0.01401  0.40493  1.0000
  C   C83       1.0  0.26210  0.13448  0.07356  1.0000
  C   C84       1.0  0.25041  0.15065  0.08556  1.0000
  C   C85       1.0  0.01855  0.25705  0.43399  1.0000
  C   C86       1.0  0.02639  0.29825  0.16856  1.0000
  P   P3        1.0  0.99787  0.31798  0.25308  1.0000
  C   C87       1.0  0.01410  0.34544  0.10526  1.0000
  H   H63       1.0  0.24417  0.16163  0.06844  1.0000
  C   C88       1.0  0.02046  0.34874  0.23624  1.0000
  C   C89       1.0  0.99475  0.42490  0.14006  1.0000
  C   C90       1.0  0.29496  0.09411  0.01282  1.0000
  C   C91       1.0  0.05138  0.40923  0.01267  1.0000
  C   C92       1.0  0.30497  0.09157  0.10772  1.0000
  C   C93       1.0  0.25358  0.13767  0.14128  1.0000
  C   C94       1.0  0.26725  0.01549  0.16905  1.0000
  C   C95       1.0  0.28500  0.02299  0.16172  1.0000
  H   H64       1.0  0.25371  0.02461  0.16591  1.0000
  H   H65       1.0  0.28525  0.03798  0.15354  1.0000
  C   C96       1.0  0.06533  0.22163  0.47792  1.0000
  C   C97       1.0  0.26493  0.12128  0.12929  1.0000
  H   H66       1.0  0.02955  0.30390  0.14426  1.0000
  H   H67       1.0  0.08249  0.42442  0.04704  1.0000
  C   C98       1.0  0.20178  0.24492  0.35262  1.0000
  H   H68       1.0  0.20196  0.20956  0.41193  1.0000
  C   C99       1.0  0.99481  0.37760  0.26537  1.0000
  H   H69       1.0  0.00922  0.42583  0.13020  1.0000
  H   H70       1.0  0.25156  0.09641  0.03583  1.0000
  H   H71       1.0  0.03117  0.33782  0.22628  1.0000
  C   C100      1.0  0.01702  0.29783  0.35826  1.0000
  C   C101      1.0  0.18533  0.16923  0.24727  1.0000
  C   C102      1.0  0.01227  0.30308  0.22360  1.0000
  H   H72       1.0  0.08644  0.16938  0.19540  1.0000
  C   C103      1.0  0.17609  0.16359  0.27618  1.0000
  C   C104      1.0  0.11821  0.48541  0.15514  1.0000
  C   C105      1.0  0.25637  0.04906  0.08893  1.0000
  H   H73       1.0  0.03770  0.37237  0.22272  1.0000
  C   C106      1.0  0.31605  0.08401  0.24004  1.0000
  H   H74       1.0  0.31047  0.00719  0.46892  1.0000
  H   H75       1.0  0.04593  0.30370  0.34233  1.0000
  C   C107      1.0  0.08319  0.48821  0.14929  1.0000
  P   P4        1.0  0.15606  0.21628  0.31758  1.0000
  H   H76       1.0  0.18211  0.05369  0.06645  1.0000
  C   C108      1.0  0.01264  0.20974  0.47749  1.0000
  H   H77       1.0  0.23789  0.99884  0.25253  1.0000
  H   H78       1.0  0.20039  0.04484  0.01472  1.0000
  C   C109      1.0  0.03331  0.27917  0.17708  1.0000
  C   C110      1.0  0.01732  0.20301  0.44545  1.0000
  H   H79       1.0  0.02179  0.29266  0.38258  1.0000
  C   C111      1.0  0.02932  0.27185  0.20845  1.0000
  H   H80       1.0  0.04312  0.37396  0.06158  1.0000
  C   C112      1.0  0.01906  0.28380  0.23178  1.0000
  C   C113      1.0  0.24154  0.05192  0.06532  1.0000
  C   C114      1.0  0.08880  0.43805  0.04200  1.0000
  H   H81       1.0  0.19186  0.15813  0.23051  1.0000
  H   H82       1.0  0.17066  0.02767  0.10239  1.0000
  H   H83       1.0  0.04172  0.27003  0.15941  1.0000
  C   C115      1.0  0.29622  0.10557  0.04154  1.0000
  C   C116      1.0  0.18588  0.18909  0.23986  1.0000
  C   C117      1.0  0.13306  0.21579  0.37474  1.0000
  H   H84       1.0  0.05879  0.20791  0.47521  1.0000
  H   H85       1.0  0.22594  0.02686  0.21689  1.0000
  H   H86       1.0  0.12749  0.18751  0.30646  1.0000
  H   H87       1.0  0.28035  0.06126  0.11289  1.0000
  H   H88       1.0  0.18217  0.24789  0.31115  1.0000
  H   H89       1.0  0.03424  0.25735  0.43650  1.0000
  C   C118      1.0  0.19751  0.21799  0.39006  1.0000
  C   C119      1.0  0.17592  0.22356  0.34264  1.0000
  H   H90       1.0  0.16059  0.17303  0.32022  1.0000
  C   C120      1.0  0.26985  0.11990  0.09549  1.0000
  C   C121      1.0  0.15058  0.48308  0.05599  1.0000
  C   C122      1.0  0.19519  0.03344  0.03023  1.0000
  H   H91       1.0  0.10127  0.43960  0.09076  1.0000
  H   H92       1.0  0.22945  0.99599  0.13354  1.0000
  C   C123      1.0  0.16731  0.17778  0.29767  1.0000
  P   P5        1.0  0.28497  0.09903  0.07997  1.0000
  C   C124      1.0  0.99736  0.29805  0.34930  1.0000
  H   H93       1.0  0.26467  0.13322  0.04711  1.0000
  C   C125      1.0  0.16718  0.19777  0.28983  1.0000
  C   C126      1.0  0.02322  0.46755  0.04835  1.0000
  H   H94       1.0  0.11425  0.21641  0.41782  1.0000
  H   H95       1.0  0.04510  0.34845  0.10522  1.0000
  H   H96       1.0  0.01473  0.39808  0.24783  1.0000
  H   H97       1.0  0.01636  0.27786  0.25610  1.0000
  C   C127      1.0  0.19601  0.09859  0.01179  1.0000
  H   H98       1.0  0.14433  0.25653  0.33809  1.0000
  C   C128      1.0  0.12698  0.25073  0.24733  1.0000
  C   C129      1.0  0.12286  0.26844  0.26410  1.0000
  C   C130      1.0  0.12943  0.27054  0.29661  1.0000
  C   C131      1.0  0.14011  0.25492  0.31241  1.0000
  C   C132      1.0  0.14453  0.23712  0.29557  1.0000
  C   C133      1.0  0.13773  0.23513  0.26300  1.0000
  C   C134      1.0  0.10628  0.19533  0.38182  1.0000
  C   C135      1.0  0.10996  0.18731  0.35034  1.0000
  C   C136      1.0  0.12524  0.19344  0.33111  1.0000
  H   H99       1.0  0.12123  0.24884  0.22262  1.0000
  H   H100      1.0  0.11401  0.28037  0.25235  1.0000
  H   H101      1.0  0.28728  0.08097  0.01305  1.0000
  H   H102      1.0  0.14005  0.22131  0.25002  1.0000
  H   H103      1.0  0.09418  0.19086  0.39647  1.0000
  C   C137      1.0  0.18617  0.23957  0.33333  1.0000
  H   H104      1.0  0.17768  0.21865  0.25522  1.0000
  H   H105      1.0  0.17448  0.19989  0.37789  1.0000
  H   H106      1.0  0.11571  0.47056  0.08043  1.0000
  H   H107      1.0  0.03416  0.25689  0.21489  1.0000
  H   H108      1.0  0.08815  0.18084  0.99819  1.0000
  C   C138      1.0  0.25337  0.08303  0.05027  1.0000
  C   C139      1.0  0.24633  0.15234  0.11946  1.0000
  C   C140      1.0  0.10598  0.47294  0.02906  1.0000
  C   C141      1.0  0.13714  0.20745  0.34335  1.0000
  C   C142      1.0  0.01081  0.24910  0.40545  1.0000
  C   C143      1.0  0.30679  0.03066  0.43352  1.0000
  C   C144      1.0  0.18189  0.21261  0.37083  1.0000
  H   H109      1.0  0.14137  0.22734  0.38411  1.0000
  C   C145      1.0  0.11771  0.20967  0.39393  1.0000
  C   C146      1.0  0.17698  0.20332  0.26116  1.0000
  C   C147      1.0  0.26848  0.08017  0.07369  1.0000
  C   C148      1.0  0.03062  0.30405  0.33563  1.0000
  C   C149      1.0  0.17827  0.02378  0.07943  1.0000
  H   H110      1.0  0.25013  0.13880  0.16751  1.0000
  C   C150      1.0  0.09948  0.44658  0.06670  1.0000
  C   C151      1.0  0.02446  0.36839  0.23478  1.0000
  H   H111      1.0  0.02053  0.24327  0.38594  1.0000
  C   C152      1.0  0.31594  0.04461  0.41525  1.0000
  H   H112      1.0  0.10068  0.17669  0.34044  1.0000
  C   C153      1.0  0.00586  0.47881  0.05639  1.0000
  C   C154      1.0  0.00607  0.26460  0.45915  1.0000
  H   H113      1.0  0.21951  0.23834  0.39595  1.0000
  C   C155      1.0  0.24007  0.06888  0.04594  1.0000
  H   H114      1.0  0.06966  0.48129  0.14840  1.0000
  H   H115      1.0  0.31717  0.09462  0.34625  1.0000
  H   H116      1.0  0.25690  0.03626  0.10475  1.0000
  H   H117      1.0  0.01516  0.33486  0.12515  1.0000
  H   H118      1.0  0.23726  0.16481  0.12879  1.0000
  C   C156      1.0  0.16519  0.48502  0.07964  1.0000
  H   H119      1.0  0.02674  0.21101  0.42982  1.0000
  C   C157      1.0  0.10786  0.46408  0.06050  1.0000
  H   H120      1.0  0.17594  0.47287  0.08452  1.0000
  H   H121      1.0  0.01216  0.27090  0.48112  1.0000
  C   C158      1.0  0.19249  0.99885  0.04155  1.0000
  C   C159      1.0  0.99843  0.17525  0.45404  1.0000
  C   C160      1.0  0.10291  0.17781  0.00742  1.0000
  H   H122      1.0  0.31924  0.06125  0.32409  1.0000
  C   C161      1.0  0.26689  0.99642  0.18121  1.0000
  C   C162      1.0  0.31266  0.02876  0.28518  1.0000
  C   C163      1.0  0.02104  0.49040  0.17636  1.0000
  C   C164      1.0  0.99486  0.36678  0.06756  1.0000
  C   C165      1.0  0.31598  0.07360  0.10249  1.0000
  H   H123      1.0  0.00954  0.32450  0.18404  1.0000
  H   H124      1.0  0.15022  0.46939  0.04262  1.0000
  C   C166      1.0  0.31562  0.12757  0.01094  1.0000
  C   C167      1.0  0.32639  0.09817  0.15374  1.0000
  C   C168      1.0  0.08598  0.44728  0.01126  1.0000
  C   C169      1.0  0.26640  0.01055  0.38862  1.0000
  H   H125      1.0  0.20809  0.01016  0.99984  1.0000
  C   C170      1.0  0.99586  0.35195  0.09172  1.0000
  H   H126      1.0  0.99365  0.36798  0.15349  1.0000
  H   H127      1.0  0.22532  0.13544  0.00029  1.0000
  C   C171      1.0  0.09422  0.46489  0.00500  1.0000
  C   C172      1.0  0.17829  0.99475  0.17285  1.0000
  H   H128      1.0  0.30347  0.11855  0.13638  1.0000
  H   H129      1.0  0.16391  0.99448  0.18372  1.0000
  C   C173      1.0  0.31081  0.10414  0.13276  1.0000
  H   H130      1.0  0.31616  0.01695  0.15906  1.0000
  H   H131      1.0  0.05500  0.48963  0.09759  1.0000
  C   C174      1.0  0.21616  0.12386  0.99426  1.0000
  C   C175      1.0  0.99361  0.18197  0.48604  1.0000
  H   H132      1.0  0.01858  0.22298  0.48591  1.0000
  C   C176      1.0  0.21518  0.99568  0.14465  1.0000
  C   C177      1.0  0.99541  0.28484  0.10929  1.0000
  H   H133      1.0  0.00539  0.27523  0.09468  1.0000
  H   H134      1.0  0.30982  0.99702  0.32935  1.0000
  H   H135      1.0  0.23073  0.99454  0.06016  1.0000
  H   H136      1.0  0.99872  0.30992  0.07851  1.0000
  Fe  Fe13      1.0  0.07558  0.24726  0.60804  1.0000
  S   S25       1.0  0.06084  0.22042  0.62200  1.0000
  S   S26       1.0  0.08407  0.25537  0.55452  1.0000
  Fe  Fe14      1.0  0.07150  0.26452  0.67995  1.0000
  S   S27       1.0  0.05633  0.23837  0.69706  1.0000
  S   S28       1.0  0.07155  0.28679  0.72296  1.0000
  Fe  Fe15      1.0  0.07963  0.21974  0.66884  1.0000
  S   S29       1.0  0.09391  0.19057  0.69146  1.0000
  Fe  Fe16      1.0  0.03922  0.24120  0.64962  1.0000
  S   S30       1.0  0.00653  0.24817  0.64086  1.0000
  S   S31       1.0  0.09550  0.24577  0.65345  1.0000
  S   S32       1.0  0.05334  0.26809  0.63380  1.0000
  Fe  Fe17      1.0  0.20171  0.10556  0.85479  1.0000
  S   S33       1.0  0.17646  0.10386  0.81901  1.0000
  S   S34       1.0  0.19468  0.09917  0.90990  1.0000
  Fe  Fe18      1.0  0.23120  0.10791  0.79607  1.0000
  S   S35       1.0  0.20775  0.10631  0.75752  1.0000
  S   S36       1.0  0.26444  0.10752  0.78676  1.0000
  Fe  Fe19      1.0  0.18891  0.12779  0.78916  1.0000
  S   S37       1.0  0.17240  0.15650  0.76860  1.0000
  Fe  Fe20      1.0  0.19686  0.08262  0.79009  1.0000
  S   S38       1.0  0.18976  0.05418  0.76477  1.0000
  S   S39       1.0  0.21329  0.13079  0.82674  1.0000
  S   S40       1.0  0.22122  0.08307  0.82683  1.0000
  C   C178      1.0  0.19021  0.00955  0.83229  1.0000
  Fe  Fe21      1.0  0.07127  0.40294  0.86543  1.0000
  S   S41       1.0  0.09653  0.40757  0.83149  1.0000
  S   S42       1.0  0.07786  0.38677  0.91372  1.0000
  Fe  Fe22      1.0  0.04216  0.42233  0.81702  1.0000
  S   S43       1.0  0.06511  0.42813  0.77997  1.0000
  C   C179      1.0  0.01264  0.36666  0.77892  1.0000
  Fe  Fe23      1.0  0.07733  0.39712  0.79072  1.0000
  S   S44       1.0  0.08713  0.37675  0.74731  1.0000
  Fe  Fe24      1.0  0.08163  0.43798  0.82409  1.0000
  S   S45       1.0  0.09696  0.46624  0.82837  1.0000
  S   S46       1.0  0.05301  0.39084  0.82505  1.0000
  S   S47       1.0  0.05782  0.43380  0.86075  1.0000
  C   C180      1.0  0.02071  0.23625  0.54878  1.0000
  P   P6        1.0  0.99556  0.20687  0.54046  1.0000
  C   C181      1.0  0.29626  0.19066  0.77939  1.0000
  H   H137      1.0  0.03241  0.22475  0.54630  1.0000
  H   H138      1.0  0.05983  0.47854  0.79662  1.0000
  C   C182      1.0  0.05258  0.47453  0.72725  1.0000
  C   C183      1.0  0.19008  0.03070  0.78370  1.0000
  C   C184      1.0  0.19116  0.02829  0.81815  1.0000
  C   C185      1.0  0.01511  0.41884  0.68324  1.0000
  H   H139      1.0  0.19218  0.04093  0.83397  1.0000
  H   H140      1.0  0.30249  0.09082  0.96104  1.0000
  C   C186      1.0  0.28027  0.10573  0.75132  1.0000
  C   C187      1.0  0.27334  0.10629  0.71861  1.0000
  C   C188      1.0  0.28660  0.10583  0.69164  1.0000
  C   C189      1.0  0.02558  0.18687  0.62311  1.0000
  H   H141      1.0  0.02007  0.16915  0.53248  1.0000
  C   C190      1.0  0.30062  0.10442  0.75640  1.0000
  H   H142      1.0  0.25777  0.10745  0.71409  1.0000
  H   H143      1.0  0.04168  0.14993  0.57105  1.0000
  H   H144      1.0  0.11977  0.29862  0.66562  1.0000
  H   H145      1.0  0.30619  0.10434  0.78150  1.0000
  C   C191      1.0  0.07525  0.31210  0.72826  1.0000
  C   C192      1.0  0.08416  0.32301  0.70411  1.0000
  C   C193      1.0  0.08753  0.34276  0.71028  1.0000
  C   C194      1.0  0.08183  0.35199  0.74044  1.0000
  C   C195      1.0  0.07242  0.34122  0.76421  1.0000
  C   C196      1.0  0.06937  0.32139  0.75826  1.0000
  H   H146      1.0  0.08865  0.31621  0.68082  1.0000
  H   H147      1.0  0.09471  0.35092  0.69158  1.0000
  H   H148      1.0  0.06784  0.34807  0.78747  1.0000
  H   H149      1.0  0.06250  0.31314  0.77719  1.0000
  C   C197      1.0  0.11638  0.18111  0.71115  1.0000
  C   C198      1.0  0.13172  0.19275  0.71789  1.0000
  C   C199      1.0  0.14873  0.18487  0.73475  1.0000
  C   C200      1.0  0.15091  0.16514  0.74528  1.0000
  C   C201      1.0  0.13576  0.15335  0.73789  1.0000
  C   C202      1.0  0.11872  0.16127  0.72104  1.0000
  H   H150      1.0  0.13049  0.20783  0.70998  1.0000
  H   H151      1.0  0.16038  0.19413  0.73947  1.0000
  H   H152      1.0  0.13704  0.13819  0.74556  1.0000
  H   H153      1.0  0.10714  0.15195  0.71594  1.0000
  C   C203      1.0  0.05332  0.41153  0.95225  1.0000
  C   C204      1.0  0.06778  0.39593  0.95158  1.0000
  H   H154      1.0  0.05438  0.08091  0.85609  1.0000
  H   H155      1.0  0.04829  0.41840  0.92931  1.0000
  H   H156      1.0  0.12688  0.46511  0.96912  1.0000
  H   H157      1.0  0.02553  0.33424  0.84061  1.0000
  C   C205      1.0  0.07815  0.24608  0.51435  1.0000
  C   C206      1.0  0.08550  0.48956  0.81732  1.0000
  H   H158      1.0  0.06230  0.46938  0.64185  1.0000
  H   H159      1.0  0.06626  0.21993  0.53172  1.0000
  C   C207      1.0  0.21268  0.11948  0.96051  1.0000
  C   C208      1.0  0.20070  0.10470  0.95207  1.0000
  H   H160      1.0  0.27053  0.06506  0.72969  1.0000
  H   H161      1.0  0.21910  0.12771  0.94103  1.0000
  C   C209      1.0  0.26602  0.05257  0.74329  1.0000
  H   H162      1.0  0.02594  0.46869  0.75221  1.0000
  C   C210      1.0  0.13142  0.47900  0.96071  1.0000
  C   C211      1.0  0.28453  0.05806  0.61585  1.0000
  C   C212      1.0  0.27315  0.04441  0.63039  1.0000
  C   C213      1.0  0.27789  0.03691  0.66193  1.0000
  H   H163      1.0  0.27971  0.00467  0.76071  1.0000
  H   H164      1.0  0.24050  0.06882  0.76316  1.0000
  C   C214      1.0  0.03270  0.47804  0.73461  1.0000
  H   H165      1.0  0.28081  0.06404  0.59156  1.0000
  H   H166      1.0  0.26054  0.03983  0.61738  1.0000
  C   C215      1.0  0.06734  0.49146  0.80154  1.0000
  H   H167      1.0  0.04050  0.25864  0.55585  1.0000
  C   C216      1.0  0.30835  0.19560  0.66733  1.0000
  H   H168      1.0  0.14902  0.05992  0.78642  1.0000
  C   C217      1.0  0.18859  0.01409  0.76359  1.0000
  C   C218      1.0  0.28836  0.17462  0.79407  1.0000
  H   H169      1.0  0.30426  0.00401  0.66430  1.0000
  H   H170      1.0  0.28042  0.14517  0.78694  1.0000
  H   H171      1.0  0.00974  0.38231  0.77538  1.0000
  C   C219      1.0  0.01509  0.33341  0.75799  1.0000
  H   H172      1.0  0.09165  0.47204  0.98123  1.0000
  C   C220      1.0  0.02039  0.32646  0.78965  1.0000
  C   C221      1.0  0.00738  0.34835  0.64612  1.0000
  C   C222      1.0  0.01663  0.38562  0.70486  1.0000
  H   H173      1.0  0.28068  0.22932  0.62144  1.0000
  C   C223      1.0  0.03267  0.33454  0.68302  1.0000
  C   C224      1.0  0.04002  0.32210  0.65761  1.0000
  C   C225      1.0  0.03110  0.32277  0.62646  1.0000
  P   P7        1.0  0.08723  0.48220  0.69513  1.0000
  C   C226      1.0  0.01027  0.49314  0.91972  1.0000
  H   H174      1.0  0.22993  0.04081  0.79555  1.0000
  C   C227      1.0  0.01012  0.46724  0.87876  1.0000
  C   C228      1.0  0.03411  0.42069  0.69446  1.0000
  C   C229      1.0  0.04452  0.40491  0.71013  1.0000
  C   C230      1.0  0.03583  0.38746  0.71543  1.0000
  C   C231      1.0  0.22753  0.01400  0.70337  1.0000
  H   H175      1.0  0.03421  0.43031  0.98307  1.0000
  C   C232      1.0  0.27132  0.01871  0.76081  1.0000
  C   C233      1.0  0.00116  0.23188  0.54702  1.0000
  H   H176      1.0  0.14221  0.46680  0.91421  1.0000
  H   H177      1.0  0.99850  0.29462  0.63338  1.0000
  H   H178      1.0  0.03071  0.46850  0.83870  1.0000
  C   C234      1.0  0.30544  0.05672  0.66436  1.0000
  H   H179      1.0  0.24248  0.15059  0.65784  1.0000
  H   H180      1.0  0.01370  0.32303  0.73810  1.0000
  C   C235      1.0  0.02119  0.17424  0.55772  1.0000
  H   H181      1.0  0.04036  0.33435  0.70644  1.0000
  H   H182      1.0  0.05276  0.31200  0.66205  1.0000
  H   H183      1.0  0.03695  0.31315  0.60682  1.0000
  C   C236      1.0  0.06943  0.22849  0.51014  1.0000
  C   C237      1.0  0.06162  0.48679  0.70519  1.0000
  C   C238      1.0  0.01334  0.19794  0.60126  1.0000
  P   P8        1.0  0.00576  0.36284  0.71109  1.0000
  H   H184      1.0  0.04085  0.43426  0.69090  1.0000
  H   H185      1.0  0.05940  0.40613  0.71824  1.0000
  H   H186      1.0  0.04415  0.37541  0.72772  1.0000
  H   H187      1.0  0.29821  0.05675  0.78121  1.0000
  C   C239      1.0  0.24314  0.03901  0.78072  1.0000
  H   H188      1.0  0.02362  0.31092  0.79379  1.0000
  H   H189      1.0  0.19041  0.00798  0.85900  1.0000
  C   C240      1.0  0.31282  0.05612  0.77112  1.0000
  H   H190      1.0  0.27981  0.19610  0.64426  1.0000
  C   C241      1.0  0.05871  0.09563  0.85951  1.0000
  C   C242      1.0  0.04458  0.11102  0.86618  1.0000
  C   C243      1.0  0.05016  0.12998  0.87068  1.0000
  C   C244      1.0  0.06984  0.13359  0.86835  1.0000
  C   C245      1.0  0.08411  0.11825  0.86118  1.0000
  C   C246      1.0  0.07841  0.09919  0.85714  1.0000
  P   P9        1.0  0.10957  0.12299  0.85870  1.0000
  C   C247      1.0  0.11963  0.12468  0.90008  1.0000
  C   C248      1.0  0.12263  0.10329  0.83586  1.0000
  C   C249      1.0  0.12414  0.10421  0.80111  1.0000
  C   C250      1.0  0.13355  0.08857  0.78339  1.0000
  C   C251      1.0  0.13999  0.07084  0.83469  1.0000
  C   C252      1.0  0.13056  0.08643  0.85252  1.0000
  C   C253      1.0  0.13995  0.12260  0.90491  1.0000
  C   C254      1.0  0.14777  0.12430  0.93672  1.0000
  C   C255      1.0  0.13547  0.12770  0.96407  1.0000
  C   C256      1.0  0.11525  0.12967  0.95960  1.0000
  C   C257      1.0  0.10734  0.12823  0.92776  1.0000
  C   C258      1.0  0.11173  0.14565  0.83641  1.0000
  C   C259      1.0  0.12772  0.15670  0.84201  1.0000
  C   C260      1.0  0.12939  0.17414  0.82467  1.0000
  C   C261      1.0  0.11516  0.18070  0.80161  1.0000
  C   C262      1.0  0.09939  0.16966  0.79541  1.0000
  C   C263      1.0  0.09775  0.15210  0.81246  1.0000
  H   H191      1.0  0.03919  0.14190  0.87592  1.0000
  H   H192      1.0  0.07395  0.14835  0.87208  1.0000
  H   H193      1.0  0.08906  0.08702  0.85201  1.0000
  H   H194      1.0  0.11822  0.11699  0.78758  1.0000
  H   H195      1.0  0.13505  0.08948  0.75666  1.0000
  H   H196      1.0  0.12954  0.08528  0.87926  1.0000
  H   H197      1.0  0.14984  0.11965  0.88415  1.0000
  H   H198      1.0  0.16344  0.12285  0.94017  1.0000
  C   C264      1.0  0.00082  0.19919  0.49816  1.0000
  C   C265      1.0  0.99678  0.23593  0.75511  1.0000
  H   H199      1.0  0.09165  0.12979  0.92504  1.0000
  H   H200      1.0  0.13921  0.15173  0.85906  1.0000
  H   H201      1.0  0.14210  0.18219  0.82826  1.0000
  H   H202      1.0  0.11682  0.19387  0.78741  1.0000
  H   H203      1.0  0.08889  0.17437  0.77633  1.0000
  H   H204      1.0  0.08581  0.14342  0.80635  1.0000
  H   H205      1.0  0.12895  0.48348  0.70836  1.0000
  C   C266      1.0  0.30059  0.06425  0.63289  1.0000
  C   C267      1.0  0.15534  0.24328  0.77659  1.0000
  C   C268      1.0  0.15452  0.22527  0.79301  1.0000
  P   P10       1.0  0.13331  0.25857  0.76681  1.0000
  C   C269      1.0  0.13167  0.28131  0.78993  1.0000
  C   C270      1.0  0.13371  0.26340  0.72265  1.0000
  C   C271      1.0  0.14306  0.24949  0.70098  1.0000
  C   C272      1.0  0.14419  0.25340  0.66699  1.0000
  C   C273      1.0  0.13594  0.27116  0.65429  1.0000
  C   C274      1.0  0.31400  0.11631  0.98229  1.0000
  C   C275      1.0  0.12527  0.28113  0.70958  1.0000
  C   C276      1.0  0.11368  0.29264  0.79205  1.0000
  C   C277      1.0  0.11217  0.31032  0.80956  1.0000
  C   C278      1.0  0.12853  0.31682  0.82529  1.0000
  C   C279      1.0  0.14643  0.30555  0.82369  1.0000
  C   C280      1.0  0.14802  0.28784  0.80615  1.0000
  C   C281      1.0  0.11231  0.24574  0.77769  1.0000
  C   C282      1.0  0.10295  0.23481  0.75398  1.0000
  C   C283      1.0  0.08746  0.22402  0.76340  1.0000
  C   C284      1.0  0.08099  0.22430  0.79627  1.0000
  C   C285      1.0  0.09016  0.23524  0.81998  1.0000
  C   C286      1.0  0.10582  0.24584  0.81079  1.0000
  H   H206      1.0  0.10533  0.46943  0.75814  1.0000
  H   H207      1.0  0.31253  0.14505  0.62628  1.0000
  H   H208      1.0  0.14077  0.22031  0.80104  1.0000
  H   H209      1.0  0.14948  0.23559  0.71024  1.0000
  H   H210      1.0  0.15115  0.24248  0.65038  1.0000
  H   H211      1.0  0.14647  0.05803  0.84760  1.0000
  H   H212      1.0  0.22010  0.04377  0.71895  1.0000
  H   H213      1.0  0.04560  0.16123  0.62904  1.0000
  H   H214      1.0  0.10083  0.28790  0.77982  1.0000
  H   H215      1.0  0.22894  0.00877  0.72864  1.0000
  H   H216      1.0  0.02746  0.19200  0.64828  1.0000
  H   H217      1.0  0.10572  0.13229  0.98085  1.0000
  H   H218      1.0  0.16200  0.27940  0.80547  1.0000
  H   H219      1.0  0.10758  0.23446  0.72829  1.0000
  H   H220      1.0  0.08052  0.21532  0.74514  1.0000
  H   H221      1.0  0.06893  0.21597  0.80331  1.0000
  H   H222      1.0  0.08517  0.23548  0.84550  1.0000
  H   H223      1.0  0.11295  0.25405  0.82955  1.0000
  C   C287      1.0  0.26421  0.13828  0.62347  1.0000
  C   C288      1.0  0.17158  0.21299  0.79813  1.0000
  H   H224      1.0  0.30924  0.07508  0.62190  1.0000
  H   H225      1.0  0.29771  0.20382  0.79379  1.0000
  C   C289      1.0  0.01573  0.34712  0.67798  1.0000
  C   C290      1.0  0.03291  0.49214  0.87350  1.0000
  H   H226      1.0  0.26573  0.16825  0.69039  1.0000
  C   C291      1.0  0.09642  0.45842  0.71054  1.0000
  C   C292      1.0  0.09483  0.44142  0.69153  1.0000
  C   C293      1.0  0.10157  0.42306  0.70417  1.0000
  C   C294      1.0  0.11004  0.42155  0.73569  1.0000
  C   C295      1.0  0.11154  0.43836  0.75480  1.0000
  C   C296      1.0  0.10456  0.45668  0.74247  1.0000
  C   C297      1.0  0.29257  0.15666  0.74244  1.0000
  C   C298      1.0  0.01712  0.35958  0.81080  1.0000
  C   C299      1.0  0.29251  0.20402  0.64879  1.0000
  C   C300      1.0  0.22222  0.02846  0.63877  1.0000
  H   H227      1.0  0.08826  0.44222  0.66715  1.0000
  H   H228      1.0  0.10007  0.40988  0.68983  1.0000
  H   H229      1.0  0.11506  0.40730  0.74561  1.0000
  H   H230      1.0  0.11764  0.43717  0.77963  1.0000
  C   C301      1.0  0.02147  0.33956  0.81603  1.0000
  H   H231      1.0  0.21564  0.05663  0.66205  1.0000
  H   H232      1.0  0.21980  0.03404  0.61382  1.0000
  S   S48       1.0  0.32292  0.10608  0.66186  1.0000
  C   C302      1.0  0.01587  0.24129  0.75816  1.0000
  C   C303      1.0  0.01943  0.26105  0.75763  1.0000
  H   H233      1.0  0.02795  0.23013  0.76017  1.0000
  C   C304      1.0  0.01044  0.27042  0.55857  1.0000
  H   H234      1.0  0.02932  0.10823  0.86788  1.0000
  H   H235      1.0  0.01748  0.36969  0.83144  1.0000
  C   C305      1.0  0.08939  0.48266  0.65039  1.0000
  C   C306      1.0  0.29424  0.04282  0.67898  1.0000
  C   C307      1.0  0.02517  0.47528  0.86155  1.0000
  H   H236      1.0  0.18302  0.08293  0.97198  1.0000
  C   C308      1.0  0.22732  0.00850  0.64396  1.0000
  C   C309      1.0  0.07424  0.38721  0.98163  1.0000
  C   C310      1.0  0.31388  0.10355  0.72944  1.0000
  C   C311      1.0  0.07490  0.47520  0.63057  1.0000
  C   C312      1.0  0.14143  0.07189  0.80015  1.0000
  C   C313      1.0  0.30696  0.10454  0.69678  1.0000
  H   H237      1.0  0.00419  0.45414  0.86940  1.0000
  H   H238      1.0  0.28364  0.17529  0.81975  1.0000
  C   C314      1.0  0.03579  0.16957  0.61224  1.0000
  H   H239      1.0  0.22869  0.99877  0.62274  1.0000
  H   H240      1.0  0.15908  0.31061  0.83600  1.0000
  H   H241      1.0  0.28908  0.12782  0.59385  1.0000
  H   H242      1.0  0.11765  0.29203  0.72534  1.0000
  C   C315      1.0  0.24904  0.05479  0.76243  1.0000
  C   C316      1.0  0.12645  0.28499  0.67556  1.0000
  C   C317      1.0  0.25777  0.14959  0.65083  1.0000
  C   C318      1.0  0.02533  0.25546  0.55424  1.0000
  C   C319      1.0  0.00390  0.27542  0.75400  1.0000
  H   H243      1.0  0.01441  0.40531  0.85454  1.0000
  H   H244      1.0  0.17087  0.19877  0.80966  1.0000
  H   H245      1.0  0.00182  0.45935  0.97605  1.0000
  C   C320      1.0  0.30372  0.09957  0.98325  1.0000
  H   H246      1.0  0.09832  0.31911  0.81076  1.0000
  C   C321      1.0  0.32491  0.22528  0.65984  1.0000
  S   S49       1.0  0.01207  0.43439  0.80236  1.0000
  C   C322      1.0  0.17349  0.24879  0.76557  1.0000
  H   H247      1.0  0.99509  0.35885  0.64095  1.0000
  H   H248      1.0  0.28101  0.10658  0.66658  1.0000
  H   H249      1.0  0.06090  0.46248  0.73930  1.0000
  H   H250      1.0  0.25395  0.13046  0.60931  1.0000
  C   C323      1.0  0.99512  0.42950  0.97011  1.0000
  H   H251      1.0  0.17439  0.26242  0.75224  1.0000
  H   H252      1.0  0.99912  0.21551  0.68519  1.0000
  H   H253      1.0  0.01411  0.28517  0.56370  1.0000
  H   H254      1.0  0.20264  0.20883  0.79053  1.0000
  H   H255      1.0  0.26874  0.02662  0.67317  1.0000
  C   C324      1.0  0.10574  0.48973  0.63500  1.0000
  C   C325      1.0  0.31016  0.00760  0.71676  1.0000
  C   C326      1.0  0.18955  0.21860  0.78707  1.0000
  C   C327      1.0  0.30912  0.23353  0.64128  1.0000
  C   C328      1.0  0.19052  0.23653  0.77094  1.0000
  P   P11       1.0  0.30797  0.17125  0.68439  1.0000
  C   C329      1.0  0.01493  0.33608  0.62058  1.0000
  C   C330      1.0  0.01088  0.19170  0.56847  1.0000
  C   C331      1.0  0.25421  0.02096  0.77980  1.0000
  H   H256      1.0  0.13647  0.27403  0.62784  1.0000
  H   H257      1.0  0.32584  0.03057  0.61281  1.0000
  C   C332      1.0  0.30228  0.18975  0.74618  1.0000
  H   H258      1.0  0.20443  0.24076  0.76205  1.0000
  C   C333      1.0  0.01206  0.35362  0.75206  1.0000
  H   H259      1.0  0.99403  0.22059  0.75474  1.0000
  C   C334      1.0  0.00644  0.40130  0.68811  1.0000
  C   C335      1.0  0.22248  0.03394  0.69802  1.0000
  H   H260      1.0  0.18746  0.01582  0.73695  1.0000
  H   H261      1.0  0.03432  0.26522  0.75896  1.0000
  C   C336      1.0  0.03358  0.16325  0.57957  1.0000
  P   P12       1.0  0.30006  0.03276  0.71958  1.0000
  C   C337      1.0  0.19242  0.09432  0.97805  1.0000
  H   H262      1.0  0.00271  0.42757  0.94656  1.0000
  C   C338      1.0  0.27743  0.03459  0.74264  1.0000
  C   C339      1.0  0.21986  0.04119  0.66583  1.0000
  H   H263      1.0  0.31773  0.06211  0.67717  1.0000
  C   C340      1.0  0.29728  0.14668  0.63325  1.0000
  H   H264      1.0  0.00698  0.29058  0.75246  1.0000
  H   H265      1.0  0.12730  0.33062  0.83865  1.0000
  H   H266      1.0  0.14169  0.12874  0.98868  1.0000
  H   H267      1.0  0.06539  0.46934  0.58082  1.0000
  C   C341      1.0  0.99922  0.40959  0.84941  1.0000
  H   H268      1.0  0.00832  0.33696  0.59616  1.0000
  C   C342      1.0  0.04517  0.41810  0.98268  1.0000
  C   C343      1.0  0.28654  0.15763  0.77559  1.0000
  C   C344      1.0  0.31777  0.04606  0.74143  1.0000
  H   H269      1.0  0.29114  0.14336  0.72851  1.0000
  C   C345      1.0  0.27105  0.15946  0.66941  1.0000
  H   H270      1.0  0.15009  0.17497  0.98096  1.0000
  C   C346      1.0  0.99411  0.42380  0.82534  1.0000
  C   C347      1.0  0.30039  0.17273  0.72739  1.0000
  C   C348      1.0  0.29099  0.15783  0.66107  1.0000
  C   C349      1.0  0.28395  0.13685  0.61467  1.0000
  H   H271      1.0  0.00713  0.43097  0.67068  1.0000
  C   C350      1.0  0.29293  0.22291  0.63579  1.0000
  H   H272      1.0  0.08552  0.37521  0.98130  1.0000
  H   H273      1.0  0.00594  0.21153  0.60985  1.0000
  C   C351      1.0  0.23011  0.00112  0.67635  1.0000
  C   C352      1.0  0.00260  0.47622  0.90772  1.0000
  H   H274      1.0  0.32530  0.99533  0.59947  1.0000
  H   H275      1.0  0.30942  0.24816  0.63118  1.0000
  H   H276      1.0  0.30835  0.20233  0.73539  1.0000
  H   H277      1.0  0.99742  0.28640  0.69207  1.0000
  H   H278      1.0  0.24948  0.00877  0.79393  1.0000
  C   C353      1.0  0.14045  0.47980  0.92966  1.0000
  C   C354      1.0  0.32454  0.20641  0.67286  1.0000
  H   H279      1.0  0.11635  0.18209  0.95987  1.0000
  C   C355      1.0  0.99453  0.44746  0.98678  1.0000
  C   C356      1.0  0.31007  0.99714  0.68673  1.0000
  C   C357      1.0  0.11877  0.17855  0.98585  1.0000
  C   C358      1.0  0.07662  0.47509  0.59596  1.0000
  C   C359      1.0  0.18793  0.99531  0.77771  1.0000
  H   H280      1.0  0.99386  0.44559  0.73173  1.0000
  C   C360      1.0  0.09285  0.48232  0.58086  1.0000
  H   H281      1.0  0.32074  0.12053  0.95934  1.0000
  H   H282      1.0  0.31952  0.00643  0.76807  1.0000
  H   H283      1.0  0.09418  0.48222  0.55403  1.0000
  H   H284      1.0  0.32282  0.07366  0.81097  1.0000
  C   C361      1.0  0.10740  0.48961  0.60037  1.0000
  C   C362      1.0  0.31885  0.99847  0.74489  1.0000
  C   C363      1.0  0.02173  0.49382  0.71987  1.0000
  H   H285      1.0  0.07744  0.44073  0.99230  1.0000
  Fe  Fe25      1.0  0.07662  0.61675  0.15007  1.0000
  S   S50       1.0  0.04598  0.61732  0.13107  1.0000
  S   S51       1.0  0.08604  0.64774  0.16037  1.0000
  Fe  Fe26      1.0  0.08211  0.57128  0.14152  1.0000
  S   S52       1.0  0.05164  0.56952  0.12306  1.0000
  S   S53       1.0  0.10316  0.54356  0.14414  1.0000
  Fe  Fe27      1.0  0.05698  0.59582  0.09203  1.0000
  S   S54       1.0  0.04306  0.59774  0.04071  1.0000
  Fe  Fe28      1.0  0.04355  0.59113  0.16344  1.0000
  S   S55       1.0  0.01642  0.58943  0.19390  1.0000
  S   S56       1.0  0.08819  0.59674  0.10805  1.0000
  S   S57       1.0  0.07361  0.59134  0.18490  1.0000
  Fe  Fe29      1.0  0.07798  0.73556  0.30317  1.0000
  S   S58       1.0  0.07339  0.76149  0.26911  1.0000
  S   S59       1.0  0.07976  0.70267  0.29003  1.0000
  Fe  Fe30      1.0  0.07214  0.76174  0.36691  1.0000
  S   S60       1.0  0.06677  0.78936  0.33615  1.0000
  S   S61       1.0  0.06497  0.75790  0.42262  1.0000
  Fe  Fe31      1.0  0.04842  0.77150  0.30319  1.0000
  S   S62       1.0  0.01867  0.78037  0.28012  1.0000
  Fe  Fe32      1.0  0.09245  0.77759  0.30417  1.0000
  S   S63       1.0  0.11907  0.79528  0.28961  1.0000
  S   S64       1.0  0.05216  0.74504  0.33529  1.0000
  S   S65       1.0  0.09854  0.75055  0.33694  1.0000
  Fe  Fe33      1.0  0.18562  0.87965  0.18464  1.0000
  S   S66       1.0  0.21679  0.86986  0.16999  1.0000
  S   S67       1.0  0.16111  0.85991  0.20208  1.0000
  Fe  Fe34      1.0  0.19281  0.92332  0.16812  1.0000
  S   S68       1.0  0.22396  0.91598  0.15299  1.0000
  S   S69       1.0  0.17822  0.95456  0.17139  1.0000
  Fe  Fe35      1.0  0.21232  0.89052  0.12578  1.0000
  S   S70       1.0  0.22434  0.88125  0.07403  1.0000
  Fe  Fe36      1.0  0.22608  0.89627  0.19785  1.0000
  S   S71       1.0  0.24828  0.89987  0.23983  1.0000
  S   S72       1.0  0.18083  0.89884  0.13874  1.0000
  S   S73       1.0  0.19518  0.90508  0.21448  1.0000
  C   C364      1.0  0.21914  0.88825  0.03180  1.0000
  C   C365      1.0  0.02752  0.69960  0.32124  1.0000
  C   C366      1.0  0.25039  0.97291  0.08369  1.0000
  H   H286      1.0  0.24225  0.86818  0.01253  1.0000
  H   H287      1.0  0.19491  0.90936  0.04210  1.0000
  C   C367      1.0  0.18894  0.97697  0.16449  1.0000
  C   C368      1.0  0.20748  0.97754  0.15035  1.0000
  H   H288      1.0  0.18496  0.86324  0.04178  1.0000
  H   H289      1.0  0.21575  0.96404  0.14334  1.0000
  H   H290      1.0  0.04837  0.91680  0.41999  1.0000
  C   C369      1.0  0.27383  0.89619  0.24843  1.0000
  C   C370      1.0  0.28085  0.90352  0.27837  1.0000
  C   C371      1.0  0.99597  0.76817  0.33189  1.0000
  H   H291      1.0  0.10105  0.81039  0.37230  1.0000
  C   C372      1.0  0.28715  0.88604  0.22694  1.0000
  H   H292      1.0  0.27074  0.91137  0.29523  1.0000
  H   H293      1.0  0.07309  0.59884  0.31307  1.0000
  H   H294      1.0  0.28204  0.88020  0.20391  1.0000
  C   C373      1.0  0.07442  0.76357  0.46260  1.0000
  C   C374      1.0  0.09199  0.77222  0.46677  1.0000
  H   H295      1.0  0.01040  0.84797  0.43672  1.0000
  H   H296      1.0  0.10044  0.77558  0.44518  1.0000
  H   H297      1.0  0.04043  0.68564  0.17754  1.0000
  H   H298      1.0  0.25891  0.84807  0.17197  1.0000
  H   H299      1.0  0.04126  0.67557  0.29367  1.0000
  C   C375      1.0  0.00453  0.77977  0.49002  1.0000
  C   C376      1.0  0.25446  0.95309  0.09121  1.0000
  H   H300      1.0  0.00952  0.76455  0.34496  1.0000
  C   C377      1.0  0.14973  0.84168  0.22648  1.0000
  C   C378      1.0  0.16005  0.82958  0.24980  1.0000
  C   C379      1.0  0.15050  0.81560  0.26856  1.0000
  C   C380      1.0  0.13038  0.81331  0.26469  1.0000
  C   C381      1.0  0.12009  0.82535  0.24128  1.0000
  C   C382      1.0  0.12967  0.83924  0.22237  1.0000
  H   H301      1.0  0.17544  0.83095  0.25343  1.0000
  H   H302      1.0  0.15879  0.80652  0.28638  1.0000
  H   H303      1.0  0.10465  0.82418  0.23799  1.0000
  H   H304      1.0  0.12134  0.84838  0.20464  1.0000
  H   H305      1.0  0.99913  0.63276  0.20921  1.0000
  H   H306      1.0  0.03602  0.50977  0.03343  1.0000
  C   C383      1.0  0.09125  0.82678  0.46353  1.0000
  H   H307      1.0  0.08494  0.59920  0.02930  1.0000
  H   H308      1.0  0.06051  0.59721  0.25557  1.0000
  C   C384      1.0  0.10102  0.51783  0.14809  1.0000
  C   C385      1.0  0.15295  0.93880  0.03017  1.0000
  C   C386      1.0  0.30983  0.97408  0.25205  1.0000
  C   C387      1.0  0.13622  0.49853  0.05032  1.0000
  H   H309      1.0  0.13210  0.51234  0.15380  1.0000
  H   H310      1.0  0.05074  0.79684  0.42461  1.0000
  C   C388      1.0  0.00197  0.67134  0.03474  1.0000
  C   C389      1.0  0.07069  0.54687  0.03716  1.0000
  H   H311      1.0  0.01503  0.59304  0.12308  1.0000
  H   H312      1.0  0.06775  0.82231  0.38971  1.0000
  C   C390      1.0  0.08249  0.66304  0.19630  1.0000
  C   C391      1.0  0.07846  0.65556  0.22767  1.0000
  C   C392      1.0  0.07748  0.66794  0.25583  1.0000
  C   C393      1.0  0.07997  0.68809  0.25308  1.0000
  C   C394      1.0  0.08323  0.69574  0.22151  1.0000
  C   C395      1.0  0.08471  0.68325  0.19346  1.0000
  H   H313      1.0  0.07678  0.64009  0.23043  1.0000
  H   H314      1.0  0.07512  0.66173  0.28004  1.0000
  H   H315      1.0  0.08515  0.71114  0.21882  1.0000
  H   H316      1.0  0.08781  0.68923  0.16941  1.0000
  C   C396      1.0  0.11362  0.81406  0.42066  1.0000
  H   H317      1.0  0.27583  0.98366  0.41388  1.0000
  P   P13       1.0  0.28454  0.96057  0.20476  1.0000
  C   C397      1.0  0.28786  0.94214  0.17257  1.0000
  C   C398      1.0  0.27687  0.92576  0.17268  1.0000
  C   C399      1.0  0.27962  0.91146  0.14797  1.0000
  C   C400      1.0  0.29365  0.91314  0.12329  1.0000
  C   C401      1.0  0.30497  0.92915  0.12334  1.0000
  C   C402      1.0  0.25686  0.83722  0.19094  1.0000
  C   C403      1.0  0.26214  0.95787  0.22736  1.0000
  C   C404      1.0  0.24451  0.95677  0.21006  1.0000
  C   C405      1.0  0.22729  0.95391  0.22717  1.0000
  C   C406      1.0  0.22751  0.95201  0.26167  1.0000
  C   C407      1.0  0.24495  0.95306  0.27914  1.0000
  C   C408      1.0  0.26222  0.95595  0.26211  1.0000
  C   C409      1.0  0.25157  0.78707  0.34717  1.0000
  H   H318      1.0  0.21109  0.82697  0.32120  1.0000
  H   H319      1.0  0.26630  0.92375  0.19199  1.0000
  H   H320      1.0  0.27094  0.89896  0.14826  1.0000
  C   C410      1.0  0.25377  0.80358  0.20685  1.0000
  C   C411      1.0  0.21780  0.80031  0.34781  1.0000
  C   C412      1.0  0.27860  0.99345  0.39364  1.0000
  H   H321      1.0  0.24414  0.95767  0.18322  1.0000
  H   H322      1.0  0.21381  0.95272  0.21363  1.0000
  H   H323      1.0  0.21420  0.94932  0.27470  1.0000
  H   H324      1.0  0.24519  0.95110  0.30581  1.0000
  H   H325      1.0  0.27561  0.95614  0.27616  1.0000
  H   H326      1.0  0.29114  0.85968  0.38010  1.0000
  C   C413      1.0  0.15204  0.75371  0.28057  1.0000
  C   C414      1.0  0.14131  0.73878  0.29260  1.0000
  C   C415      1.0  0.12797  0.73040  0.27195  1.0000
  C   C416      1.0  0.12540  0.73691  0.23927  1.0000
  C   C417      1.0  0.13647  0.75159  0.22671  1.0000
  C   C418      1.0  0.14965  0.76013  0.24775  1.0000
  P   P14       1.0  0.13314  0.75944  0.18411  1.0000
  C   C419      1.0  0.15392  0.77175  0.17022  1.0000
  C   C420      1.0  0.13000  0.73737  0.16068  1.0000
  C   C421      1.0  0.11337  0.73575  0.14090  1.0000
  C   C422      1.0  0.11002  0.71783  0.12619  1.0000
  C   C423      1.0  0.12309  0.70137  0.13134  1.0000
  C   C424      1.0  0.13965  0.70284  0.15095  1.0000
  C   C425      1.0  0.14309  0.72073  0.16561  1.0000
  C   C426      1.0  0.15539  0.79137  0.17942  1.0000
  C   C427      1.0  0.17112  0.80136  0.16858  1.0000
  C   C428      1.0  0.18552  0.79188  0.14844  1.0000
  C   C429      1.0  0.18418  0.77237  0.13910  1.0000
  C   C430      1.0  0.16842  0.76232  0.14988  1.0000
  C   C431      1.0  0.11224  0.77705  0.18011  1.0000
  C   C432      1.0  0.10828  0.78644  0.14958  1.0000
  C   C433      1.0  0.09231  0.80039  0.14642  1.0000
  C   C434      1.0  0.08028  0.80511  0.17376  1.0000
  C   C435      1.0  0.08432  0.79601  0.20429  1.0000
  C   C436      1.0  0.10037  0.78220  0.20754  1.0000
  H   H327      1.0  0.16180  0.76073  0.29697  1.0000
  H   H328      1.0  0.14294  0.73403  0.31818  1.0000
  H   H329      1.0  0.11934  0.71907  0.28145  1.0000
  H   H330      1.0  0.11474  0.73044  0.22389  1.0000
  H   H331      1.0  0.15780  0.77199  0.23930  1.0000
  H   H332      1.0  0.10260  0.74801  0.13763  1.0000
  H   H333      1.0  0.09697  0.71652  0.11154  1.0000
  H   H334      1.0  0.12013  0.68734  0.12080  1.0000
  H   H335      1.0  0.14952  0.68994  0.15553  1.0000
  H   H336      1.0  0.15561  0.72143  0.18178  1.0000
  H   H337      1.0  0.14438  0.79898  0.19510  1.0000
  H   H338      1.0  0.17206  0.81653  0.17578  1.0000
  H   H339      1.0  0.19766  0.79971  0.14001  1.0000
  H   H340      1.0  0.19532  0.76507  0.12337  1.0000
  H   H341      1.0  0.16760  0.74732  0.14210  1.0000
  H   H342      1.0  0.11764  0.78304  0.12834  1.0000
  H   H343      1.0  0.08936  0.80768  0.12289  1.0000
  H   H344      1.0  0.06797  0.81600  0.17150  1.0000
  H   H345      1.0  0.07528  0.79994  0.22576  1.0000
  H   H346      1.0  0.10374  0.77589  0.23163  1.0000
  C   C437      1.0  0.16312  0.94134  0.08734  1.0000
  C   C438      1.0  0.15085  0.93401  0.06362  1.0000
  H   H347      1.0  0.01010  0.72239  0.34710  1.0000
  C   C439      1.0  0.02559  0.53980  0.02509  1.0000
  C   C440      1.0  0.17991  0.95817  0.04416  1.0000
  C   C441      1.0  0.17767  0.95325  0.07770  1.0000
  P   P15       1.0  0.19900  0.97333  0.03175  1.0000
  C   C442      1.0  0.22099  0.96543  0.05438  1.0000
  C   C443      1.0  0.01163  0.64799  0.16916  1.0000
  C   C444      1.0  0.00400  0.80504  0.39755  1.0000
  H   H348      1.0  0.20283  0.79939  0.35574  1.0000
  C   C445      1.0  0.08328  0.50894  0.14655  1.0000
  H   H349      1.0  0.24597  0.87764  0.31859  1.0000
  H   H350      1.0  0.17683  0.50388  0.11616  1.0000
  C   C446      1.0  0.05749  0.59739  0.00428  1.0000
  H   H351      1.0  0.32044  0.85956  0.34407  1.0000
  H   H352      1.0  0.03204  0.68142  0.23599  1.0000
  H   H353      1.0  0.27142  0.80338  0.31948  1.0000
  C   C447      1.0  0.22532  0.94554  0.06191  1.0000
  H   H354      1.0  0.14348  0.93309  0.01172  1.0000
  C   C448      1.0  0.16729  0.95095  0.02048  1.0000
  H   H355      1.0  0.12655  0.52857  0.06366  1.0000
  H   H356      1.0  0.30108  0.98796  0.25071  1.0000
  H   H357      1.0  0.99324  0.50294  0.08645  1.0000
  C   C449      1.0  0.03668  0.63569  0.31711  1.0000
  H   H358      1.0  0.16140  0.93778  0.11334  1.0000
  C   C450      1.0  0.03479  0.50379  0.18307  1.0000
  C   C451      1.0  0.11013  0.82011  0.45343  1.0000
  H   H359      1.0  0.25290  0.99127  0.18723  1.0000
  H   H360      1.0  0.18722  0.95848  0.09650  1.0000
  H   H361      1.0  0.01629  0.72192  0.16858  1.0000
  H   H362      1.0  0.25345  0.78831  0.20012  1.0000
  H   H363      1.0  0.15371  0.88395  0.04512  1.0000
  C   C452      1.0  0.31412  0.89035  0.26571  1.0000
  H   H364      1.0  0.31869  0.84920  0.28545  1.0000
  H   H365      1.0  0.05027  0.75232  0.48839  1.0000
  H   H366      1.0  0.05774  0.62336  0.35258  1.0000
  C   C453      1.0  0.30499  0.95798  0.23301  1.0000
  H   H367      1.0  0.21575  0.93475  0.05389  1.0000
  C   C454      1.0  0.25426  0.84305  0.22402  1.0000
  H   H368      1.0  0.24911  0.79834  0.25855  1.0000
  C   C455      1.0  0.00193  0.67885  0.06707  1.0000
  C   C456      1.0  0.15181  0.51811  0.09127  1.0000
  H   H369      1.0  0.01816  0.56940  0.00893  1.0000
  H   H370      1.0  0.31270  0.92727  0.22220  1.0000
  H   H371      1.0  0.00662  0.63819  0.15045  1.0000
  H   H372      1.0  0.30584  0.90633  0.31017  1.0000
  C   C457      1.0  0.25640  0.80269  0.32731  1.0000
  H   H373      1.0  0.03009  0.64617  0.33478  1.0000
  H   H374      1.0  0.02479  0.54354  0.05127  1.0000
  C   C458      1.0  0.05393  0.60801  0.27276  1.0000
  C   C459      1.0  0.99713  0.59635  0.16698  1.0000
  C   C460      1.0  0.22258  0.81598  0.32802  1.0000
  H   H375      1.0  0.02586  0.78060  0.39348  1.0000
  C   C461      1.0  0.09828  0.81490  0.39784  1.0000
  H   H376      1.0  0.25434  0.85840  0.23031  1.0000
  C   C462      1.0  0.29430  0.98885  0.37224  1.0000
  H   H377      1.0  0.28781  0.84023  0.26172  1.0000
  H   H378      1.0  0.06073  0.55962  0.04193  1.0000
  C   C463      1.0  0.99970  0.82396  0.40998  1.0000
  H   H379      1.0  0.16860  0.95438  0.99445  1.0000
  H   H380      1.0  0.00531  0.54611  0.18072  1.0000
  C   C464      1.0  0.02982  0.63520  0.28427  1.0000
  C   C465      1.0  0.05228  0.62268  0.32741  1.0000
  C   C466      1.0  0.24194  0.81725  0.31748  1.0000
  C   C467      1.0  0.27266  0.84979  0.34126  1.0000
  H   H381      1.0  0.04130  0.70542  0.32701  1.0000
  C   C468      1.0  0.02349  0.66267  0.16009  1.0000
  H   H382      1.0  0.02985  0.64287  0.01168  1.0000
  C   C469      1.0  0.30682  0.85507  0.33419  1.0000
  C   C470      1.0  0.07938  0.82151  0.40790  1.0000
  H   H383      1.0  0.25997  0.84982  0.35724  1.0000
  C   C471      1.0  0.20402  0.90229  0.02295  1.0000
  C   C472      1.0  0.24201  0.93939  0.08011  1.0000
  C   C473      1.0  0.30082  0.90071  0.28692  1.0000
  C   C474      1.0  0.29027  0.85524  0.35436  1.0000
  C   C475      1.0  0.25133  0.80936  0.24004  1.0000
  H   H384      1.0  0.07050  0.53676  0.08782  1.0000
  H   H385      1.0  0.31603  0.93031  0.10443  1.0000
  H   H386      1.0  0.03921  0.89255  0.37825  1.0000
  H   H387      1.0  0.04047  0.85748  0.39259  1.0000
  C   C476      1.0  0.30581  0.84929  0.30104  1.0000
  C   C477      1.0  0.23227  0.78586  0.35737  1.0000
  C   C478      1.0  0.06094  0.60888  0.30521  1.0000
  C   C479      1.0  0.25166  0.82916  0.24885  1.0000
  H   H388      1.0  0.29582  0.90194  0.10431  1.0000
  H   H389      1.0  0.17730  0.99303  0.08731  1.0000
  H   H390      1.0  0.09400  0.50838  0.07786  1.0000
  H   H391      1.0  0.26280  0.77588  0.35461  1.0000
  C   C480      1.0  0.16573  0.50248  0.09742  1.0000
  C   C481      1.0  0.03057  0.67477  0.18436  1.0000
  H   H392      1.0  0.06045  0.87071  0.49101  1.0000
  C   C482      1.0  0.06377  0.75919  0.49120  1.0000
  C   C483      1.0  0.03845  0.62109  0.26227  1.0000
  H   H393      1.0  0.99700  0.70998  0.48474  1.0000
  C   C484      1.0  0.27135  0.84461  0.30761  1.0000
  H   H394      1.0  0.26721  0.94835  0.10570  1.0000
  C   C485      1.0  0.30211  0.94360  0.14786  1.0000
  C   C486      1.0  0.28815  0.84428  0.28763  1.0000
  H   H395      1.0  0.03989  0.53427  0.18799  1.0000
  C   C487      1.0  0.01396  0.83333  0.42719  1.0000
  H   H396      1.0  0.12203  0.81950  0.47112  1.0000
  C   C488      1.0  0.19664  0.86958  0.27636  1.0000
  C   C489      1.0  0.04876  0.90143  0.42650  1.0000
  H   H397      1.0  0.18298  0.86772  0.26370  1.0000
  C   C490      1.0  0.21187  0.85474  0.27523  1.0000
  H   H398      1.0  0.06977  0.51797  0.14324  1.0000
  H   H399      1.0  0.20977  0.84141  0.26173  1.0000
  C   C491      1.0  0.22960  0.85707  0.29150  1.0000
  C   C492      1.0  0.17640  0.86643  0.01950  1.0000
  C   C493      1.0  0.30713  0.88314  0.23557  1.0000
  C   C494      1.0  0.23216  0.87486  0.30758  1.0000
  H   H400      1.0  0.15200  0.53159  0.10534  1.0000
  C   C495      1.0  0.00998  0.70904  0.33265  1.0000
  C   C496      1.0  0.13717  0.51622  0.06771  1.0000
  P   P16       1.0  0.24858  0.83712  0.29141  1.0000
  C   C497      1.0  0.02584  0.67219  0.21775  1.0000
  C   C498      1.0  0.21696  0.88978  0.30830  1.0000
  H   H401      1.0  0.18747  0.89872  0.29316  1.0000
  C   C499      1.0  0.07611  0.53400  0.06302  1.0000
  C   C500      1.0  0.07560  0.82697  0.44107  1.0000
  H   H402      1.0  0.24512  0.92396  0.08579  1.0000
  C   C501      1.0  0.03178  0.52074  0.01516  1.0000
  C   C502      1.0  0.03664  0.80462  0.42030  1.0000
  H   H403      1.0  0.99766  0.61208  0.02555  1.0000
  H   H404      1.0  0.02786  0.66414  0.13441  1.0000
  C   C503      1.0  0.19915  0.88706  0.29303  1.0000
  H   H405      1.0  0.21920  0.90367  0.31989  1.0000
  C   C504      1.0  0.00075  0.59739  0.13291  1.0000
  C   C505      1.0  0.09781  0.51477  0.02579  1.0000
  C   C506      1.0  0.02245  0.79534  0.40285  1.0000
  H   H406      1.0  0.03337  0.62006  0.23696  1.0000
  C   C507      1.0  0.11835  0.50580  0.15229  1.0000
  H   H407      1.0  0.01445  0.73515  0.27267  1.0000
  H   H408      1.0  0.12821  0.80874  0.41287  1.0000
  C   C508      1.0  0.02744  0.68257  0.30225  1.0000
  H   H409      1.0  0.13460  0.89207  0.99421  1.0000
  H   H410      1.0  0.25841  0.81307  0.15660  1.0000
  H   H411      1.0  0.22852  0.77373  0.37271  1.0000
  P   P17       1.0  0.05119  0.83595  0.45358  1.0000
  C   C509      1.0  0.04972  0.86163  0.44334  1.0000
  C   C510      1.0  0.00726  0.73046  0.25042  1.0000
  C   C511      1.0  0.25656  0.81751  0.18232  1.0000
  C   C512      1.0  0.08947  0.51790  0.05730  1.0000
  H   H412      1.0  0.31723  0.87505  0.21897  1.0000
  C   C513      1.0  0.01415  0.65726  0.22720  1.0000
  C   C514      1.0  0.02913  0.52386  0.18353  1.0000
  H   H413      1.0  0.31118  0.95571  0.14763  1.0000
  H   H414      1.0  0.31593  0.98355  0.18157  1.0000
  C   C515      1.0  0.01766  0.72845  0.22070  1.0000
  H   H415      1.0  0.03295  0.73129  0.22019  1.0000
  P   P18       1.0  0.00995  0.65231  0.27065  1.0000
  H   H416      1.0  0.04982  0.49862  0.18804  1.0000
  H   H417      1.0  0.99702  0.62493  0.32064  1.0000
  H   H418      1.0  0.00937  0.78001  0.46442  1.0000
  H   H419      1.0  0.30368  0.97547  0.37583  1.0000
  C   C516      1.0  0.00978  0.67470  0.29452  1.0000
  C   C517      1.0  0.03268  0.82385  0.43179  1.0000
  H   H420      1.0  0.13972  0.92466  0.07128  1.0000
  C   C518      1.0  0.00825  0.72318  0.19171  1.0000
  C   C519      1.0  0.23374  0.97909  0.06529  1.0000
  C   C520      1.0  0.05538  0.87535  0.46657  1.0000
  C   C521      1.0  0.02171  0.55436  0.00122  1.0000
  C   C522      1.0  0.05474  0.89520  0.45822  1.0000
  C   C523      1.0  0.04415  0.86792  0.41130  1.0000
  C   C524      1.0  0.04355  0.88778  0.40302  1.0000
  C   C525      1.0  0.31635  0.94007  0.23590  1.0000
  C   C526      1.0  0.00723  0.64507  0.20258  1.0000
  C   C527      1.0  0.23052  0.87905  0.00620  1.0000
  C   C528      1.0  0.28441  0.98472  0.18643  1.0000
  H   H421      1.0  0.25999  0.98355  0.09250  1.0000
  C   C529      1.0  0.07769  0.59865  0.00553  1.0000
  H   H422      1.0  0.01120  0.69034  0.07328  1.0000
  P   P19       1.0  0.11698  0.49543  0.02070  1.0000
  C   C530      1.0  0.02413  0.49809  0.09424  1.0000
  C   C531      1.0  0.09151  0.52714  0.99940  1.0000
  C   C532      1.0  0.00949  0.53050  0.17935  1.0000
  C   C533      1.0  0.15883  0.87821  0.02130  1.0000
  C   C534      1.0  0.99636  0.77567  0.29965  1.0000
  H   H423      1.0  0.02457  0.51001  0.11181  1.0000
  H   H424      1.0  0.01107  0.67740  0.01608  1.0000
  C   C535      1.0  0.99535  0.51704  0.17511  1.0000
  H   H425      1.0  0.08896  0.83171  0.48887  1.0000
  C   C536      1.0  0.32620  0.97240  0.27275  1.0000
  H   H426      1.0  0.05906  0.90574  0.47627  1.0000
  C   C537      1.0  0.00143  0.49703  0.17165  1.0000
  C   C538      1.0  0.30218  0.99220  0.17783  1.0000
  C   C539      1.0  0.07806  0.54326  0.00520  1.0000
  C   C540      1.0  0.00645  0.49414  0.07953  1.0000
  H   H427      1.0  0.28687  0.85638  0.49223  1.0000
  Fe  Fe37      1.0  0.08303  0.78031  0.61949  1.0000
  S   S74       1.0  0.07063  0.81003  0.63725  1.0000
  S   S75       1.0  0.09732  0.77788  0.56761  1.0000
  Fe  Fe38      1.0  0.07304  0.76038  0.68519  1.0000
  S   S76       1.0  0.05961  0.78905  0.70592  1.0000
  S   S77       1.0  0.07060  0.73505  0.72246  1.0000
  Fe  Fe39      1.0  0.04542  0.79392  0.65611  1.0000
  S   S78       1.0  0.01411  0.80357  0.63987  1.0000
  Fe  Fe40      1.0  0.08607  0.80304  0.68611  1.0000
  S   S79       1.0  0.10007  0.82479  0.72233  1.0000
  S   S80       1.0  0.05719  0.76473  0.63621  1.0000
  S   S81       1.0  0.10006  0.77400  0.66739  1.0000
  Fe  Fe41      1.0  0.19009  0.89565  0.79548  1.0000
  S   S82       1.0  0.21868  0.88442  0.81978  1.0000
  S   S83       1.0  0.17309  0.87493  0.76173  1.0000
  Fe  Fe42      1.0  0.19626  0.93877  0.81837  1.0000
  S   S84       1.0  0.22500  0.92950  0.84222  1.0000
  S   S85       1.0  0.18479  0.97022  0.83152  1.0000
  Fe  Fe43      1.0  0.23159  0.91077  0.79681  1.0000
  S   S86       1.0  0.25656  0.91455  0.75934  1.0000
  Fe  Fe44      1.0  0.20975  0.90443  0.86367  1.0000
  S   S87       1.0  0.20602  0.90346  0.92095  1.0000
  S   S88       1.0  0.20326  0.92148  0.77186  1.0000
  S   S89       1.0  0.18076  0.91403  0.84012  1.0000
  Fe  Fe45      1.0  0.07751  0.60574  0.85837  1.0000
  S   S90       1.0  0.09131  0.59560  0.80960  1.0000
  S   S91       1.0  0.09285  0.60341  0.90832  1.0000
  Fe  Fe46      1.0  0.03849  0.61662  0.82647  1.0000
  S   S92       1.0  0.04867  0.60690  0.77590  1.0000
  S   S93       1.0  0.00826  0.62876  0.84017  1.0000
  Fe  Fe47      1.0  0.06368  0.58059  0.80194  1.0000
  S   S94       1.0  0.05808  0.55000  0.78302  1.0000
  Fe  Fe48      1.0  0.07510  0.62295  0.78763  1.0000
  S   S95       1.0  0.08662  0.64238  0.74661  1.0000
  S   S96       1.0  0.05110  0.58938  0.85154  1.0000
  S   S97       1.0  0.06392  0.63408  0.83714  1.0000
  H   H428      1.0  0.16175  0.91350  0.95238  1.0000
  H   H429      1.0  0.10559  0.69122  0.82237  1.0000
  H   H430      1.0  0.00805  0.73916  0.60402  1.0000
  C   C541      1.0  0.08599  0.54716  0.90314  1.0000
  H   H431      1.0  0.03199  0.73710  0.55667  1.0000
  C   C542      1.0  0.28242  0.91011  0.75427  1.0000
  C   C543      1.0  0.29435  0.89948  0.77722  1.0000
  H   H432      1.0  0.14826  0.50846  0.73330  1.0000
  C   C544      1.0  0.01170  0.78211  0.54863  1.0000
  C   C545      1.0  0.29120  0.91739  0.72568  1.0000
  H   H433      1.0  0.28791  0.89380  0.79935  1.0000
  H   H434      1.0  0.05614  0.55852  0.90862  1.0000
  H   H435      1.0  0.28220  0.92583  0.70793  1.0000
  C   C546      1.0  0.02359  0.54977  0.96748  1.0000
  C   C547      1.0  0.00717  0.74419  0.68764  1.0000
  C   C548      1.0  0.00551  0.53024  0.78150  1.0000
  C   C549      1.0  0.26770  0.96708  0.72566  1.0000
  H   H436      1.0  0.06718  0.49551  0.90975  1.0000
  C   C550      1.0  0.07530  0.70921  0.72824  1.0000
  C   C551      1.0  0.08600  0.69706  0.70556  1.0000
  C   C552      1.0  0.08917  0.67671  0.71148  1.0000
  C   C553      1.0  0.08181  0.66814  0.74016  1.0000
  C   C554      1.0  0.07129  0.68029  0.76299  1.0000
  C   C555      1.0  0.06807  0.70064  0.75702  1.0000
  H   H437      1.0  0.09229  0.70333  0.68390  1.0000
  H   H438      1.0  0.09761  0.66756  0.69389  1.0000
  H   H439      1.0  0.06574  0.67403  0.78537  1.0000
  H   H440      1.0  0.06000  0.70985  0.77500  1.0000
  C   C556      1.0  0.15240  0.86142  0.75095  1.0000
  C   C557      1.0  0.15292  0.85017  0.72151  1.0000
  C   C558      1.0  0.13715  0.83918  0.71213  1.0000
  C   C559      1.0  0.12048  0.83889  0.73228  1.0000
  C   C560      1.0  0.11996  0.85016  0.76171  1.0000
  C   C561      1.0  0.13559  0.86140  0.77081  1.0000
  H   H441      1.0  0.16563  0.85002  0.70564  1.0000
  H   H442      1.0  0.13792  0.83090  0.68925  1.0000
  H   H443      1.0  0.10724  0.85032  0.77756  1.0000
  H   H444      1.0  0.13465  0.87003  0.79331  1.0000
  H   H445      1.0  0.05969  0.80209  0.56181  1.0000
  C   C562      1.0  0.06845  0.52710  0.79843  1.0000
  C   C563      1.0  0.08637  0.52525  0.81508  1.0000
  H   H446      1.0  0.16702  0.94644  0.93210  1.0000
  H   H447      1.0  0.09390  0.53816  0.82019  1.0000
  C   C564      1.0  0.25304  0.90009  0.66542  1.0000
  C   C565      1.0  0.14528  0.51396  0.93867  1.0000
  C   C566      1.0  0.08110  0.89010  0.93678  1.0000
  C   C567      1.0  0.03797  0.82657  0.56445  1.0000
  H   H448      1.0  0.18595  0.98282  0.76201  1.0000
  H   H449      1.0  0.07360  0.55320  0.98513  1.0000
  C   C568      1.0  0.21161  0.89751  0.96349  1.0000
  C   C569      1.0  0.13261  0.51140  0.73048  1.0000
  H   H450      1.0  0.23566  0.87624  0.95319  1.0000
  H   H451      1.0  0.06962  0.72092  0.64942  1.0000
  H   H452      1.0  0.10203  0.73213  0.63817  1.0000
  C   C570      1.0  0.08799  0.77219  0.52757  1.0000
  C   C571      1.0  0.07035  0.76365  0.52339  1.0000
  C   C572      1.0  0.99987  0.68077  0.75844  1.0000
  H   H453      1.0  0.06191  0.76025  0.54500  1.0000
  C   C573      1.0  0.07915  0.59988  0.94487  1.0000
  C   C574      1.0  0.06601  0.54537  0.90691  1.0000
  C   C575      1.0  0.08938  0.72084  0.55934  1.0000
  C   C576      1.0  0.02646  0.65716  0.74261  1.0000
  H   H454      1.0  0.05161  0.59804  0.92017  1.0000
  P   P20       1.0  0.29873  0.87794  0.60720  1.0000
  H   H455      1.0  0.11444  0.53190  0.89769  1.0000
  H   H456      1.0  0.01082  0.51351  0.82612  1.0000
  H   H457      1.0  0.31143  0.81173  0.55838  1.0000
  C   C577      1.0  0.24738  0.97089  0.72267  1.0000
  H   H458      1.0  0.11722  0.49542  0.64948  1.0000
  H   H459      1.0  0.27707  0.96664  0.70409  1.0000
  C   C578      1.0  0.24871  0.94920  0.63176  1.0000
  H   H460      1.0  0.11441  0.73316  0.58040  1.0000
  H   H461      1.0  0.06946  0.90122  0.93088  1.0000
  H   H462      1.0  0.22626  0.88105  0.60438  1.0000
  C   C579      1.0  0.21627  0.95465  0.97596  1.0000
  H   H463      1.0  0.29168  0.95930  0.75890  1.0000
  H   H464      1.0  0.01690  0.67776  0.57123  1.0000
  C   C580      1.0  0.02781  0.84178  0.54695  1.0000
  H   H465      1.0  0.22809  0.93896  0.93304  1.0000
  H   H466      1.0  0.22218  0.89855  0.65818  1.0000
  C   C581      1.0  0.06349  0.71447  0.59810  1.0000
  C   C582      1.0  0.14985  0.77883  0.79477  1.0000
  C   C583      1.0  0.14833  0.86591  0.89009  1.0000
  H   H467      1.0  0.06289  0.70895  0.54496  1.0000
  H   H468      1.0  0.25130  0.90734  0.68930  1.0000
  H   H469      1.0  0.09712  0.52467  0.97456  1.0000
  H   H470      1.0  0.25906  0.87202  0.58202  1.0000
  C   C584      1.0  0.27174  0.89523  0.65268  1.0000
  C   C585      1.0  0.31793  0.93279  0.59756  1.0000
  C   C586      1.0  0.01308  0.64340  0.73602  1.0000
  H   H471      1.0  0.08858  0.84555  0.97396  1.0000
  H   H472      1.0  0.00390  0.79106  0.70705  1.0000
  C   C587      1.0  0.09502  0.50653  0.82381  1.0000
  H   H473      1.0  0.03469  0.64403  0.88895  1.0000
  C   C588      1.0  0.99335  0.60710  0.79018  1.0000
  H   H474      1.0  0.16472  0.83433  0.81304  1.0000
  C   C589      1.0  0.31465  0.89600  0.77138  1.0000
  H   H475      1.0  0.00238  0.64472  0.91528  1.0000
  C   C590      1.0  0.05202  0.81406  0.54828  1.0000
  C   C591      1.0  0.04583  0.64661  0.65944  1.0000
  H   H476      1.0  0.29984  0.82202  0.50224  1.0000
  C   C592      1.0  0.01290  0.56140  0.83969  1.0000
  C   C593      1.0  0.20688  0.96243  0.91919  1.0000
  H   H477      1.0  0.31555  0.85332  0.72047  1.0000
  C   C594      1.0  0.19355  0.97746  0.93050  1.0000
  C   C595      1.0  0.27432  0.88503  0.62253  1.0000
  C   C596      1.0  0.18339  0.85945  0.98877  1.0000
  C   C597      1.0  0.03058  0.64421  0.98492  1.0000
  C   C598      1.0  0.02738  0.65645  0.65484  1.0000
  H   H478      1.0  0.18582  0.85888  0.83461  1.0000
  H   H479      1.0  0.16762  0.80362  0.72965  1.0000
  C   C599      1.0  0.21820  0.95103  0.94188  1.0000
  C   C600      1.0  0.16033  0.84275  0.83500  1.0000
  H   H480      1.0  0.03267  0.59588  0.97199  1.0000
  P   P21       1.0  0.03316  0.52476  0.91430  1.0000
  H   H481      1.0  0.13357  0.76608  0.94211  1.0000
  C   C601      1.0  0.30948  0.89922  0.59095  1.0000
  H   H482      1.0  0.09134  0.56157  0.90139  1.0000
  C   C602      1.0  0.05602  0.81681  0.51464  1.0000
  C   C603      1.0  0.23666  0.89508  0.64795  1.0000
  C   C604      1.0  0.04831  0.59657  0.97324  1.0000
  C   C605      1.0  0.14244  0.84033  0.85028  1.0000
  H   H483      1.0  0.27079  0.95931  0.80910  1.0000
  C   C606      1.0  0.23899  0.88517  0.61770  1.0000
  C   C607      1.0  0.05908  0.59778  0.94370  1.0000
  H   H484      1.0  0.17874  0.85874  0.93636  1.0000
  C   C608      1.0  0.08845  0.59990  0.97593  1.0000
  H   H485      1.0  0.19739  0.85093  0.98732  1.0000
  H   H486      1.0  0.28977  0.98085  0.60278  1.0000
  C   C609      1.0  0.07502  0.72055  0.62423  1.0000
  H   H487      1.0  0.13189  0.54018  0.75241  1.0000
  C   C610      1.0  0.17222  0.85669  0.84711  1.0000
  C   C611      1.0  0.09903  0.53043  0.90135  1.0000
  P   P22       1.0  0.23597  0.97517  0.68264  1.0000
  C   C612      1.0  0.03355  0.64455  0.91574  1.0000
  H   H488      1.0  0.03019  0.68641  0.75940  1.0000
  H   H489      1.0  0.28307  0.95103  0.57125  1.0000
  C   C613      1.0  0.31496  0.86822  0.63961  1.0000
  C   C614      1.0  0.07216  0.51003  0.90765  1.0000
  H   H490      1.0  0.07668  0.64692  0.65060  1.0000
  H   H491      1.0  0.04540  0.51120  0.77827  1.0000
  C   C615      1.0  0.02526  0.54930  0.85987  1.0000
  C   C616      1.0  0.06047  0.67203  0.62873  1.0000
  C   C617      1.0  0.25772  0.88009  0.60506  1.0000
  H   H492      1.0  0.09606  0.54669  0.74676  1.0000
  C   C618      1.0  0.13641  0.85186  0.87771  1.0000
  C   C619      1.0  0.31144  0.91376  0.71968  1.0000
  C   C620      1.0  0.02912  0.53045  0.95746  1.0000
  H   H493      1.0  0.02134  0.56146  0.94941  1.0000
  C   C621      1.0  0.04892  0.64393  0.96975  1.0000
  H   H494      1.0  0.04324  0.70766  0.67882  1.0000
  C   C622      1.0  0.06234  0.65438  0.64634  1.0000
  C   C623      1.0  0.09215  0.51188  0.90400  1.0000
  C   C624      1.0  0.17963  0.94297  0.67980  1.0000
  C   C625      1.0  0.19705  0.93342  0.69142  1.0000
  C   C626      1.0  0.21397  0.94339  0.69307  1.0000
  C   C627      1.0  0.21370  0.96287  0.68213  1.0000
  C   C628      1.0  0.01770  0.78273  0.51554  1.0000
  H   H495      1.0  0.11248  0.78283  0.50180  1.0000
  H   H496      1.0  0.01826  0.62873  0.72829  1.0000
  C   C629      1.0  0.02550  0.70745  0.56838  1.0000
  C   C630      1.0  0.00078  0.51696  0.80591  1.0000
  C   C631      1.0  0.25194  0.96640  0.64916  1.0000
  H   H497      1.0  0.18460  0.98602  0.91270  1.0000
  C   C632      1.0  0.02456  0.72452  0.54887  1.0000
  C   C633      1.0  0.26706  0.97759  0.63886  1.0000
  C   C634      1.0  0.07106  0.71414  0.56563  1.0000
  C   C635      1.0  0.20045  0.90698  0.98914  1.0000
  H   H498      1.0  0.25743  0.93034  0.59063  1.0000
  H   H499      1.0  0.10917  0.50521  0.83568  1.0000
  C   C636      1.0  0.23571  0.97081  0.75128  1.0000
  C   C637      1.0  0.10325  0.53296  0.73791  1.0000
  C   C638      1.0  0.01354  0.64564  0.96551  1.0000
  H   H500      1.0  0.05709  0.51203  0.67297  1.0000
  C   C639      1.0  0.14730  0.49728  0.91856  1.0000
  C   C640      1.0  0.30813  0.91693  0.60875  1.0000
  C   C641      1.0  0.15792  0.79510  0.74378  1.0000
  C   C642      1.0  0.22681  0.88361  0.97239  1.0000
  H   H501      1.0  0.16644  0.93532  0.67935  1.0000
  H   H502      1.0  0.19729  0.91838  0.69991  1.0000
  H   H503      1.0  0.22723  0.93593  0.70311  1.0000
  C   C643      1.0  0.15496  0.87569  0.96142  1.0000
  H   H504      1.0  0.28560  0.88047  0.53793  1.0000
  H   H505      1.0  0.15378  0.77470  0.81992  1.0000
  C   C644      1.0  0.10049  0.72740  0.58544  1.0000
  H   H506      1.0  0.17616  0.79337  0.78723  1.0000
  H   H507      1.0  0.00389  0.50023  0.94161  1.0000
  H   H508      1.0  0.15106  0.74075  0.90653  1.0000
  H   H509      1.0  0.02209  0.51835  0.68658  1.0000
  H   H510      1.0  0.23492  0.96670  0.80419  1.0000
  H   H511      1.0  0.22000  0.97338  0.74955  1.0000
  H   H512      1.0  0.01391  0.73851  0.50379  1.0000
  C   C645      1.0  0.12343  0.52926  0.74121  1.0000
  C   C646      1.0  0.05041  0.50243  0.69015  1.0000
  H   H513      1.0  0.03484  0.82435  0.59051  1.0000
  C   C647      1.0  0.32098  0.85659  0.69600  1.0000
  C   C648      1.0  0.14337  0.90644  0.91129  1.0000
  C   C649      1.0  0.15460  0.91868  0.92984  1.0000
  C   C650      1.0  0.15754  0.93748  0.91847  1.0000
  C   C651      1.0  0.14905  0.94433  0.88873  1.0000
  C   C652      1.0  0.13770  0.93229  0.87019  1.0000
  C   C653      1.0  0.13513  0.91330  0.88111  1.0000
  C   C654      1.0  0.00567  0.69227  0.52734  1.0000
  C   C655      1.0  0.10036  0.89290  0.92796  1.0000
  C   C656      1.0  0.05890  0.52678  0.90833  1.0000
  H   H514      1.0  0.04743  0.63313  0.67365  1.0000
  H   H515      1.0  0.15188  0.95866  0.87937  1.0000
  H   H516      1.0  0.13169  0.93739  0.84657  1.0000
  H   H517      1.0  0.12705  0.90384  0.86573  1.0000
  H   H518      1.0  0.29245  0.86364  0.67608  1.0000
  H   H519      1.0  0.10322  0.90634  0.91560  1.0000
  C   C657      1.0  0.27612  0.96305  0.75682  1.0000
  H   H520      1.0  0.99627  0.54537  0.73675  1.0000
  C   C658      1.0  0.19614  0.97234  0.67026  1.0000
  H   H521      1.0  0.02191  0.78444  0.56853  1.0000
  H   H522      1.0  0.01460  0.65052  0.66529  1.0000
  H   H523      1.0  0.99510  0.69504  0.76850  1.0000
  C   C659      1.0  0.27830  0.97203  0.61093  1.0000
  C   C660      1.0  0.01983  0.67585  0.75372  1.0000
  H   H524      1.0  0.17562  0.87910  0.88342  1.0000
  C   C661      1.0  0.29797  0.85986  0.57453  1.0000
  C   C662      1.0  0.30509  0.84031  0.58005  1.0000
  C   C663      1.0  0.05041  0.64426  0.93515  1.0000
  H   H525      1.0  0.10398  0.60141  0.97714  1.0000
  H   H526      1.0  0.06467  0.64327  0.92340  1.0000
  C   C664      1.0  0.17277  0.86406  0.95980  1.0000
  H   H527      1.0  0.04199  0.65319  0.73971  1.0000
  H   H528      1.0  0.30023  0.91841  0.63188  1.0000
  H   H529      1.0  0.31047  0.83553  0.60422  1.0000
  H   H530      1.0  0.23726  0.94020  0.63906  1.0000
  C   C665      1.0  0.19143  0.98103  0.96458  1.0000
  H   H531      1.0  0.18898  0.91808  0.98290  1.0000
  C   C666      1.0  0.11113  0.86147  0.95217  1.0000
  H   H532      1.0  0.06205  0.64248  0.98476  1.0000
  H   H533      1.0  0.13654  0.79486  0.70469  1.0000
  C   C667      1.0  0.05560  0.77094  0.79239  1.0000
  C   C668      1.0  0.05293  0.79123  0.78826  1.0000
  C   C669      1.0  0.06906  0.80234  0.78827  1.0000
  C   C670      1.0  0.08783  0.79321  0.79279  1.0000
  C   C671      1.0  0.09065  0.77282  0.79707  1.0000
  C   C672      1.0  0.07436  0.76175  0.79693  1.0000
  P   P23       1.0  0.11486  0.76130  0.80470  1.0000
  C   C673      1.0  0.11607  0.73580  0.79249  1.0000
  C   C674      1.0  0.13212  0.77403  0.78082  1.0000
  C   C675      1.0  0.12753  0.77980  0.74816  1.0000
  C   C676      1.0  0.29105  0.86545  0.54280  1.0000
  H   H534      1.0  0.31757  0.94613  0.61205  1.0000
  C   C677      1.0  0.10961  0.72178  0.81447  1.0000
  C   C678      1.0  0.11084  0.70198  0.80560  1.0000
  C   C679      1.0  0.11845  0.69602  0.77472  1.0000
  C   C680      1.0  0.12462  0.70988  0.75252  1.0000
  C   C681      1.0  0.12340  0.72971  0.76126  1.0000
  C   C682      1.0  0.12054  0.76280  0.84837  1.0000
  C   C683      1.0  0.13516  0.74974  0.86226  1.0000
  C   C684      1.0  0.13980  0.75092  0.89596  1.0000
  C   C685      1.0  0.12996  0.76520  0.91600  1.0000
  C   C686      1.0  0.11548  0.77833  0.90232  1.0000
  C   C687      1.0  0.11078  0.77718  0.86862  1.0000
  H   H535      1.0  0.04319  0.76221  0.79110  1.0000
  H   H536      1.0  0.03844  0.79826  0.78380  1.0000
  H   H537      1.0  0.06715  0.81797  0.78363  1.0000
  H   H538      1.0  0.10014  0.80211  0.79227  1.0000
  H   H539      1.0  0.07606  0.74598  0.79936  1.0000
  H   H540      1.0  0.11376  0.77664  0.73717  1.0000
  H   H541      1.0  0.28423  0.89880  0.66702  1.0000
  H   H542      1.0  0.04031  0.54596  0.85233  1.0000
  H   H543      1.0  0.10345  0.72615  0.83835  1.0000
  H   H544      1.0  0.06644  0.80654  0.50228  1.0000
  H   H545      1.0  0.11907  0.68070  0.76766  1.0000
  H   H546      1.0  0.12996  0.70528  0.72820  1.0000
  H   H547      1.0  0.12797  0.74014  0.74338  1.0000
  H   H548      1.0  0.14303  0.73869  0.84698  1.0000
  C   C688      1.0  0.16265  0.78941  0.77630  1.0000
  H   H549      1.0  0.13304  0.82989  0.84015  1.0000
  H   H550      1.0  0.10786  0.78941  0.91783  1.0000
  H   H551      1.0  0.09956  0.78752  0.85854  1.0000
  C   C689      1.0  0.02199  0.72991  0.69620  1.0000
  H   H552      1.0  0.31785  0.91930  0.69742  1.0000
  H   H553      1.0  0.02379  0.85643  0.50009  1.0000
  C   C690      1.0  0.01215  0.73621  0.62948  1.0000
  C   C691      1.0  0.02699  0.72166  0.63785  1.0000
  C   C692      1.0  0.03179  0.71864  0.67150  1.0000
  P   P24       1.0  0.03956  0.70641  0.60645  1.0000
  C   C693      1.0  0.07684  0.87303  0.95325  1.0000
  C   C694      1.0  0.03351  0.51602  0.98154  1.0000
  C   C695      1.0  0.05906  0.51007  0.79161  1.0000
  C   C696      1.0  0.04200  0.68215  0.62439  1.0000
  H   H554      1.0  0.07650  0.52197  0.72302  1.0000
  H   H555      1.0  0.99552  0.68139  0.94257  1.0000
  H   H556      1.0  0.02625  0.72783  0.72194  1.0000
  H   H557      1.0  0.00724  0.60754  0.77794  1.0000
  P   P25       1.0  0.14062  0.88163  0.92456  1.0000
  C   C697      1.0  0.00221  0.74729  0.65432  1.0000
  C   C698      1.0  0.04651  0.83257  0.49723  1.0000
  H   H558      1.0  0.12231  0.85000  0.88854  1.0000
  C   C699      1.0  0.30565  0.82672  0.55407  1.0000
  C   C700      1.0  0.11553  0.87851  0.93536  1.0000
  C   C701      1.0  0.01804  0.54148  0.88909  1.0000
  C   C702      1.0  0.09344  0.72698  0.61792  1.0000
  C   C703      1.0  0.02547  0.67424  0.63768  1.0000
  C   C704      1.0  0.14045  0.79013  0.72966  1.0000
  C   C705      1.0  0.01606  0.69127  0.55726  1.0000
  H   H559      1.0  0.20814  0.95936  0.89283  1.0000
  H   H560      1.0  0.07355  0.67792  0.61950  1.0000
  H   H561      1.0  0.01853  0.56770  0.81731  1.0000
  H   H562      1.0  0.15082  0.52747  0.93031  1.0000
  C   C706      1.0  0.16628  0.86822  0.87452  1.0000
  C   C707      1.0  0.01429  0.72540  0.51890  1.0000
  C   C708      1.0  0.24415  0.96701  0.78238  1.0000
  H   H563      1.0  0.04418  0.49849  0.85928  1.0000
  H   H564      1.0  0.99974  0.75304  0.70682  1.0000
  C   C709      1.0  0.26006  0.94360  0.60400  1.0000
  C   C710      1.0  0.26435  0.96301  0.78514  1.0000
  H   H565      1.0  0.09481  0.72136  0.53410  1.0000
  C   C711      1.0  0.27459  0.95520  0.59322  1.0000
  C   C712      1.0  0.29173  0.85185  0.51686  1.0000
  H   H566      1.0  0.03256  0.78548  0.50960  1.0000
  H   H567      1.0  0.99852  0.67970  0.51874  1.0000
  C   C713      1.0  0.09214  0.51879  0.72419  1.0000
  C   C714      1.0  0.30792  0.86287  0.67081  1.0000
  H   H568      1.0  0.01915  0.53704  0.78282  1.0000
  C   C715      1.0  0.32116  0.89764  0.56226  1.0000
  H   H569      1.0  0.00643  0.49678  0.72584  1.0000
  C   C716      1.0  0.32629  0.96859  0.71359  1.0000
  C   C717      1.0  0.17916  0.96243  0.66931  1.0000
  H   H570      1.0  0.01118  0.68208  0.63549  1.0000
  C   C718      1.0  0.31805  0.97768  0.68525  1.0000
  C   C719      1.0  0.03057  0.50600  0.69769  1.0000
  C   C720      1.0  0.13604  0.51327  0.96955  1.0000
  C   C721      1.0  0.02571  0.50106  0.90292  1.0000
  H   H571      1.0  0.15429  0.49785  0.89449  1.0000
  C   C722      1.0  0.01521  0.64499  0.93080  1.0000
  C   C723      1.0  0.12159  0.49726  0.71644  1.0000
  H   H572      1.0  0.32360  0.88397  0.54896  1.0000
  H   H573      1.0  0.16557  0.96988  0.66067  1.0000
  H   H574      1.0  0.12264  0.85028  0.95838  1.0000
  H   H575      1.0  0.01671  0.85123  0.55950  1.0000
  C   C724      1.0  0.29908  0.83250  0.52246  1.0000
  H   H576      1.0  0.10223  0.49887  0.90238  1.0000
  H   H577      1.0  0.13464  0.52630  0.98493  1.0000
  H   H578      1.0  0.03886  0.50129  0.97439  1.0000
  C   C725      1.0  0.18861  0.99294  0.81222  1.0000
  C   C726      1.0  0.99824  0.54538  0.89730  1.0000
  H   H579      1.0  0.32367  0.88773  0.78934  1.0000
  C   C727      1.0  0.09186  0.85874  0.96101  1.0000
  H   H580      1.0  0.06191  0.87092  0.96008  1.0000
  C   C728      1.0  0.20297  0.96980  0.98762  1.0000
  C   C729      1.0  0.32334  0.90296  0.74249  1.0000
  C   C730      1.0  0.03196  0.84471  0.51339  1.0000
  H   H581      1.0  0.31843  0.96977  0.66193  1.0000
  C   C731      1.0  0.10123  0.50081  0.71317  1.0000
  C   C732      1.0  0.00482  0.70931  0.50814  1.0000
  C   C733      1.0  0.09879  0.77630  0.49900  1.0000
  H   H582      1.0  0.19533  0.98741  0.66211  1.0000
  C   C734      1.0  0.12863  0.49590  0.98050  1.0000
  H   H583      1.0  0.12001  0.49517  0.58865  1.0000
  H   H584      1.0  0.32603  0.94443  0.83764  1.0000
  H   H585      1.0  0.18049  0.99226  0.97290  1.0000
  H   H586      1.0  0.26987  0.99083  0.65206  1.0000
  C   C735      1.0  0.14813  0.88282  0.99241  1.0000
  H   H587      1.0  0.22480  0.94520  0.99298  1.0000
  Fe  Fe49      1.0  0.36233  0.07987  0.28904  1.0000
  S   S98       1.0  0.35974  0.06387  0.33741  1.0000
  Fe  Fe50      1.0  0.40180  0.09519  0.31076  1.0000
  S   S99       1.0  0.40158  0.08048  0.36021  1.0000
  S   S100      1.0  0.42549  0.11481  0.29562  1.0000
  Fe  Fe51      1.0  0.39175  0.05494  0.33229  1.0000
  S   S101      1.0  0.40666  0.02541  0.34520  1.0000
  Fe  Fe52      1.0  0.36977  0.09067  0.36168  1.0000
  S   S102      1.0  0.35547  0.10294  0.40871  1.0000
  S   S103      1.0  0.39408  0.06873  0.28208  1.0000
  S   S104      1.0  0.37024  0.10767  0.31384  1.0000
  Fe  Fe53      1.0  0.55715  0.05862  0.30811  1.0000
  S   S105      1.0  0.55463  0.08546  0.27651  1.0000
  S   S106      1.0  0.54649  0.03034  0.29101  1.0000
  Fe  Fe54      1.0  0.57434  0.07907  0.36622  1.0000
  S   S107      1.0  0.57348  0.10794  0.33893  1.0000
  S   S108      1.0  0.58484  0.06918  0.41742  1.0000
  Fe  Fe55      1.0  0.54325  0.10058  0.32284  1.0000
  S   S109      1.0  0.51623  0.12231  0.32317  1.0000
  Fe  Fe56      1.0  0.58514  0.09008  0.29451  1.0000
  S   S110      1.0  0.60696  0.09420  0.25199  1.0000
  S   S111      1.0  0.54368  0.07326  0.35307  1.0000
  S   S112      1.0  0.58800  0.06190  0.32319  1.0000
  C   C736      1.0  0.57832  0.08233  0.45403  1.0000
  C   C737      1.0  0.46433  0.04560  0.33034  1.0000
  C   C738      1.0  0.57136  0.10209  0.45317  1.0000
  C   C739      1.0  0.32991  0.02535  0.30379  1.0000
  H   H588      1.0  0.56974  0.10957  0.42957  1.0000
  C   C740      1.0  0.63246  0.09723  0.24759  1.0000
  C   C741      1.0  0.64103  0.09532  0.21580  1.0000
  H   H589      1.0  0.38974  0.05069  0.47493  1.0000
  C   C742      1.0  0.49426  0.16246  0.45114  1.0000
  H   H590      1.0  0.63207  0.09202  0.19481  1.0000
  H   H591      1.0  0.51148  0.99722  0.41077  1.0000
  H   H592      1.0  0.63802  0.10309  0.29901  1.0000
  C   C743      1.0  0.36314  0.09125  0.44605  1.0000
  C   C744      1.0  0.37496  0.07364  0.44560  1.0000
  C   C745      1.0  0.33813  0.01818  0.45645  1.0000
  H   H593      1.0  0.37934  0.06695  0.42214  1.0000
  H   H594      1.0  0.63130  0.05356  0.24602  1.0000
  C   C746      1.0  0.49157  0.11788  0.31445  1.0000
  C   C747      1.0  0.48050  0.13186  0.29553  1.0000
  C   C748      1.0  0.46058  0.13026  0.28988  1.0000
  C   C749      1.0  0.45094  0.11512  0.30408  1.0000
  C   C750      1.0  0.46175  0.10127  0.32398  1.0000
  C   C751      1.0  0.48214  0.10243  0.32860  1.0000
  H   H595      1.0  0.48744  0.14399  0.28485  1.0000
  H   H596      1.0  0.45255  0.14097  0.27432  1.0000
  H   H597      1.0  0.45446  0.08966  0.33548  1.0000
  H   H598      1.0  0.49051  0.09157  0.34332  1.0000
  H   H599      1.0  0.41095  0.15882  0.29117  1.0000
  C   C752      1.0  0.56976  0.00206  0.37132  1.0000
  C   C753      1.0  0.56408  0.01672  0.34829  1.0000
  C   C754      1.0  0.55201  0.01268  0.32163  1.0000
  H   H600      1.0  0.52341  0.15670  0.43166  1.0000
  H   H601      1.0  0.36271  0.03361  0.44012  1.0000
  H   H602      1.0  0.57958  0.00507  0.39130  1.0000
  H   H603      1.0  0.56932  0.03100  0.35101  1.0000
  C   C755      1.0  0.33160  0.06770  0.12349  1.0000
  C   C756      1.0  0.33666  0.07990  0.14934  1.0000
  C   C757      1.0  0.37147  0.01431  0.36675  1.0000
  C   C758      1.0  0.39018  0.00821  0.35524  1.0000
  C   C759      1.0  0.60684  0.01004  0.23306  1.0000
  H   H604      1.0  0.36764  0.02954  0.37198  1.0000
  H   H605      1.0  0.43898  0.03204  0.38616  1.0000
  H   H606      1.0  0.45054  0.05836  0.28648  1.0000
  H   H607      1.0  0.42889  0.20454  0.39010  1.0000
  H   H608      1.0  0.51405  0.10512  0.38989  1.0000
  H   H609      1.0  0.55826  0.03029  0.44323  1.0000
  C   C760      1.0  0.62320  0.00425  0.30823  1.0000
  C   C761      1.0  0.54353  0.02982  0.43373  1.0000
  H   H610      1.0  0.58629  0.05759  0.48565  1.0000
  P   P26       1.0  0.48223  0.02819  0.38696  1.0000
  H   H611      1.0  0.59720  0.06254  0.19627  1.0000
  H   H612      1.0  0.34850  0.07525  0.16616  1.0000
  H   H613      1.0  0.41281  0.22993  0.42624  1.0000
  H   H614      1.0  0.34294  0.00552  0.37900  1.0000
  H   H615      1.0  0.36128  0.01958  0.30209  1.0000
  C   C762      1.0  0.59977  0.04782  0.20616  1.0000
  C   C763      1.0  0.41172  0.21096  0.46871  1.0000
  C   C764      1.0  0.51134  0.11149  0.47370  1.0000
  H   H616      1.0  0.46409  0.16776  0.46360  1.0000
  C   C765      1.0  0.45510  0.05568  0.46774  1.0000
  C   C766      1.0  0.50619  0.02867  0.40569  1.0000
  C   C767      1.0  0.46384  0.03915  0.41552  1.0000
  H   H617      1.0  0.53907  0.06107  0.42812  1.0000
  H   H618      1.0  0.40273  0.15338  0.42115  1.0000
  H   H619      1.0  0.41437  0.04779  0.42349  1.0000
  C   C768      1.0  0.53270  0.04721  0.42502  1.0000
  C   C769      1.0  0.59084  0.04302  0.23583  1.0000
  C   C770      1.0  0.33194  0.02535  0.23456  1.0000
  C   C771      1.0  0.53568  0.01187  0.42886  1.0000
  H   H620      1.0  0.45357  0.12666  0.48786  1.0000
  H   H621      1.0  0.42884  0.16303  0.47077  1.0000
  C   C772      1.0  0.50811  0.10506  0.41486  1.0000
  H   H622      1.0  0.54442  0.99836  0.43457  1.0000
  H   H623      1.0  0.51224  0.14966  0.37487  1.0000
  C   C773      1.0  0.48207  0.09852  0.45264  1.0000
  C   C774      1.0  0.43533  0.05614  0.45959  1.0000
  C   C775      1.0  0.48973  0.09850  0.42051  1.0000
  C   C776      1.0  0.59445  0.02431  0.24940  1.0000
  H   H624      1.0  0.47717  0.15106  0.36193  1.0000
  H   H625      1.0  0.45060  0.04149  0.33978  1.0000
  C   C777      1.0  0.42541  0.17756  0.46072  1.0000
  H   H626      1.0  0.48155  0.06749  0.26175  1.0000
  H   H627      1.0  0.34310  0.05678  0.40451  1.0000
  C   C778      1.0  0.47771  0.00339  0.37586  1.0000
  H   H628      1.0  0.58752  0.02100  0.27268  1.0000
  C   C779      1.0  0.46928  0.04726  0.44592  1.0000
  H   H629      1.0  0.56200  0.12768  0.48223  1.0000
  H   H630      1.0  0.45948  0.06182  0.49108  1.0000
  C   C780      1.0  0.64430  0.10154  0.27444  1.0000
  H   H631      1.0  0.41354  0.99571  0.42291  1.0000
  C   C781      1.0  0.35759  0.00070  0.37097  1.0000
  H   H632      1.0  0.41550  0.14993  0.34970  1.0000
  H   H633      1.0  0.40460  0.22222  0.48450  1.0000
  H   H634      1.0  0.63054  0.06309  0.30496  1.0000
  C   C782      1.0  0.61237  0.03385  0.18994  1.0000
  H   H635      1.0  0.46803  0.09291  0.45649  1.0000
  H   H636      1.0  0.49920  0.16520  0.47614  1.0000
  H   H637      1.0  0.62675  0.01614  0.29230  1.0000
  C   C783      1.0  0.62587  0.00594  0.34249  1.0000
  C   C784      1.0  0.42972  0.04782  0.42982  1.0000
  H   H638      1.0  0.62573  0.00453  0.19024  1.0000
  H   H639      1.0  0.42436  0.06277  0.47647  1.0000
  C   C785      1.0  0.61589  0.01501  0.20325  1.0000
  H   H640      1.0  0.58121  0.05390  0.24850  1.0000
  C   C786      1.0  0.51707  0.01127  0.41499  1.0000
  S   S113      1.0  0.34087  0.07488  0.24643  1.0000
  H   H641      1.0  0.51351  0.04161  0.34386  1.0000
  C   C787      1.0  0.46422  0.05487  0.29942  1.0000
  C   C788      1.0  0.49948  0.04579  0.33264  1.0000
  C   C789      1.0  0.48166  0.05995  0.28540  1.0000
  C   C790      1.0  0.34795  0.02184  0.28781  1.0000
  C   C791      1.0  0.44385  0.03918  0.40816  1.0000
  C   C792      1.0  0.41625  0.19209  0.48111  1.0000
  C   C793      1.0  0.51891  0.11147  0.44145  1.0000
  C   C794      1.0  0.49927  0.05531  0.30192  1.0000
  H   H642      1.0  0.53324  0.11638  0.43696  1.0000
  C   C795      1.0  0.48191  0.04140  0.34782  1.0000
  H   H643      1.0  0.50625  0.06021  0.40321  1.0000
  H   H644      1.0  0.50028  0.00096  0.33808  1.0000
  C   C796      1.0  0.58078  0.07284  0.48482  1.0000
  C   C797      1.0  0.49270  0.10520  0.47952  1.0000
  H   H645      1.0  0.63101  0.01920  0.35272  1.0000
  H   H646      1.0  0.48439  0.04698  0.45325  1.0000
  H   H647      1.0  0.51285  0.05897  0.29074  1.0000
  C   C798      1.0  0.34717  0.03240  0.43830  1.0000
  H   H648      1.0  0.61948  0.03771  0.16715  1.0000
  H   H649      1.0  0.45642  0.19796  0.29814  1.0000
  H   H650      1.0  0.48151  0.09319  0.39996  1.0000
  H   H651      1.0  0.43119  0.18287  0.26501  1.0000
  C   C799      1.0  0.64358  0.04894  0.26175  1.0000
  C   C800      1.0  0.34897  0.02188  0.25325  1.0000
  C   C801      1.0  0.41784  0.00754  0.47183  1.0000
  H   H652      1.0  0.45755  0.12201  0.39487  1.0000
  C   C802      1.0  0.51417  0.04666  0.41088  1.0000
  C   C803      1.0  0.38084  0.06446  0.47553  1.0000
  C   C804      1.0  0.33608  0.04557  0.41788  1.0000
  C   C805      1.0  0.40678  0.00007  0.44642  1.0000
  H   H653      1.0  0.36305  0.01984  0.24105  1.0000
  H   H654      1.0  0.46114  0.18942  0.35730  1.0000
  C   C806      1.0  0.43509  0.10454  0.41229  1.0000
  C   C807      1.0  0.41597  0.10462  0.42413  1.0000
  C   C808      1.0  0.40432  0.12224  0.42683  1.0000
  C   C809      1.0  0.41211  0.13991  0.41948  1.0000
  C   C810      1.0  0.43174  0.14005  0.40984  1.0000
  C   C811      1.0  0.44293  0.12222  0.40493  1.0000
  P   P27       1.0  0.44203  0.16289  0.40146  1.0000
  C   C812      1.0  0.43014  0.18179  0.42766  1.0000
  C   C813      1.0  0.46781  0.16026  0.41147  1.0000
  C   C814      1.0  0.48166  0.15464  0.38685  1.0000
  C   C815      1.0  0.50161  0.15367  0.39412  1.0000
  C   C816      1.0  0.50792  0.15766  0.42615  1.0000
  H   H655      1.0  0.50535  0.06797  0.48748  1.0000
  C   C817      1.0  0.47429  0.16382  0.44386  1.0000
  C   C818      1.0  0.65931  0.04941  0.31535  1.0000
  C   C819      1.0  0.37769  0.00468  0.48085  1.0000
  H   H656      1.0  0.32953  0.02588  0.33064  1.0000
  C   C820      1.0  0.41636  0.21531  0.43589  1.0000
  C   C821      1.0  0.42553  0.20080  0.41542  1.0000
  C   C822      1.0  0.43853  0.16922  0.35820  1.0000
  C   C823      1.0  0.42428  0.16080  0.33924  1.0000
  C   C824      1.0  0.42154  0.16591  0.30587  1.0000
  C   C825      1.0  0.43305  0.17935  0.29110  1.0000
  C   C826      1.0  0.44729  0.18778  0.30976  1.0000
  C   C827      1.0  0.45000  0.18281  0.34321  1.0000
  H   H657      1.0  0.44362  0.09074  0.40802  1.0000
  H   H658      1.0  0.40986  0.09097  0.42990  1.0000
  H   H659      1.0  0.38917  0.12217  0.43433  1.0000
  C   C828      1.0  0.64317  0.05442  0.29513  1.0000
  C   C829      1.0  0.56708  0.11232  0.48300  1.0000
  C   C830      1.0  0.35740  0.09972  0.47667  1.0000
  C   C831      1.0  0.48872  0.99383  0.35030  1.0000
  H   H660      1.0  0.33036  0.10757  0.17389  1.0000
  H   H661      1.0  0.45456  0.00040  0.41170  1.0000
  H   H662      1.0  0.43326  0.00893  0.46807  1.0000
  H   H663      1.0  0.56864  0.99710  0.24588  1.0000
  H   H664      1.0  0.34824  0.11335  0.47714  1.0000
  H   H665      1.0  0.65910  0.05409  0.34106  1.0000
  P   P28       1.0  0.35186  0.00255  0.48582  1.0000
  C   C832      1.0  0.54467  0.99434  0.31915  1.0000
  C   C833      1.0  0.38683  0.99846  0.45105  1.0000
  H   H666      1.0  0.33297  0.02628  0.20787  1.0000
  H   H667      1.0  0.33985  0.05370  0.11974  1.0000
  H   H668      1.0  0.41753  0.12838  0.49055  1.0000
  Fe  Fe57      1.0  0.37831  0.07381  0.59423  1.0000
  S   S114      1.0  0.37344  0.10514  0.61054  1.0000
  S   S115      1.0  0.38279  0.06060  0.54291  1.0000
  Fe  Fe58      1.0  0.38422  0.05976  0.66525  1.0000
  S   S116      1.0  0.38022  0.08979  0.68753  1.0000
  S   S117      1.0  0.38978  0.03255  0.69520  1.0000
  Fe  Fe59      1.0  0.35475  0.09411  0.65213  1.0000
  Fe  Fe60      1.0  0.39922  0.09782  0.64452  1.0000
  S   S118      1.0  0.42537  0.11610  0.64479  1.0000
  S   S119      1.0  0.35790  0.06328  0.63262  1.0000
  S   S120      1.0  0.40492  0.06730  0.62569  1.0000
  Fe  Fe61      1.0  0.54184  0.08517  0.65488  1.0000
  S   S121      1.0  0.55196  0.07232  0.60597  1.0000
  S   S122      1.0  0.51172  0.07681  0.67136  1.0000
  Fe  Fe62      1.0  0.58339  0.09877  0.67071  1.0000
  S   S123      1.0  0.59557  0.08695  0.62220  1.0000
  S   S124      1.0  0.60128  0.11481  0.70910  1.0000
  Fe  Fe63      1.0  0.56741  0.09949  0.59938  1.0000
  S   S125      1.0  0.56459  0.11617  0.55075  1.0000
  Fe  Fe64      1.0  0.57889  0.06098  0.63334  1.0000
  S   S126      1.0  0.59239  0.03063  0.62236  1.0000
  S   S127      1.0  0.55587  0.11344  0.64705  1.0000
  S   S128      1.0  0.56810  0.07189  0.68308  1.0000
  C   C834      1.0  0.62482  0.11579  0.72819  1.0000
  C   C835      1.0  0.62702  0.13126  0.75024  1.0000
  H   H669      1.0  0.41733  0.01960  0.52141  1.0000
  C   C836      1.0  0.48475  0.15006  0.58169  1.0000
  H   H670      1.0  0.61475  0.14187  0.75491  1.0000
  H   H671      1.0  0.63790  0.03048  0.78871  1.0000
  C   C837      1.0  0.43397  0.01269  0.64314  1.0000
  H   H672      1.0  0.37221  0.00052  0.59224  1.0000
  C   C838      1.0  0.57483  0.01678  0.67813  1.0000
  C   C839      1.0  0.58422  0.01230  0.64790  1.0000
  H   H673      1.0  0.41264  0.18871  0.50655  1.0000
  H   H674      1.0  0.45672  0.03181  0.56556  1.0000
  H   H675      1.0  0.63820  0.11669  0.55219  1.0000
  H   H676      1.0  0.57291  0.03167  0.68672  1.0000
  H   H677      1.0  0.50359  0.03473  0.66378  1.0000
  C   C840      1.0  0.52766  0.02153  0.63574  1.0000
  C   C841      1.0  0.38095  0.01362  0.67209  1.0000
  C   C842      1.0  0.37980  0.01490  0.63744  1.0000
  C   C843      1.0  0.51127  0.02102  0.65612  1.0000
  H   H678      1.0  0.38474  0.02745  0.62468  1.0000
  C   C844      1.0  0.46663  0.01940  0.55820  1.0000
  C   C845      1.0  0.44940  0.10459  0.65011  1.0000
  C   C846      1.0  0.46567  0.11502  0.64285  1.0000
  C   C847      1.0  0.48489  0.10660  0.64826  1.0000
  C   C848      1.0  0.48802  0.08773  0.66154  1.0000
  C   C849      1.0  0.47176  0.07721  0.66838  1.0000
  C   C850      1.0  0.45260  0.08550  0.66248  1.0000
  H   H679      1.0  0.46338  0.12981  0.63347  1.0000
  H   H680      1.0  0.49724  0.11489  0.64299  1.0000
  H   H681      1.0  0.47399  0.06267  0.67885  1.0000
  H   H682      1.0  0.44028  0.07734  0.66854  1.0000
  C   C851      1.0  0.57636  0.08300  0.51460  1.0000
  C   C852      1.0  0.56963  0.10283  0.51378  1.0000
  H   H683      1.0  0.52031  0.11599  0.49392  1.0000
  H   H684      1.0  0.57846  0.07558  0.53819  1.0000
  C   C853      1.0  0.49475  0.07395  0.56984  1.0000
  H   H685      1.0  0.63977  0.09031  0.70542  1.0000
  H   H686      1.0  0.60763  0.05106  0.68118  1.0000
  C   C854      1.0  0.64483  0.13330  0.76644  1.0000
  H   H687      1.0  0.64596  0.14546  0.78325  1.0000
  H   H688      1.0  0.35893  0.09717  0.53020  1.0000
  H   H689      1.0  0.46357  0.13702  0.55211  1.0000
  H   H690      1.0  0.63716  0.02704  0.63452  1.0000
  H   H691      1.0  0.61941  0.01671  0.68945  1.0000
  H   H692      1.0  0.44626  0.05208  0.76236  1.0000
  H   H693      1.0  0.45095  0.02142  0.73024  1.0000
  C   C855      1.0  0.63003  0.02097  0.73948  1.0000
  C   C856      1.0  0.33006  0.02525  0.58831  1.0000
  H   H694      1.0  0.37224  0.15528  0.63092  1.0000
  C   C857      1.0  0.62562  0.12488  0.63318  1.0000
  P   P29       1.0  0.48419  0.10175  0.52143  1.0000
  H   H695      1.0  0.34142  0.03762  0.70723  1.0000
  C   C858      1.0  0.42616  0.11737  0.50463  1.0000
  C   C859      1.0  0.60743  0.13522  0.62829  1.0000
  C   C860      1.0  0.63008  0.12224  0.57371  1.0000
  H   H696      1.0  0.41116  0.00790  0.78120  1.0000
  H   H697      1.0  0.59842  0.13973  0.64951  1.0000
  H   H698      1.0  0.36477  0.12889  0.72612  1.0000
  H   H699      1.0  0.58601  0.14614  0.59235  1.0000
  C   C861      1.0  0.33233  0.15903  0.68189  1.0000
  C   C862      1.0  0.47653  0.05794  0.75996  1.0000
  C   C863      1.0  0.47868  0.13596  0.55975  1.0000
  C   C864      1.0  0.47848  0.00945  0.58193  1.0000
  C   C865      1.0  0.33991  0.14697  0.70781  1.0000
  H   H700      1.0  0.60301  0.01109  0.78480  1.0000
  C   C866      1.0  0.35905  0.13830  0.70618  1.0000
  H   H701      1.0  0.33109  0.14403  0.72918  1.0000
  C   C867      1.0  0.36345  0.09060  0.50670  1.0000
  C   C868      1.0  0.51288  0.04690  0.52528  1.0000
  P   P30       1.0  0.48505  0.00217  0.69554  1.0000
  H   H702      1.0  0.53298  0.03545  0.62905  1.0000
  C   C869      1.0  0.45074  0.01541  0.66169  1.0000
  H   H703      1.0  0.38559  0.13470  0.67732  1.0000
  C   C870      1.0  0.61172  0.13225  0.56888  1.0000
  C   C871      1.0  0.43039  0.99399  0.63207  1.0000
  C   C872      1.0  0.33642  0.03813  0.56455  1.0000
  H   H704      1.0  0.62778  0.04474  0.58276  1.0000
  C   C873      1.0  0.44656  0.11637  0.50332  1.0000
  H   H705      1.0  0.35658  0.07348  0.78895  1.0000
  C   C874      1.0  0.65914  0.10414  0.73933  1.0000
  C   C875      1.0  0.62125  0.02699  0.70932  1.0000
  C   C876      1.0  0.45780  0.10240  0.52231  1.0000
  C   C877      1.0  0.34410  0.16190  0.65405  1.0000
  C   C878      1.0  0.34287  0.03109  0.53354  1.0000
  H   H706      1.0  0.58304  1.00000  0.54962  1.0000
  C   C879      1.0  0.35090  0.05562  0.74668  1.0000
  H   H707      1.0  0.55810  0.01685  0.51277  1.0000
  H   H708      1.0  0.34807  0.04125  0.51562  1.0000
  C   C880      1.0  0.44824  0.08951  0.54260  1.0000
  C   C881      1.0  0.42785  0.09033  0.54328  1.0000
  C   C882      1.0  0.65280  0.05044  0.65440  1.0000
  H   H709      1.0  0.42051  0.08038  0.55895  1.0000
  H   H710      1.0  0.38229  0.01683  0.52973  1.0000
  H   H711      1.0  0.40100  0.10496  0.52533  1.0000
  C   C883      1.0  0.46781  0.01350  0.52499  1.0000
  C   C884      1.0  0.46374  0.99926  0.67025  1.0000
  C   C885      1.0  0.36323  0.15317  0.65249  1.0000
  C   C886      1.0  0.32684  0.06577  0.78834  1.0000
  C   C887      1.0  0.50404  0.14889  0.59291  1.0000
  C   C888      1.0  0.48081  0.99766  0.51547  1.0000
  C   C889      1.0  0.40891  0.01349  0.50181  1.0000
  C   C890      1.0  0.38890  0.01200  0.50640  1.0000
  C   C891      1.0  0.46069  0.04699  0.75349  1.0000
  C   C892      1.0  0.48189  0.02352  0.72202  1.0000
  H   H712      1.0  0.47792  0.01427  0.60753  1.0000
  C   C893      1.0  0.51125  0.11940  0.56046  1.0000
  H   H713      1.0  0.50288  0.05289  0.60767  1.0000
  H   H714      1.0  0.47440  0.16170  0.59054  1.0000
  H   H715      1.0  0.51254  0.02907  0.72226  1.0000
  H   H716      1.0  0.65758  0.13985  0.65485  1.0000
  C   C894      1.0  0.61576  0.06014  0.73005  1.0000
  H   H717      1.0  0.32943  0.10274  0.73398  1.0000
  H   H718      1.0  0.47439  0.07161  0.77356  1.0000
  C   C895      1.0  0.37075  0.14149  0.67864  1.0000
  H   H719      1.0  0.45633  0.07889  0.55820  1.0000
  C   C896      1.0  0.53754  0.99496  0.51905  1.0000
  C   C897      1.0  0.49516  0.05131  0.74875  1.0000
  H   H720      1.0  0.60584  0.13432  0.54403  1.0000
  H   H721      1.0  0.45877  0.02134  0.50658  1.0000
  C   C898      1.0  0.33617  0.99829  0.54971  1.0000
  H   H722      1.0  0.36562  0.05562  0.73718  1.0000
  C   C899      1.0  0.49792  0.03397  0.73043  1.0000
  H   H723      1.0  0.50745  0.05984  0.75354  1.0000
  C   C900      1.0  0.37270  0.99966  0.61904  1.0000
  H   H724      1.0  0.33745  0.23353  0.66416  1.0000
  H   H725      1.0  0.48811  0.08443  0.58754  1.0000
  C   C901      1.0  0.34312  0.01107  0.52604  1.0000
  C   C902      1.0  0.64246  0.07030  0.59558  1.0000
  H   H726      1.0  0.53221  0.13264  0.59099  1.0000
  P   P31       1.0  0.63771  0.99546  0.74655  1.0000
  C   C903      1.0  0.64200  0.04148  0.63023  1.0000
  C   C904      1.0  0.62459  0.05436  0.76007  1.0000
  H   H727      1.0  0.41854  0.00394  0.72118  1.0000
  C   C905      1.0  0.51226  0.04243  0.55908  1.0000
  H   H728      1.0  0.33687  0.05353  0.57029  1.0000
  C   C906      1.0  0.49504  0.07841  0.53589  1.0000
  C   C907      1.0  0.46339  0.02971  0.73496  1.0000
  H   H729      1.0  0.63027  0.12121  0.65822  1.0000
  H   H730      1.0  0.52039  0.03674  0.50807  1.0000
  H   H731      1.0  0.65644  0.04291  0.67749  1.0000
  C   C908      1.0  0.50429  0.06478  0.51367  1.0000
  C   C909      1.0  0.51726  0.13360  0.58223  1.0000
  H   H732      1.0  0.52174  0.10749  0.55299  1.0000
  H   H733      1.0  0.60989  0.07515  0.72655  1.0000
  H   H734      1.0  0.45334  0.03009  0.66951  1.0000
  C   C910      1.0  0.37515  0.07290  0.50614  1.0000
  C   C911      1.0  0.65341  0.07938  0.61964  1.0000
  C   C912      1.0  0.60045  0.13886  0.59616  1.0000
  H   H735      1.0  0.50873  0.15966  0.61020  1.0000
  C   C913      1.0  0.64110  0.10223  0.72255  1.0000
  C   C914      1.0  0.50315  0.05597  0.58133  1.0000
  H   H736      1.0  0.42353  0.02505  0.63788  1.0000
  C   C915      1.0  0.63738  0.11882  0.60599  1.0000
  C   C916      1.0  0.34582  0.06569  0.77597  1.0000
  H   H737      1.0  0.51911  0.02862  0.56801  1.0000
  H   H738      1.0  0.56081  0.00533  0.72104  1.0000
  H   H739      1.0  0.62573  0.06507  0.77966  1.0000
  C   C917      1.0  0.49193  0.12053  0.54880  1.0000
  C   C918      1.0  0.37470  0.99728  0.68834  1.0000
  C   C919      1.0  0.41681  0.10424  0.52434  1.0000
  C   C920      1.0  0.63163  0.03482  0.76490  1.0000
  C   C921      1.0  0.56798  0.00183  0.69760  1.0000
  C   C922      1.0  0.50535  0.00302  0.66720  1.0000
  C   C923      1.0  0.61430  0.04652  0.70461  1.0000
  H   H740      1.0  0.63795  0.07794  0.57296  1.0000
  H   H741      1.0  0.33848  0.17083  0.63347  1.0000
  C   C924      1.0  0.63677  0.05145  0.60092  1.0000
  H   H742      1.0  0.55026  0.00468  0.60888  1.0000
  H   H743      1.0  0.52683  0.00232  0.50264  1.0000
  C   C925      1.0  0.33705  0.04560  0.72966  1.0000
  C   C926      1.0  0.32973  0.00540  0.58075  1.0000
  C   C927      1.0  0.55523  0.00316  0.52456  1.0000
  H   H744      1.0  0.33685  0.20026  0.68735  1.0000
  C   C928      1.0  0.65832  0.06939  0.64933  1.0000
  C   C929      1.0  0.53753  0.00414  0.62458  1.0000
  H   H745      1.0  0.37518  0.99642  0.71515  1.0000
  H   H746      1.0  0.57428  0.99575  0.80530  1.0000
  C   C930      1.0  0.60234  0.99553  0.78131  1.0000
  Fe  Fe65      1.0  0.35439  0.89696  0.32239  1.0000
  S   S129      1.0  0.33628  0.91048  0.36381  1.0000
  H   H747      1.0  0.65227  0.97702  0.27067  1.0000
  Fe  Fe66      1.0  0.39342  0.90425  0.35855  1.0000
  S   S130      1.0  0.37714  0.91878  0.40184  1.0000
  S   S131      1.0  0.42616  0.89960  0.37042  1.0000
  Fe  Fe67      1.0  0.35760  0.89443  0.39845  1.0000
  S   S132      1.0  0.34558  0.87810  0.44160  1.0000
  Fe  Fe68      1.0  0.35758  0.93337  0.36318  1.0000
  S   S133      1.0  0.34467  0.96439  0.36734  1.0000
  S   S134      1.0  0.37448  0.87876  0.35718  1.0000
  S   S135      1.0  0.37505  0.92100  0.31975  1.0000
  Fe  Fe69      1.0  0.56443  0.89442  0.39110  1.0000
  S   S136      1.0  0.55922  0.88497  0.33831  1.0000
  S   S137      1.0  0.56349  0.87686  0.43854  1.0000
  Fe  Fe70      1.0  0.56719  0.93596  0.37145  1.0000
  S   S138      1.0  0.56233  0.93046  0.31730  1.0000
  S   S139      1.0  0.57157  0.96476  0.39513  1.0000
  Fe  Fe71      1.0  0.53860  0.91223  0.33521  1.0000
  S   S140      1.0  0.50900  0.91575  0.30925  1.0000
  Fe  Fe72      1.0  0.58344  0.90391  0.32418  1.0000
  S   S141      1.0  0.60560  0.89345  0.28368  1.0000
  S   S142      1.0  0.54211  0.91992  0.38859  1.0000
  S   S143      1.0  0.59004  0.91094  0.37730  1.0000
  H   H748      1.0  0.63648  0.83433  0.32951  1.0000
  S   S144      1.0  0.33933  0.88530  0.27637  1.0000
  H   H749      1.0  0.46403  0.86252  0.46035  1.0000
  H   H750      1.0  0.53629  0.96774  0.46869  1.0000
  H   H751      1.0  0.57441  0.91649  0.44795  1.0000
  C   C931      1.0  0.46213  0.86847  0.24877  1.0000
  H   H752      1.0  0.54508  0.94162  0.23526  1.0000
  H   H753      1.0  0.44715  0.96778  0.39222  1.0000
  H   H754      1.0  0.44643  0.86648  0.32868  1.0000
  C   C932      1.0  0.62132  0.99080  0.36361  1.0000
  H   H755      1.0  0.46636  0.95142  0.34659  1.0000
  H   H756      1.0  0.34149  0.92470  0.25889  1.0000
  P   P32       1.0  0.61116  0.98580  0.25083  1.0000
  C   C933      1.0  0.38169  0.97455  0.35513  1.0000
  C   C934      1.0  0.48840  0.85529  0.28479  1.0000
  H   H757      1.0  0.38569  0.95919  0.35055  1.0000
  C   C935      1.0  0.44871  0.90595  0.35368  1.0000
  C   C936      1.0  0.45037  0.91312  0.32140  1.0000
  C   C937      1.0  0.46894  0.91609  0.30825  1.0000
  C   C938      1.0  0.48596  0.91235  0.32741  1.0000
  C   C939      1.0  0.48422  0.90583  0.36010  1.0000
  C   C940      1.0  0.46573  0.90247  0.37299  1.0000
  H   H758      1.0  0.43745  0.91580  0.30622  1.0000
  H   H759      1.0  0.47011  0.92120  0.28297  1.0000
  H   H760      1.0  0.49714  0.90307  0.37528  1.0000
  H   H761      1.0  0.46461  0.89694  0.39801  1.0000
  C   C941      1.0  0.50116  0.78778  0.27182  1.0000
  C   C942      1.0  0.62908  0.90113  0.27334  1.0000
  C   C943      1.0  0.52002  0.84333  0.33285  1.0000
  C   C944      1.0  0.51900  0.86081  0.35107  1.0000
  H   H762      1.0  0.63239  0.88182  0.23107  1.0000
  H   H763      1.0  0.41006  0.98344  0.34192  1.0000
  H   H764      1.0  0.53846  0.84373  0.42415  1.0000
  H   H765      1.0  0.43331  0.88691  0.43792  1.0000
  H   H766      1.0  0.60536  0.95926  0.30681  1.0000
  H   H767      1.0  0.64332  0.80242  0.45946  1.0000
  C   C945      1.0  0.59016  0.97198  0.24456  1.0000
  C   C946      1.0  0.52210  0.79710  0.22723  1.0000
  H   H768      1.0  0.33029  0.98480  0.28693  1.0000
  H   H769      1.0  0.54049  0.97785  0.23918  1.0000
  H   H770      1.0  0.43463  0.87682  0.27292  1.0000
  H   H771      1.0  0.51362  0.87452  0.33955  1.0000
  C   C947      1.0  0.51309  0.82017  0.27160  1.0000
  C   C948      1.0  0.62865  0.89053  0.42845  1.0000
  C   C949      1.0  0.61131  0.97229  0.31626  1.0000
  C   C950      1.0  0.52562  0.86090  0.38381  1.0000
  C   C951      1.0  0.44954  0.87057  0.27604  1.0000
  H   H772      1.0  0.60694  0.94366  0.24534  1.0000
  C   C952      1.0  0.53311  0.84350  0.39882  1.0000
  H   H773      1.0  0.61577  0.96598  0.18665  1.0000
  H   H774      1.0  0.38975  0.84572  0.43458  1.0000
  C   C953      1.0  0.65732  0.91945  0.28435  1.0000
  P   P33       1.0  0.64339  0.86042  0.38618  1.0000
  C   C954      1.0  0.52792  0.82591  0.34778  1.0000
  C   C955      1.0  0.47558  0.85724  0.31201  1.0000
  H   H775      1.0  0.52970  0.79363  0.20411  1.0000
  H   H776      1.0  0.54040  0.81259  0.39234  1.0000
  H   H777      1.0  0.53679  0.90384  0.24008  1.0000
  H   H778      1.0  0.62368  0.87917  0.44427  1.0000
  H   H779      1.0  0.55486  0.83623  0.27952  1.0000
  C   C956      1.0  0.56512  0.86206  0.25785  1.0000
  H   H780      1.0  0.49364  0.80980  0.30870  1.0000
  C   C957      1.0  0.63814  0.91494  0.29217  1.0000
  C   C958      1.0  0.50189  0.80627  0.28623  1.0000
  C   C959      1.0  0.53427  0.82600  0.38081  1.0000
  H   H781      1.0  0.52954  0.81233  0.33399  1.0000
  C   C960      1.0  0.51951  0.95810  0.42822  1.0000
  C   C961      1.0  0.49674  0.90410  0.48201  1.0000
  C   C962      1.0  0.52615  0.87752  0.25958  1.0000
  C   C963      1.0  0.61430  0.97389  0.35044  1.0000
  H   H782      1.0  0.63046  0.92195  0.31300  1.0000
  C   C964      1.0  0.55766  0.95006  0.23739  1.0000
  H   H783      1.0  0.65176  0.89800  0.35511  1.0000
  C   C965      1.0  0.52230  0.96295  0.46145  1.0000
  C   C966      1.0  0.61552  0.98758  0.29491  1.0000
  H   H784      1.0  0.37846  0.99252  0.43122  1.0000
  H   H785      1.0  0.53103  0.95979  0.41031  1.0000
  H   H786      1.0  0.51066  0.76886  0.23113  1.0000
  H   H787      1.0  0.49095  0.85885  0.23162  1.0000
  H   H788      1.0  0.50037  0.94640  0.39245  1.0000
  C   C967      1.0  0.45622  0.86477  0.30755  1.0000
  C   C968      1.0  0.62976  0.96449  0.19919  1.0000
  H   H789      1.0  0.60682  0.82156  0.30743  1.0000
  C   C969      1.0  0.50211  0.95077  0.41809  1.0000
  H   H790      1.0  0.51807  0.88909  0.44995  1.0000
  H   H791      1.0  0.54411  0.96576  0.34086  1.0000
  H   H792      1.0  0.49327  0.96775  0.32028  1.0000
  H   H793      1.0  0.45691  0.87296  0.22435  1.0000
  H   H794      1.0  0.41002  0.86880  0.40614  1.0000
  C   C970      1.0  0.41172  0.86630  0.43256  1.0000
  H   H795      1.0  0.53085  0.82634  0.22892  1.0000
  H   H796      1.0  0.49253  0.77709  0.28329  1.0000
  C   C971      1.0  0.46964  0.96581  0.35495  1.0000
  H   H797      1.0  0.51135  0.88418  0.26141  1.0000
  H   H798      1.0  0.52547  0.87461  0.39721  1.0000
  C   C972      1.0  0.56309  0.98347  0.36802  1.0000
  C   C973      1.0  0.36259  0.98089  0.36448  1.0000
  H   H799      1.0  0.57286  0.85104  0.38467  1.0000
  C   C974      1.0  0.52286  0.81561  0.24158  1.0000
  C   C975      1.0  0.63924  0.89245  0.24597  1.0000
  C   C976      1.0  0.54063  0.88882  0.24755  1.0000
  H   H800      1.0  0.57139  0.88997  0.23801  1.0000
  C   C977      1.0  0.48720  0.94876  0.44110  1.0000
  H   H801      1.0  0.35013  0.95344  0.29152  1.0000
  C   C978      1.0  0.53103  0.85832  0.27062  1.0000
  H   H802      1.0  0.58035  0.85644  0.25815  1.0000
  H   H803      1.0  0.57851  0.92472  0.23839  1.0000
  C   C979      1.0  0.39550  0.98824  0.35045  1.0000
  C   C980      1.0  0.55067  0.85073  0.26996  1.0000
  H   H804      1.0  0.48035  0.85293  0.33672  1.0000
  H   H805      1.0  0.57482  0.82975  0.33506  1.0000
  H   H806      1.0  0.60202  0.86510  0.40601  1.0000
  C   C981      1.0  0.55506  0.97045  0.23966  1.0000
  C   C982      1.0  0.63191  0.97286  0.23071  1.0000
  C   C983      1.0  0.51133  0.78316  0.24240  1.0000
  C   C984      1.0  0.65830  0.89719  0.23782  1.0000
  C   C985      1.0  0.56009  0.88108  0.24659  1.0000
  C   C986      1.0  0.48143  0.86063  0.25303  1.0000
  C   C987      1.0  0.42488  0.87657  0.45072  1.0000
  P   P34       1.0  0.51301  0.84424  0.28974  1.0000
  C   C988      1.0  0.62268  0.83863  0.34138  1.0000
  H   H807      1.0  0.64477  0.93226  0.37239  1.0000
  C   C989      1.0  0.33787  0.97052  0.45281  1.0000
  C   C990      1.0  0.62154  0.85139  0.36885  1.0000
  C   C991      1.0  0.49145  0.87444  0.45213  1.0000
  C   C992      1.0  0.33634  0.95051  0.44781  1.0000
  C   C993      1.0  0.40042  0.85315  0.44851  1.0000
  C   C994      1.0  0.64435  0.90104  0.37843  1.0000
  C   C995      1.0  0.58789  0.83558  0.34452  1.0000
  C   C996      1.0  0.58675  0.84766  0.37244  1.0000
  C   C997      1.0  0.60341  0.85571  0.38441  1.0000
  C   C998      1.0  0.40254  0.84996  0.48258  1.0000
  C   C999      1.0  0.46593  0.88945  0.48803  1.0000
  H   H808      1.0  0.49666  0.86278  0.43541  1.0000
  H   H809      1.0  0.47382  0.94282  0.43321  1.0000
  C   C1000     1.0  0.62497  0.91006  0.43830  1.0000
  C   C1001     1.0  0.57644  0.94056  0.23904  1.0000
  H   H810      1.0  0.34505  0.92128  0.46430  1.0000
  C   C1002     1.0  0.59260  0.95142  0.24296  1.0000
  C   C1003     1.0  0.47283  0.87444  0.46615  1.0000
  C   C1004     1.0  0.57369  0.90961  0.47202  1.0000
  C   C1005     1.0  0.60586  0.83103  0.32900  1.0000
  C   C1006     1.0  0.33264  0.93849  0.25684  1.0000
  H   H811      1.0  0.61044  0.96230  0.36685  1.0000
  C   C1007     1.0  0.57120  0.98139  0.24341  1.0000
  C   C1008     1.0  0.35613  0.87664  0.48158  1.0000
  C   C1009     1.0  0.45886  0.97504  0.38079  1.0000
  C   C1010     1.0  0.55006  0.97979  0.34257  1.0000
  C   C1011     1.0  0.64053  0.92058  0.38827  1.0000
  H   H812      1.0  0.62740  0.94024  0.42540  1.0000
  C   C1012     1.0  0.63835  0.88581  0.39834  1.0000
  C   C1013     1.0  0.48475  0.97507  0.34004  1.0000
  C   C1014     1.0  0.64558  0.95386  0.18390  1.0000
  C   C1015     1.0  0.63082  0.92509  0.41816  1.0000
  H   H813      1.0  0.32815  0.94561  0.42682  1.0000
  H   H814      1.0  0.64377  0.94706  0.15994  1.0000
  C   C1016     1.0  0.33756  0.95464  0.27520  1.0000
  C   C1017     1.0  0.34880  0.97691  0.47954  1.0000
  H   H815      1.0  0.63479  0.82110  0.40854  1.0000
  C   C1018     1.0  0.56836  0.89041  0.47456  1.0000
  C   C1019     1.0  0.50344  0.88923  0.46016  1.0000
  C   C1020     1.0  0.50728  0.96128  0.48465  1.0000
  H   H816      1.0  0.61709  0.91357  0.46119  1.0000
  C   C1021     1.0  0.64839  0.81684  0.45615  1.0000
  C   C1022     1.0  0.48970  0.95414  0.47425  1.0000
  C   C1023     1.0  0.64352  0.82754  0.42733  1.0000
  H   H817      1.0  0.64592  0.87063  0.31575  1.0000
  H   H818      1.0  0.50623  0.91536  0.48831  1.0000
  C   C1024     1.0  0.65018  0.97076  0.24640  1.0000
  H   H819      1.0  0.40085  0.94756  0.47475  1.0000
  H   H820      1.0  0.41585  0.91412  0.46712  1.0000
  H   H821      1.0  0.37487  0.90012  0.47587  1.0000
  H   H822      1.0  0.47804  0.95247  0.49188  1.0000
  H   H823      1.0  0.53492  0.99137  0.29907  1.0000
  C   C1025     1.0  0.34609  0.93676  0.46880  1.0000
  C   C1026     1.0  0.42682  0.87383  0.48515  1.0000
  C   C1027     1.0  0.41899  0.92187  0.48961  1.0000
  H   H824      1.0  0.33103  0.98075  0.43506  1.0000
  C   C1028     1.0  0.64969  0.84641  0.42320  1.0000
  H   H825      1.0  0.62281  0.99233  0.39024  1.0000
  C   C1029     1.0  0.65959  0.82481  0.48086  1.0000
  H   H826      1.0  0.48187  0.99378  0.48945  1.0000
  C   C1030     1.0  0.46303  0.99365  0.39156  1.0000
  C   C1031     1.0  0.36976  0.88935  0.49264  1.0000
  Fe  Fe73      1.0  0.38207  0.89329  0.62257  1.0000
  S   S145      1.0  0.39425  0.88782  0.67402  1.0000
  S   S146      1.0  0.38203  0.86852  0.58588  1.0000
  Fe  Fe74      1.0  0.37095  0.93576  0.63603  1.0000
  S   S147      1.0  0.38214  0.93376  0.68819  1.0000
  S   S148      1.0  0.35844  0.96374  0.61253  1.0000
  Fe  Fe75      1.0  0.40824  0.91610  0.66630  1.0000
  S   S149      1.0  0.43817  0.92660  0.67860  1.0000
  Fe  Fe76      1.0  0.36702  0.90603  0.69114  1.0000
  H   H827      1.0  0.41645  0.85775  0.52731  1.0000
  S   S150      1.0  0.39775  0.92010  0.61377  1.0000
  S   S151      1.0  0.35418  0.90930  0.64020  1.0000
  Fe  Fe77      1.0  0.56803  0.93484  0.68544  1.0000
  S   S152      1.0  0.56653  0.90652  0.71284  1.0000
  S   S153      1.0  0.56110  0.96384  0.71037  1.0000
  Fe  Fe78      1.0  0.57871  0.91524  0.61974  1.0000
  S   S154      1.0  0.57837  0.88521  0.64178  1.0000
  S   S155      1.0  0.58513  0.92440  0.56705  1.0000
  Fe  Fe79      1.0  0.55056  0.89743  0.66716  1.0000
  S   S156      1.0  0.52286  0.88130  0.66635  1.0000
  Fe  Fe80      1.0  0.59449  0.89717  0.68552  1.0000
  S   S157      1.0  0.62199  0.88083  0.70789  1.0000
  S   S158      1.0  0.55010  0.92662  0.64210  1.0000
  S   S159      1.0  0.59686  0.92624  0.66121  1.0000
  C   C1032     1.0  0.49025  0.92613  0.58971  1.0000
  C   C1033     1.0  0.58596  0.98688  0.79311  1.0000
  H   H828      1.0  0.62314  0.91927  0.73890  1.0000
  C   C1034     1.0  0.46151  0.91358  0.67529  1.0000
  C   C1035     1.0  0.47822  0.92355  0.68116  1.0000
  C   C1036     1.0  0.49707  0.91392  0.67840  1.0000
  C   C1037     1.0  0.49941  0.89402  0.67034  1.0000
  C   C1038     1.0  0.48268  0.88392  0.66512  1.0000
  C   C1039     1.0  0.46381  0.89367  0.66742  1.0000
  H   H829      1.0  0.47663  0.93879  0.68803  1.0000
  H   H830      1.0  0.50980  0.92184  0.68282  1.0000
  H   H831      1.0  0.48440  0.86847  0.65927  1.0000
  H   H832      1.0  0.45104  0.88579  0.66366  1.0000
  C   C1040     1.0  0.39912  0.89953  0.77775  1.0000
  C   C1041     1.0  0.61558  0.96410  0.76009  1.0000
  C   C1042     1.0  0.53140  0.98615  0.63464  1.0000
  C   C1043     1.0  0.52170  0.92926  0.54654  1.0000
  H   H833      1.0  0.36556  0.93233  0.51058  1.0000
  H   H834      1.0  0.44976  0.89042  0.73528  1.0000
  H   H835      1.0  0.36228  0.96985  0.68268  1.0000
  C   C1044     1.0  0.57187  0.89225  0.53486  1.0000
  C   C1045     1.0  0.57776  0.91125  0.53214  1.0000
  C   C1046     1.0  0.34668  0.93826  0.79804  1.0000
  H   H836      1.0  0.57131  0.88544  0.55903  1.0000
  C   C1047     1.0  0.63897  0.89104  0.73507  1.0000
  C   C1048     1.0  0.35805  0.86022  0.53512  1.0000
  C   C1049     1.0  0.37130  0.87306  0.54660  1.0000
  C   C1050     1.0  0.37700  0.88786  0.52547  1.0000
  H   H837      1.0  0.35379  0.84861  0.55108  1.0000
  H   H838      1.0  0.38763  0.89753  0.53387  1.0000
  H   H839      1.0  0.58049  0.96326  0.64677  1.0000
  H   H840      1.0  0.51103  0.97142  0.66364  1.0000
  C   C1051     1.0  0.58437  0.96689  0.78834  1.0000
  C   C1052     1.0  0.42244  0.87852  0.74614  1.0000
  H   H841      1.0  0.62665  0.95516  0.74663  1.0000
  C   C1053     1.0  0.43052  0.91072  0.76325  1.0000
  P   P35       1.0  0.51034  0.96763  0.52769  1.0000
  H   H842      1.0  0.65071  0.96652  0.79781  1.0000
  P   P36       1.0  0.40628  0.93713  0.80015  1.0000
  C   C1054     1.0  0.42214  0.93555  0.83588  1.0000
  C   C1055     1.0  0.41032  0.95827  0.77513  1.0000
  C   C1056     1.0  0.41407  0.95634  0.74107  1.0000
  C   C1057     1.0  0.41710  0.97272  0.72176  1.0000
  H   H843      1.0  0.33599  0.98282  0.54481  1.0000
  H   H844      1.0  0.52674  0.95317  0.75883  1.0000
  H   H845      1.0  0.34089  0.86930  0.60927  1.0000
  C   C1058     1.0  0.43852  0.94648  0.83756  1.0000
  C   C1059     1.0  0.45114  0.94445  0.86480  1.0000
  C   C1060     1.0  0.44766  0.93134  0.89027  1.0000
  C   C1061     1.0  0.43162  0.92013  0.88841  1.0000
  C   C1062     1.0  0.41898  0.92211  0.86120  1.0000
  H   H846      1.0  0.47340  0.91562  0.51361  1.0000
  H   H847      1.0  0.47815  0.92482  0.60664  1.0000
  H   H848      1.0  0.53396  0.93010  0.52973  1.0000
  C   C1063     1.0  0.57936  0.97802  0.65612  1.0000
  C   C1064     1.0  0.36751  0.98215  0.66994  1.0000
  C   C1065     1.0  0.35557  0.94770  0.85349  1.0000
  C   C1066     1.0  0.37530  0.94605  0.84437  1.0000
  H   H849      1.0  0.44092  0.92172  0.76360  1.0000
  H   H850      1.0  0.45754  0.92969  0.91126  1.0000
  H   H851      1.0  0.41441  0.94224  0.72918  1.0000
  H   H852      1.0  0.41972  0.97102  0.69535  1.0000
  H   H853      1.0  0.45876  0.97651  0.72841  1.0000
  H   H854      1.0  0.40715  0.96615  0.52604  1.0000
  H   H855      1.0  0.36366  0.85767  0.65344  1.0000
  H   H856      1.0  0.44180  0.95633  0.81773  1.0000
  H   H857      1.0  0.46377  0.95289  0.86599  1.0000
  C   C1067     1.0  0.43563  0.89292  0.74724  1.0000
  H   H858      1.0  0.42911  0.90973  0.90789  1.0000
  H   H859      1.0  0.38611  0.94936  0.86257  1.0000
  H   H860      1.0  0.33565  0.93491  0.78016  1.0000
  C   C1068     1.0  0.51999  0.91190  0.56411  1.0000
  H   H861      1.0  0.40682  0.91304  0.85971  1.0000
  C   C1069     1.0  0.40909  0.97700  0.78954  1.0000
  C   C1070     1.0  0.50794  0.94541  0.55103  1.0000
  C   C1071     1.0  0.57847  0.91992  0.50065  1.0000
  C   C1072     1.0  0.41399  0.95144  0.52264  1.0000
  H   H862      1.0  0.58287  0.93465  0.49835  1.0000
  C   C1073     1.0  0.57014  0.98244  0.68650  1.0000
  C   C1074     1.0  0.50839  0.97523  0.73318  1.0000
  C   C1075     1.0  0.47362  0.97166  0.73508  1.0000
  H   H863      1.0  0.41714  0.99185  0.61843  1.0000
  C   C1076     1.0  0.63397  0.96818  0.65654  1.0000
  C   C1077     1.0  0.43136  0.91310  0.51416  1.0000
  C   C1078     1.0  0.48930  0.98159  0.72333  1.0000
  C   C1079     1.0  0.47711  0.95492  0.75477  1.0000
  C   C1080     1.0  0.65593  0.87959  0.74516  1.0000
  H   H864      1.0  0.46502  0.94690  0.76268  1.0000
  C   C1081     1.0  0.41206  0.91437  0.77806  1.0000
  C   C1082     1.0  0.41637  0.99124  0.73635  1.0000
  H   H865      1.0  0.44107  0.96349  0.63055  1.0000
  H   H866      1.0  0.39387  0.87073  0.76042  1.0000
  H   H867      1.0  0.53951  0.97266  0.62697  1.0000
  H   H868      1.0  0.56310  0.86703  0.50833  1.0000
  H   H869      1.0  0.50050  0.98599  0.59114  1.0000
  H   H870      1.0  0.48081  0.95552  0.57566  1.0000
  C   C1083     1.0  0.56577  0.97594  0.56024  1.0000
  H   H871      1.0  0.59407  0.98935  0.61395  1.0000
  C   C1084     1.0  0.62925  0.97745  0.68674  1.0000
  H   H872      1.0  0.37023  0.93284  0.76337  1.0000
  H   H873      1.0  0.57677  0.96837  0.57597  1.0000
  S   S160      1.0  0.34911  0.89842  0.73674  1.0000
  C   C1085     1.0  0.58680  0.99286  0.63727  1.0000
  H   H874      1.0  0.35135  0.95199  0.87855  1.0000
  H   H875      1.0  0.59772  0.94008  0.76769  1.0000
  C   C1086     1.0  0.59922  0.95549  0.77199  1.0000
  H   H876      1.0  0.61404  0.97993  0.69388  1.0000
  C   C1087     1.0  0.44730  0.87742  0.54910  1.0000
  H   H877      1.0  0.50321  0.89695  0.59968  1.0000
  C   C1088     1.0  0.33051  0.91362  0.55080  1.0000
  C   C1089     1.0  0.53374  0.97726  0.53435  1.0000
  C   C1090     1.0  0.49624  0.94815  0.76317  1.0000
  C   C1091     1.0  0.44384  0.97805  0.63887  1.0000
  C   C1092     1.0  0.49197  0.94359  0.57233  1.0000
  C   C1093     1.0  0.43249  0.87863  0.57320  1.0000
  C   C1094     1.0  0.43536  0.86904  0.60360  1.0000
  C   C1095     1.0  0.45320  0.85854  0.61053  1.0000
  C   C1096     1.0  0.46827  0.85780  0.58716  1.0000
  C   C1097     1.0  0.46532  0.86706  0.55642  1.0000
  H   H878      1.0  0.54565  0.95443  0.56804  1.0000
  C   C1098     1.0  0.50432  0.91035  0.58574  1.0000
  C   C1099     1.0  0.43509  0.92387  0.54287  1.0000
  C   C1100     1.0  0.64968  0.91789  0.76823  1.0000
  C   C1101     1.0  0.63604  0.91032  0.74655  1.0000
  C   C1102     1.0  0.54799  0.96788  0.55525  1.0000
  C   C1103     1.0  0.35887  0.96297  0.50018  1.0000
  H   H879      1.0  0.35118  0.85045  0.70963  1.0000
  H   H880      1.0  0.40571  0.97889  0.81567  1.0000
  H   H881      1.0  0.49902  0.93486  0.77758  1.0000
  H   H882      1.0  0.47087  0.96827  0.66236  1.0000
  C   C1104     1.0  0.38085  0.94014  0.81207  1.0000
  H   H883      1.0  0.41848  0.88650  0.56808  1.0000
  H   H884      1.0  0.42363  0.86963  0.62165  1.0000
  H   H885      1.0  0.45542  0.85116  0.63418  1.0000
  H   H886      1.0  0.48224  0.84996  0.59287  1.0000
  H   H887      1.0  0.47711  0.86592  0.53853  1.0000
  H   H888      1.0  0.62246  0.96348  0.64078  1.0000
  H   H889      1.0  0.44463  0.91756  0.56216  1.0000
  C   C1105     1.0  0.35020  0.86227  0.50314  1.0000
  C   C1106     1.0  0.51534  0.98555  0.65579  1.0000
  C   C1107     1.0  0.41563  0.86024  0.50087  1.0000
  H   H890      1.0  0.63982  0.91188  0.67126  1.0000
  H   H891      1.0  0.42630  0.86487  0.73322  1.0000
  C   C1108     1.0  0.36633  0.93696  0.78866  1.0000
  H   H892      1.0  0.57143  0.96027  0.79654  1.0000
  H   H893      1.0  0.42894  0.95092  0.56968  1.0000
  C   C1109     1.0  0.64403  0.98350  0.70751  1.0000
  C   C1110     1.0  0.42633  0.94290  0.54714  1.0000
  C   C1111     1.0  0.56727  0.88184  0.50611  1.0000
  H   H894      1.0  0.53100  0.89971  0.56127  1.0000
  C   C1112     1.0  0.34128  0.94357  0.83044  1.0000
  C   C1113     1.0  0.40421  0.88182  0.76143  1.0000
  C   C1114     1.0  0.51184  0.95841  0.75261  1.0000
  C   C1115     1.0  0.41040  0.94096  0.49384  1.0000
  C   C1116     1.0  0.36665  0.98321  0.63533  1.0000
  H   H895      1.0  0.38506  0.90141  0.78992  1.0000
  H   H896      1.0  0.36786  0.96756  0.52038  1.0000
  C   C1117     1.0  0.34809  0.85914  0.65840  1.0000
  P   P37       1.0  0.44271  0.88846  0.50880  1.0000
  H   H897      1.0  0.64708  0.93264  0.77754  1.0000
  H   H898      1.0  0.63771  0.91684  0.61047  1.0000
  H   H899      1.0  0.52073  0.98292  0.72520  1.0000
  C   C1118     1.0  0.49249  0.98734  0.53938  1.0000
  C   C1119     1.0  0.46057  0.98074  0.65747  1.0000
  C   C1120     1.0  0.61724  0.98421  0.76445  1.0000
  C   C1121     1.0  0.41223  0.99342  0.77019  1.0000
  C   C1122     1.0  0.35754  0.94298  0.49478  1.0000
  H   H900      1.0  0.33947  0.91205  0.52874  1.0000
  H   H901      1.0  0.33277  0.95360  0.71228  1.0000
  C   C1123     1.0  0.65347  0.96497  0.64672  1.0000
  H   H902      1.0  0.33384  0.97232  0.76493  1.0000
  C   C1124     1.0  0.34106  0.85489  0.68988  1.0000
  C   C1125     1.0  0.47809  0.90425  0.49601  1.0000
  H   H903      1.0  0.65707  0.95788  0.62324  1.0000
  C   C1126     1.0  0.33511  0.86578  0.63337  1.0000
  H   H904      1.0  0.33686  0.94335  0.56023  1.0000
  C   C1127     1.0  0.32690  0.97908  0.74326  1.0000
  C   C1128     1.0  0.65188  0.91555  0.62256  1.0000
  C   C1129     1.0  0.65304  0.91273  0.65685  1.0000
  H   H905      1.0  0.65834  0.86463  0.73654  1.0000
  H   H906      1.0  0.39351  0.84004  0.49512  1.0000
  H   H907      1.0  0.33975  0.85237  0.49481  1.0000
  C   C1130     1.0  0.65850  0.99323  0.77426  1.0000
  C   C1131     1.0  0.32896  0.93120  0.56844  1.0000
  C   C1132     1.0  0.49132  0.99349  0.57258  1.0000
  C   C1133     1.0  0.56935  0.99364  0.54518  1.0000
  Fe  Fe81      1.0  0.74982  0.07318  0.15896  1.0000
  S   S161      1.0  0.71929  0.08454  0.14522  1.0000
  S   S162      1.0  0.75414  0.04059  0.14621  1.0000
  Fe  Fe82      1.0  0.76206  0.11523  0.17403  1.0000
  S   S163      1.0  0.73183  0.12848  0.15991  1.0000
  S   S164      1.0  0.78800  0.13414  0.18712  1.0000
  Fe  Fe83      1.0  0.72026  0.10393  0.18985  1.0000
  S   S165      1.0  0.69796  0.10680  0.23277  1.0000
  Fe  Fe84      1.0  0.73337  0.10756  0.11588  1.0000
  S   S166      1.0  0.72071  0.11379  0.06315  1.0000
  S   S167      1.0  0.75041  0.09141  0.20553  1.0000
  S   S168      1.0  0.76397  0.09563  0.12803  1.0000
  Fe  Fe85      1.0  0.85547  0.21480  0.29269  1.0000
  S   S169      1.0  0.84692  0.24663  0.30545  1.0000
  S   S170      1.0  0.83062  0.19392  0.28358  1.0000
  Fe  Fe86      1.0  0.89907  0.22102  0.30756  1.0000
  S   S171      1.0  0.89299  0.25271  0.32098  1.0000
  S   S172      1.0  0.92969  0.20627  0.31587  1.0000
  Fe  Fe87      1.0  0.86739  0.24273  0.34958  1.0000
  S   S173      1.0  0.85881  0.25648  0.40036  1.0000
  Fe  Fe88      1.0  0.87335  0.25430  0.27620  1.0000
  S   S174      1.0  0.87350  0.27737  0.23446  1.0000
  S   S175      1.0  0.87447  0.21080  0.33874  1.0000
  S   S176      1.0  0.88087  0.22268  0.26084  1.0000
  Fe  Fe89      1.0  0.87803  0.43441  0.15232  1.0000
  S   S177      1.0  0.88957  0.42999  0.10066  1.0000
  S   S178      1.0  0.86612  0.46449  0.17186  1.0000
  Fe  Fe90      1.0  0.88560  0.38975  0.16954  1.0000
  S   S179      1.0  0.89768  0.38261  0.11852  1.0000
  S   S180      1.0  0.88590  0.36863  0.21428  1.0000
  Fe  Fe91      1.0  0.91306  0.41011  0.12423  1.0000
  S   S181      1.0  0.94300  0.41240  0.10334  1.0000
  Fe  Fe92      1.0  0.87307  0.40322  0.09908  1.0000
  S   S182      1.0  0.85241  0.39666  0.05730  1.0000
  S   S183      1.0  0.90290  0.41617  0.17635  1.0000
  S   S184      1.0  0.85962  0.40867  0.14984  1.0000
  H   H908      1.0  0.82431  0.22395  0.36882  1.0000
  C   C1134     1.0  0.93414  0.30521  0.23161  1.0000
  C   C1135     1.0  0.75565  0.04607  0.06187  1.0000
  H   H909      1.0  0.99105  0.48639  0.16651  1.0000
  C   C1136     1.0  0.76837  0.05202  0.03760  1.0000
  C   C1137     1.0  0.86468  0.24886  0.44195  1.0000
  C   C1138     1.0  0.87783  0.23270  0.44908  1.0000
  C   C1139     1.0  0.85586  0.25954  0.46871  1.0000
  H   H910      1.0  0.88450  0.22412  0.42896  1.0000
  H   H911      1.0  0.84555  0.27199  0.46363  1.0000
  C   C1140     1.0  0.87717  0.30278  0.22979  1.0000
  C   C1141     1.0  0.87622  0.31102  0.19771  1.0000
  C   C1142     1.0  0.87883  0.33104  0.19244  1.0000
  C   C1143     1.0  0.88247  0.34318  0.21926  1.0000
  C   C1144     1.0  0.88348  0.33494  0.25137  1.0000
  C   C1145     1.0  0.88081  0.31492  0.25666  1.0000
  H   H912      1.0  0.87339  0.30185  0.17669  1.0000
  H   H913      1.0  0.87796  0.33707  0.16762  1.0000
  H   H914      1.0  0.88625  0.34414  0.27237  1.0000
  H   H915      1.0  0.88158  0.30891  0.28150  1.0000
  C   C1146     1.0  0.72930  0.11008  0.02127  1.0000
  C   C1147     1.0  0.74872  0.10381  0.01373  1.0000
  C   C1148     1.0  0.97278  0.31337  0.24483  1.0000
  H   H916      1.0  0.75912  0.10119  0.03369  1.0000
  H   H917      1.0  0.68494  0.16856  0.21789  1.0000
  C   C1149     1.0  0.79992  0.15032  0.21484  1.0000
  C   C1150     1.0  0.79320  0.15483  0.24712  1.0000
  C   C1151     1.0  0.80287  0.16785  0.26763  1.0000
  C   C1152     1.0  0.81958  0.17669  0.25665  1.0000
  C   C1153     1.0  0.82644  0.17203  0.22451  1.0000
  C   C1154     1.0  0.81669  0.15907  0.20393  1.0000
  H   H918      1.0  0.78055  0.14821  0.25642  1.0000
  H   H919      1.0  0.79729  0.17116  0.29228  1.0000
  H   H920      1.0  0.83918  0.17854  0.21533  1.0000
  H   H921      1.0  0.82223  0.15581  0.17923  1.0000
  C   C1155     1.0  0.74152  0.16526  0.21613  1.0000
  H   H922      1.0  0.78025  0.99638  0.23482  1.0000
  C   C1156     1.0  0.75421  0.34702  0.28011  1.0000
  C   C1157     1.0  0.96099  0.41894  0.13094  1.0000
  C   C1158     1.0  0.98007  0.41924  0.11918  1.0000
  C   C1159     1.0  0.85373  0.39699  0.01328  1.0000
  C   C1160     1.0  0.97164  0.42918  0.18529  1.0000
  C   C1161     1.0  0.95667  0.42423  0.16389  1.0000
  H   H923      1.0  0.98366  0.41494  0.09397  1.0000
  H   H924      1.0  0.80495  0.33328  0.20458  1.0000
  H   H925      1.0  0.96850  0.43256  0.21106  1.0000
  H   H926      1.0  0.94195  0.42427  0.17304  1.0000
  C   C1162     1.0  0.95175  0.21626  0.30443  1.0000
  C   C1163     1.0  0.96922  0.20973  0.32069  1.0000
  C   C1164     1.0  0.90214  0.17387  0.46383  1.0000
  C   C1165     1.0  0.98793  0.22960  0.28454  1.0000
  C   C1166     1.0  0.97042  0.23635  0.26864  1.0000
  C   C1167     1.0  0.95239  0.22990  0.27874  1.0000
  H   H927      1.0  0.96888  0.19907  0.34039  1.0000
  C   C1168     1.0  0.85134  0.29583  0.33732  1.0000
  H   H928      1.0  0.97087  0.24624  0.24782  1.0000
  H   H929      1.0  0.93910  0.23487  0.26579  1.0000
  C   C1169     1.0  0.83953  0.36702  0.24834  1.0000
  H   H930      1.0  0.91922  0.30206  0.22656  1.0000
  C   C1170     1.0  0.76701  0.01668  0.19875  1.0000
  C   C1171     1.0  0.75541  0.01888  0.17028  1.0000
  C   C1172     1.0  0.74688  0.00247  0.15763  1.0000
  C   C1173     1.0  0.83187  0.35197  0.26626  1.0000
  C   C1174     1.0  0.84280  0.11624  0.47883  1.0000
  H   H931      1.0  0.77400  0.02909  0.20827  1.0000
  H   H932      1.0  0.73818  0.00388  0.13530  1.0000
  H   H933      1.0  0.83615  0.34985  0.29191  1.0000
  C   C1175     1.0  0.68643  0.00336  0.15713  1.0000
  H   H934      1.0  0.82212  0.23845  0.42519  1.0000
  C   C1176     1.0  0.96448  0.47313  0.06938  1.0000
  C   C1177     1.0  0.83768  0.18315  0.41420  1.0000
  H   H935      1.0  0.94459  0.24612  0.35206  1.0000
  H   H936      1.0  0.72758  0.08339  0.27353  1.0000
  C   C1178     1.0  0.83651  0.19123  0.44635  1.0000
  H   H937      1.0  0.81897  0.35973  0.17314  1.0000
  C   C1179     1.0  0.86181  0.48768  0.03825  1.0000
  H   H938      1.0  0.78504  0.28644  0.26871  1.0000
  C   C1180     1.0  0.82232  0.35768  0.19925  1.0000
  C   C1181     1.0  0.78401  0.21045  0.23272  1.0000
  H   H939      1.0  0.96321  0.34280  0.22870  1.0000
  H   H940      1.0  0.78710  0.25703  0.23334  1.0000
  C   C1182     1.0  0.94470  0.47471  0.06044  1.0000
  H   H941      1.0  0.70188  0.18931  0.17907  1.0000
  H   H942      1.0  0.73820  0.21403  0.10297  1.0000
  H   H943      1.0  0.73114  0.34085  0.31380  1.0000
  C   C1183     1.0  0.93025  0.47914  0.21478  1.0000
  C   C1184     1.0  0.93031  0.47264  0.08438  1.0000
  C   C1185     1.0  0.96183  0.49227  0.21260  1.0000
  H   H944      1.0  0.92088  0.46830  0.22376  1.0000
  C   C1186     1.0  0.72939  0.22194  0.12170  1.0000
  C   C1187     1.0  0.90617  0.27418  0.48196  1.0000
  H   H945      1.0  0.93600  0.26768  0.30479  1.0000
  C   C1188     1.0  0.77642  0.31656  0.31210  1.0000
  H   H946      1.0  0.97674  0.49170  0.22143  1.0000
  H   H947      1.0  0.75084  0.31377  0.34211  1.0000
  H   H948      1.0  0.97599  0.30472  0.31150  1.0000
  C   C1189     1.0  0.90570  0.44198  0.01691  1.0000
  C   C1190     1.0  0.94781  0.29025  0.24208  1.0000
  H   H949      1.0  0.88980  0.47503  0.11597  1.0000
  C   C1191     1.0  0.78479  0.32676  0.28620  1.0000
  C   C1192     1.0  0.92132  0.42755  0.01855  1.0000
  C   C1193     1.0  0.95219  0.38022  0.19701  1.0000
  C   C1194     1.0  0.93928  0.36926  0.17975  1.0000
  C   C1195     1.0  0.94591  0.35757  0.15292  1.0000
  C   C1196     1.0  0.96551  0.35705  0.14278  1.0000
  C   C1197     1.0  0.83483  0.36982  0.21487  1.0000
  H   H950      1.0  0.96654  0.28426  0.17776  1.0000
  C   C1198     1.0  0.92930  0.36383  0.04653  1.0000
  C   C1199     1.0  0.83309  0.19487  0.38641  1.0000
  C   C1200     1.0  0.95323  0.32895  0.05307  1.0000
  C   C1201     1.0  0.78123  0.20566  0.16401  1.0000
  C   C1202     1.0  0.97179  0.37943  0.18753  1.0000
  C   C1203     1.0  0.71042  0.17982  0.19603  1.0000
  C   C1204     1.0  0.70719  0.24336  0.16965  1.0000
  C   C1205     1.0  0.97530  0.49197  0.00681  1.0000
  C   C1206     1.0  0.93905  0.33086  0.02805  1.0000
  C   C1207     1.0  0.94345  0.36191  0.07147  1.0000
  H   H951      1.0  0.72512  0.15684  0.06684  1.0000
  C   C1208     1.0  0.79829  0.21187  0.17797  1.0000
  H   H952      1.0  0.83003  0.21812  0.47426  1.0000
  H   H953      1.0  0.71921  0.18102  0.11200  1.0000
  H   H954      1.0  0.74561  0.35883  0.26773  1.0000
  C   C1209     1.0  0.67896  0.06303  0.00974  1.0000
  H   H955      1.0  0.86189  0.43800  0.03259  1.0000
  C   C1210     1.0  0.88532  0.48831  0.12933  1.0000
  H   H956      1.0  0.92404  0.37005  0.18689  1.0000
  H   H957      1.0  0.93562  0.34926  0.13974  1.0000
  C   C1211     1.0  0.82441  0.31449  0.30982  1.0000
  H   H958      1.0  0.74108  0.02233  0.08218  1.0000
  C   C1212     1.0  0.77193  0.01901  0.01574  1.0000
  H   H959      1.0  0.67318  0.10773  0.29032  1.0000
  H   H960      1.0  0.74966  0.05651  0.08022  1.0000
  H   H961      1.0  0.98097  0.37269  0.05775  1.0000
  C   C1213     1.0  0.83136  0.32033  0.36805  1.0000
  H   H962      1.0  0.94500  0.37403  0.08805  1.0000
  C   C1214     1.0  0.71610  0.11362  0.99470  1.0000
  C   C1215     1.0  0.96968  0.46917  0.10258  1.0000
  H   H963      1.0  0.90080  0.44937  0.03947  1.0000
  C   C1216     1.0  0.77348  0.34196  0.27012  1.0000
  H   H964      1.0  0.84406  0.29226  0.28611  1.0000
  H   H965      1.0  0.77946  0.35003  0.25001  1.0000
  H   H966      1.0  0.86336  0.28458  0.33663  1.0000
  H   H967      1.0  0.90983  0.48369  0.00949  1.0000
  H   H968      1.0  0.82795  0.32807  0.39105  1.0000
  C   C1217     1.0  0.82027  0.32481  0.33952  1.0000
  C   C1218     1.0  0.82640  0.27838  0.20348  1.0000
  H   H969      1.0  0.77879  0.00880  0.99816  1.0000
  C   C1219     1.0  0.81257  0.26473  0.20690  1.0000
  H   H970      1.0  0.80845  0.33628  0.34071  1.0000
  H   H971      1.0  0.83839  0.27576  0.18609  1.0000
  H   H972      1.0  0.69414  0.01609  0.11050  1.0000
  C   C1220     1.0  0.92246  0.20720  0.39719  1.0000
  C   C1221     1.0  0.93684  0.19157  0.39839  1.0000
  C   C1222     1.0  0.95571  0.19469  0.40870  1.0000
  C   C1223     1.0  0.96041  0.21356  0.41693  1.0000
  C   C1224     1.0  0.94627  0.22951  0.41398  1.0000
  C   C1225     1.0  0.92714  0.22612  0.40484  1.0000
  P   P38       1.0  0.95198  0.25420  0.42274  1.0000
  C   C1226     1.0  0.97799  0.25546  0.42779  1.0000
  C   C1227     1.0  0.94550  0.26980  0.38768  1.0000
  C   C1228     1.0  0.94299  0.26180  0.35603  1.0000
  C   C1229     1.0  0.93826  0.27404  0.32896  1.0000
  C   C1230     1.0  0.93618  0.29434  0.33314  1.0000
  C   C1231     1.0  0.93908  0.30245  0.36444  1.0000
  C   C1232     1.0  0.94382  0.29023  0.39161  1.0000
  P   P39       1.0  0.84328  0.17598  0.48192  1.0000
  C   C1233     1.0  0.81035  0.29840  0.24698  1.0000
  C   C1234     1.0  0.99064  0.35796  0.26649  1.0000
  H   H973      1.0  0.85521  0.30188  0.38918  1.0000
  H   H974      1.0  0.82375  0.39041  0.00974  1.0000
  C   C1235     1.0  0.84971  0.45549  0.07286  1.0000
  C   C1236     1.0  0.95521  0.46759  0.12659  1.0000
  H   H975      1.0  0.96683  0.18256  0.40916  1.0000
  H   H976      1.0  0.94348  0.27549  0.24498  1.0000
  C   C1237     1.0  0.82530  0.29512  0.22339  1.0000
  C   C1238     1.0  0.96705  0.29428  0.24862  1.0000
  C   C1239     1.0  0.81451  0.34268  0.21712  1.0000
  H   H977      1.0  0.85217  0.10359  0.48672  1.0000
  H   H978      1.0  0.91322  0.27533  0.43028  1.0000
  C   C1240     1.0  0.93726  0.26114  0.45870  1.0000
  H   H979      1.0  0.91592  0.23816  0.40267  1.0000
  H   H980      1.0  0.81320  0.21822  0.22339  1.0000
  H   H981      1.0  0.92445  0.46708  0.13603  1.0000
  H   H982      1.0  0.93231  0.30375  0.31212  1.0000
  H   H983      1.0  0.93755  0.31820  0.36763  1.0000
  H   H984      1.0  0.94607  0.29668  0.41572  1.0000
  H   H985      1.0  0.66729  0.09646  0.18617  1.0000
  H   H986      1.0  0.74011  0.14282  0.25329  1.0000
  H   H987      1.0  0.98483  0.46662  0.10996  1.0000
  H   H988      1.0  0.88379  0.40341  0.00811  1.0000
  H   H989      1.0  0.89159  0.28123  0.47852  1.0000
  C   C1241     1.0  0.93555  0.46910  0.11748  1.0000
  H   H990      1.0  0.84133  0.38113  0.20089  1.0000
  C   C1242     1.0  0.74606  0.33689  0.30606  1.0000
  H   H991      1.0  0.95961  0.31884  0.16209  1.0000
  C   C1243     1.0  0.97597  0.43411  0.03120  1.0000
  H   H992      1.0  0.83426  0.18866  0.36160  1.0000
  H   H993      1.0  0.92905  0.33569  0.21902  1.0000
  C   C1244     1.0  0.67280  0.10245  0.23755  1.0000
  H   H994      1.0  0.92810  0.42385  0.04219  1.0000
  C   C1245     1.0  0.84024  0.30017  0.30879  1.0000
  P   P40       1.0  0.80963  0.31982  0.27334  1.0000
  C   C1246     1.0  0.93974  0.32417  0.22730  1.0000
  C   C1247     1.0  0.97848  0.36788  0.16063  1.0000
  H   H995      1.0  0.91156  0.17426  0.44240  1.0000
  C   C1248     1.0  0.75716  0.32165  0.32202  1.0000
  C   C1249     1.0  0.86511  0.46884  0.02448  1.0000
  H   H996      1.0  0.81059  0.21452  0.16225  1.0000
  P   P41       1.0  0.74368  0.19310  0.16640  1.0000
  C   C1250     1.0  0.72914  0.21509  0.15452  1.0000
  C   C1251     1.0  0.74858  0.17675  0.13170  1.0000
  C   C1252     1.0  0.76665  0.16571  0.12879  1.0000
  C   C1253     1.0  0.76980  0.15187  0.10343  1.0000
  C   C1254     1.0  0.75493  0.14893  0.08080  1.0000
  H   H997      1.0  0.70392  0.14565  0.25546  1.0000
  C   C1255     1.0  0.99078  0.42915  0.17338  1.0000
  C   C1256     1.0  0.96972  0.30961  0.14721  1.0000
  C   C1257     1.0  0.97355  0.28995  0.15616  1.0000
  C   C1258     1.0  0.70288  0.99644  0.26687  1.0000
  C   C1259     1.0  0.82608  0.22290  0.42223  1.0000
  C   C1260     1.0  0.71828  0.22611  0.17858  1.0000
  C   C1261     1.0  0.73092  0.17880  0.19558  1.0000
  C   C1262     1.0  0.69364  0.06895  0.03049  1.0000
  C   C1263     1.0  0.73685  0.15973  0.08369  1.0000
  H   H998      1.0  0.75507  0.20116  0.23520  1.0000
  H   H999      1.0  0.77811  0.16717  0.14677  1.0000
  H   H1000     1.0  0.78357  0.14294  0.10213  1.0000
  C   C1264     1.0  0.69363  0.00167  0.04370  1.0000
  H   H1001     1.0  0.75717  0.13782  0.06168  1.0000
  C   C1265     1.0  0.82516  0.11368  0.46280  1.0000
  C   C1266     1.0  0.91860  0.27092  0.45466  1.0000
  H   H1002     1.0  0.79932  0.12802  0.44037  1.0000
  C   C1267     1.0  0.88237  0.22762  0.48237  1.0000
  H   H1003     1.0  0.69851  0.26321  0.12983  1.0000
  H   H1004     1.0  0.71837  0.22134  0.20424  1.0000
  C   C1268     1.0  0.81930  0.33965  0.25076  1.0000
  C   C1269     1.0  0.73183  0.15353  0.23796  1.0000
  C   C1270     1.0  0.98720  0.21653  0.31110  1.0000
  C   C1271     1.0  0.94988  0.47816  0.22404  1.0000
  C   C1272     1.0  0.71829  0.23920  0.11283  1.0000
  H   H1005     1.0  0.97776  0.35412  0.27962  1.0000
  C   C1273     1.0  0.67639  0.03339  0.26851  1.0000
  C   C1274     1.0  0.67591  0.03902  0.30208  1.0000
  P   P42       1.0  0.69849  0.02121  0.25135  1.0000
  H   H1006     1.0  0.97053  0.40383  0.02632  1.0000
  C   C1275     1.0  0.69677  0.01999  0.20664  1.0000
  C   C1276     1.0  0.68741  0.00480  0.19172  1.0000
  C   C1277     1.0  0.92707  0.34829  0.02481  1.0000
  C   C1278     1.0  0.69458  0.01724  0.13724  1.0000
  C   C1279     1.0  0.70362  0.03257  0.15188  1.0000
  C   C1280     1.0  0.70476  0.03399  0.18644  1.0000
  C   C1281     1.0  0.71363  0.00209  0.03758  1.0000
  C   C1282     1.0  0.83677  0.39327  0.99606  1.0000
  H   H1007     1.0  0.77212  0.06705  0.03702  1.0000
  C   C1283     1.0  0.73359  0.17345  0.10923  1.0000
  C   C1284     1.0  0.86947  0.17514  0.48734  1.0000
  C   C1285     1.0  0.71834  0.03571  0.26217  1.0000
  C   C1286     1.0  0.73730  0.02690  0.26733  1.0000
  C   C1287     1.0  0.75260  0.03839  0.27484  1.0000
  C   C1288     1.0  0.74910  0.05872  0.27731  1.0000
  C   C1289     1.0  0.73028  0.06758  0.27231  1.0000
  C   C1290     1.0  0.71499  0.05619  0.26453  1.0000
  H   H1008     1.0  0.71839  0.24433  0.08739  1.0000
  C   C1291     1.0  0.98483  0.44996  0.01738  1.0000
  C   C1292     1.0  0.99063  0.24841  0.40222  1.0000
  C   C1293     1.0  0.82737  0.21476  0.39043  1.0000
  H   H1009     1.0  0.68856  0.03578  0.31777  1.0000
  H   H1010     1.0  0.71866  0.01395  0.02298  1.0000
  C   C1294     1.0  0.84660  0.47423  0.08644  1.0000
  C   C1295     1.0  0.97707  0.41603  0.01498  1.0000
  H   H1011     1.0  0.71026  0.04312  0.13644  1.0000
  H   H1012     1.0  0.71216  0.04586  0.19704  1.0000
  H   H1013     1.0  0.97649  0.27055  0.47526  1.0000
  H   H1014     1.0  0.80887  0.16138  0.45098  1.0000
  P   P43       1.0  0.98292  0.47364  0.03761  1.0000
  H   H1015     1.0  0.81367  0.25167  0.19169  1.0000
  H   H1016     1.0  0.98173  0.38836  0.20019  1.0000
  H   H1017     1.0  0.74049  0.01127  0.26496  1.0000
  H   H1018     1.0  0.76727  0.03154  0.27801  1.0000
  H   H1019     1.0  0.76102  0.06766  0.28243  1.0000
  C   C1296     1.0  0.76700  0.20407  0.21889  1.0000
  H   H1020     1.0  0.70065  0.06351  0.25969  1.0000
  C   C1297     1.0  0.79653  0.28455  0.25042  1.0000
  H   H1021     1.0  0.78033  0.20402  0.13733  1.0000
  H   H1022     1.0  0.90793  0.20482  0.38857  1.0000
  H   H1023     1.0  0.83991  0.47620  0.11075  1.0000
  H   H1024     1.0  0.78539  0.21185  0.25942  1.0000
  H   H1025     1.0  0.68996  0.07755  0.05260  1.0000
  H   H1026     1.0  0.94693  0.38963  0.21730  1.0000
  C   C1298     1.0  0.76573  0.20104  0.18449  1.0000
  H   H1027     1.0  0.96234  0.31535  0.05507  1.0000
  H   H1028     1.0  0.68182  0.99959  0.30710  1.0000
  C   C1299     1.0  0.95907  0.32821  0.23339  1.0000
  C   C1300     1.0  0.84680  0.30571  0.36700  1.0000
  H   H1029     1.0  0.95581  0.46660  0.24040  1.0000
  C   C1301     1.0  0.95549  0.34449  0.07510  1.0000
  C   C1302     1.0  0.85922  0.45274  0.04231  1.0000
  H   H1030     1.0  0.93343  0.17715  0.39041  1.0000
  C   C1303     1.0  0.79764  0.26780  0.23037  1.0000
  C   C1304     1.0  0.83069  0.21125  0.45010  1.0000
  H   H1031     1.0  0.83646  0.30525  0.22088  1.0000
  C   C1305     1.0  0.98642  0.27758  0.13730  1.0000
  H   H1032     1.0  0.84972  0.37614  0.26001  1.0000
  H   H1033     1.0  0.84521  0.44294  0.08642  1.0000
  H   H1034     1.0  0.78482  0.30465  0.32466  1.0000
  H   H1035     1.0  0.75728  0.16338  0.21458  1.0000
  C   C1306     1.0  0.70074  0.16804  0.21787  1.0000
  H   H1036     1.0  0.91998  0.37736  0.04426  1.0000
  H   H1037     1.0  0.69867  0.25170  0.18826  1.0000
  H   H1038     1.0  0.84246  0.16785  0.41044  1.0000
  C   C1307     1.0  0.79972  0.21413  0.21233  1.0000
  C   C1308     1.0  0.75877  0.01297  0.03958  1.0000
  C   C1309     1.0  0.75078  0.02667  0.06283  1.0000
  H   H1039     1.0  0.97512  0.21560  0.42484  1.0000
  C   C1310     1.0  0.87329  0.48728  0.15711  1.0000
  C   C1311     1.0  0.97884  0.31709  0.11932  1.0000
  C   C1312     1.0  0.71144  0.15504  0.23901  1.0000
  H   H1040     1.0  0.68345  0.01334  0.03448  1.0000
  P   P44       1.0  0.97388  0.34245  0.10736  1.0000
  H   H1041     1.0  0.95928  0.46455  0.15215  1.0000
  H   H1042     1.0  0.87599  0.17735  0.43484  1.0000
  C   C1313     1.0  0.94299  0.25420  0.49030  1.0000
  C   C1314     1.0  0.70712  0.24986  0.13675  1.0000
  H   H1043     1.0  0.82089  0.09905  0.45817  1.0000
  H   H1044     1.0  0.91512  0.47334  0.07719  1.0000
  H   H1045     1.0  0.98948  0.26240  0.14456  1.0000
  H   H1046     1.0  0.97750  0.28247  0.25668  1.0000
  H   H1047     1.0  0.96820  0.43553  0.05454  1.0000
  H   H1048     1.0  0.77574  0.00058  0.09884  1.0000
  H   H1049     1.0  0.72444  0.06974  0.03773  1.0000
  C   C1315     1.0  0.77647  0.03851  0.01447  1.0000
  C   C1316     1.0  0.88187  0.17561  0.45967  1.0000
  C   C1317     1.0  0.85272  0.49031  0.06921  1.0000
  H   H1050     1.0  0.94046  0.47682  0.03482  1.0000
  C   C1318     1.0  0.71320  0.06442  0.02216  1.0000
  C   C1319     1.0  0.83632  0.15155  0.47441  1.0000
  C   C1320     1.0  0.99166  0.30452  0.10031  1.0000
  H   H1051     1.0  0.89261  0.21515  0.48743  1.0000
  C   C1321     1.0  0.81850  0.14887  0.45870  1.0000
  C   C1322     1.0  0.77066  0.99809  0.21356  1.0000
  H   H1052     1.0  0.70103  0.11843  0.00004  1.0000
  H   H1053     1.0  0.93730  0.31881  0.01121  1.0000
  C   C1323     1.0  0.81300  0.12999  0.45279  1.0000
  C   C1324     1.0  0.87054  0.40062  0.99510  1.0000
  H   H1054     1.0  0.91602  0.34979  0.00556  1.0000
  C   C1325     1.0  0.99130  0.30445  0.31767  1.0000
  C   C1326     1.0  0.84837  0.13510  0.48468  1.0000
  C   C1327     1.0  0.98584  0.26406  0.45593  1.0000
  H   H1055     1.0  0.98491  0.24220  0.37981  1.0000
  H   H1056     1.0  0.98503  0.38883  0.27695  1.0000
  H   H1057     1.0  0.78642  0.04316  0.99575  1.0000
  H   H1058     1.0  0.98684  0.29309  0.36675  1.0000
  C   C1328     1.0  0.66429  0.10416  0.26939  1.0000
  C   C1329     1.0  0.66105  0.09781  0.21080  1.0000
  H   H1059     1.0  0.66378  0.06696  0.01587  1.0000
  C   C1330     1.0  0.66004  0.03838  0.24841  1.0000
  H   H1060     1.0  0.99313  0.16177  0.44505  1.0000
  H   H1061     1.0  0.66010  0.03477  0.22226  1.0000
  H   H1062     1.0  0.68104  0.99396  0.20682  1.0000
  Fe  Fe93      1.0  0.87326  0.23582  0.60655  1.0000
  S   S185      1.0  0.87887  0.20730  0.63444  1.0000
  S   S186      1.0  0.88018  0.23109  0.55066  1.0000
  Fe  Fe94      1.0  0.86690  0.25884  0.67305  1.0000
  S   S187      1.0  0.87232  0.23146  0.70390  1.0000
  S   S188      1.0  0.85724  0.28730  0.70141  1.0000
  Fe  Fe95      1.0  0.89738  0.22430  0.66818  1.0000
  S   S189      1.0  0.92779  0.21226  0.68512  1.0000
  Fe  Fe96      1.0  0.85317  0.21671  0.66763  1.0000
  S   S190      1.0  0.82659  0.19837  0.67838  1.0000
  S   S191      1.0  0.89295  0.25234  0.63943  1.0000
  S   S192      1.0  0.84648  0.24458  0.63782  1.0000
  Fe  Fe97      1.0  0.74238  0.10316  0.85581  1.0000
  S   S193      1.0  0.76659  0.09159  0.82094  1.0000
  S   S194      1.0  0.75050  0.10195  0.91187  1.0000
  Fe  Fe98      1.0  0.71438  0.11196  0.79627  1.0000
  S   S195      1.0  0.73711  0.10171  0.75846  1.0000
  S   S196      1.0  0.68297  0.12422  0.78357  1.0000
  Fe  Fe99      1.0  0.74350  0.07633  0.79385  1.0000
  S   S197      1.0  0.74396  0.04548  0.77174  1.0000
  Fe  Fe100     1.0  0.75860  0.11800  0.78816  1.0000
  S   S198      1.0  0.78403  0.13594  0.76919  1.0000
  S   S199      1.0  0.72000  0.08607  0.83036  1.0000
  S   S200      1.0  0.73528  0.13012  0.82433  1.0000
  Fe  Fe101     1.0  0.89138  0.42960  0.81397  1.0000
  S   S201      1.0  0.89581  0.42458  0.86861  1.0000
  S   S202      1.0  0.89088  0.45981  0.78940  1.0000
  Fe  Fe102     1.0  0.89309  0.38456  0.79793  1.0000
  S   S203      1.0  0.89756  0.37687  0.85183  1.0000
  S   S204      1.0  0.89925  0.36091  0.75760  1.0000
  Fe  Fe103     1.0  0.87488  0.40144  0.86266  1.0000
  S   S205      1.0  0.85072  0.39664  0.89905  1.0000
  Fe  Fe104     1.0  0.91808  0.40047  0.85339  1.0000
  S   S206      1.0  0.94660  0.39443  0.88012  1.0000
  S   S207      1.0  0.86857  0.40792  0.80835  1.0000
  S   S208      1.0  0.91545  0.40686  0.79904  1.0000
  C   C1331     1.0  0.86935  0.30762  0.71665  1.0000
  C   C1332     1.0  0.85847  0.32239  0.73476  1.0000
  C   C1333     1.0  0.86731  0.33863  0.74785  1.0000
  C   C1334     1.0  0.88719  0.34050  0.74263  1.0000
  C   C1335     1.0  0.89801  0.32590  0.72415  1.0000
  C   C1336     1.0  0.88925  0.30952  0.71139  1.0000
  H   H1063     1.0  0.84304  0.32127  0.73861  1.0000
  H   H1064     1.0  0.85869  0.34988  0.76147  1.0000
  H   H1065     1.0  0.91327  0.32736  0.71970  1.0000
  H   H1066     1.0  0.89783  0.29843  0.69733  1.0000
  C   C1337     1.0  0.81539  0.18055  0.70375  1.0000
  C   C1338     1.0  0.82445  0.17167  0.73181  1.0000
  C   C1339     1.0  0.81477  0.15811  0.75124  1.0000
  C   C1340     1.0  0.79584  0.15302  0.74317  1.0000
  C   C1341     1.0  0.78683  0.16187  0.71506  1.0000
  C   C1342     1.0  0.79648  0.17544  0.69569  1.0000
  H   H1067     1.0  0.83892  0.17529  0.73866  1.0000
  H   H1068     1.0  0.82204  0.15150  0.77276  1.0000
  H   H1069     1.0  0.77239  0.15821  0.70811  1.0000
  H   H1070     1.0  0.78918  0.18208  0.67422  1.0000
  C   C1343     1.0  0.83634  0.39321  0.96133  1.0000
  C   C1344     1.0  0.98496  0.29770  0.64697  1.0000
  C   C1345     1.0  0.82083  0.32516  0.93955  1.0000
  H   H1071     1.0  0.89740  0.44056  0.93376  1.0000
  C   C1346     1.0  0.69848  0.12445  0.69755  1.0000
  C   C1347     1.0  0.74305  0.00561  0.78047  1.0000
  C   C1348     1.0  0.74607  0.02365  0.79560  1.0000
  C   C1349     1.0  0.75108  0.02387  0.82914  1.0000
  C   C1350     1.0  0.83178  0.18564  0.51962  1.0000
  H   H1072     1.0  0.91068  0.25024  0.71015  1.0000
  H   H1073     1.0  0.98461  0.17352  0.50167  1.0000
  H   H1074     1.0  0.75363  0.03760  0.84088  1.0000
  C   C1351     1.0  0.95607  0.20765  0.52381  1.0000
  H   H1075     1.0  0.83835  0.24902  0.86862  1.0000
  H   H1076     1.0  0.68077  0.07334  0.57061  1.0000
  C   C1352     1.0  0.96488  0.40631  0.86016  1.0000
  C   C1353     1.0  0.95985  0.42109  0.83707  1.0000
  C   C1354     1.0  0.97446  0.42977  0.81962  1.0000
  C   C1355     1.0  0.73556  0.03637  0.92508  1.0000
  C   C1356     1.0  0.98124  0.25028  0.75115  1.0000
  H   H1077     1.0  0.94472  0.42593  0.83275  1.0000
  H   H1078     1.0  0.97051  0.44107  0.80169  1.0000
  H   H1079     1.0  0.69677  0.08778  0.64122  1.0000
  H   H1080     1.0  0.79152  0.03630  0.91031  1.0000
  C   C1357     1.0  0.96771  0.21415  0.68485  1.0000
  C   C1358     1.0  0.94967  0.22218  0.67234  1.0000
  C   C1359     1.0  0.94946  0.23784  0.65004  1.0000
  C   C1360     1.0  0.96701  0.24562  0.64097  1.0000
  C   C1361     1.0  0.97614  0.30838  0.79910  1.0000
  H   H1081     1.0  0.96804  0.20195  0.70192  1.0000
  H   H1082     1.0  0.93577  0.24407  0.63996  1.0000
  H   H1083     1.0  0.96662  0.25785  0.62399  1.0000
  H   H1084     1.0  0.98736  0.39971  0.97169  1.0000
  C   C1362     1.0  0.85290  0.39683  0.94292  1.0000
  C   C1363     1.0  0.83233  0.44443  0.90735  1.0000
  H   H1085     1.0  0.82302  0.39032  0.94861  1.0000
  H   H1086     1.0  0.96755  0.42432  0.71809  1.0000
  H   H1087     1.0  0.93409  0.29655  0.79257  1.0000
  C   C1364     1.0  0.87368  0.23838  0.50914  1.0000
  H   H1088     1.0  0.99187  0.40000  0.67868  1.0000
  C   C1365     1.0  0.84264  0.26023  0.85180  1.0000
  H   H1089     1.0  0.85326  0.26268  0.52220  1.0000
  C   C1366     1.0  0.85868  0.45778  0.95396  1.0000
  C   C1367     1.0  0.74163  0.10491  0.95368  1.0000
  C   C1368     1.0  0.72216  0.11103  0.96122  1.0000
  C   C1369     1.0  0.96630  0.30999  0.76851  1.0000
  H   H1090     1.0  0.71181  0.11396  0.94128  1.0000
  H   H1091     1.0  0.87557  0.46483  0.91086  1.0000
  H   H1092     1.0  0.87598  0.47281  0.85428  1.0000
  H   H1093     1.0  0.94356  0.26147  0.70415  1.0000
  C   C1370     1.0  0.91584  0.26034  0.72813  1.0000
  H   H1094     1.0  0.77816  0.00835  0.93920  1.0000
  C   C1371     1.0  0.92947  0.47606  0.86067  1.0000
  C   C1372     1.0  0.93453  0.26666  0.72486  1.0000
  H   H1095     1.0  0.82261  0.43854  0.88944  1.0000
  C   C1373     1.0  0.71106  0.99882  0.90595  1.0000
  C   C1374     1.0  0.92988  0.20528  0.56351  1.0000
  C   C1375     1.0  0.76340  0.05211  0.90392  1.0000
  C   C1376     1.0  0.88540  0.48337  0.80763  1.0000
  C   C1377     1.0  0.87773  0.17263  0.51915  1.0000
  C   C1378     1.0  0.82851  0.44303  0.94122  1.0000
  C   C1379     1.0  0.77599  0.03640  0.91494  1.0000
  C   C1380     1.0  0.83173  0.33660  0.96002  1.0000
  C   C1381     1.0  0.72809  0.16467  0.75488  1.0000
  C   C1382     1.0  0.70902  0.16604  0.76722  1.0000
  C   C1383     1.0  0.70472  0.17556  0.79734  1.0000
  C   C1384     1.0  0.71944  0.18401  0.81492  1.0000
  C   C1385     1.0  0.73852  0.18322  0.80216  1.0000
  C   C1386     1.0  0.74280  0.17304  0.77248  1.0000
  P   P45       1.0  0.75795  0.19233  0.82623  1.0000
  C   C1387     1.0  0.74881  0.21300  0.85103  1.0000
  C   C1388     1.0  0.76708  0.17201  0.85187  1.0000
  C   C1389     1.0  0.75644  0.16688  0.87988  1.0000
  C   C1390     1.0  0.76277  0.15039  0.89864  1.0000
  C   C1391     1.0  0.77952  0.13872  0.88923  1.0000
  C   C1392     1.0  0.78994  0.14351  0.86103  1.0000
  C   C1393     1.0  0.78375  0.16007  0.84242  1.0000
  C   C1394     1.0  0.75614  0.21573  0.88307  1.0000
  C   C1395     1.0  0.74918  0.23198  0.90197  1.0000
  C   C1396     1.0  0.73509  0.24573  0.88881  1.0000
  C   C1397     1.0  0.72805  0.24332  0.85663  1.0000
  C   C1398     1.0  0.73497  0.22708  0.83770  1.0000
  C   C1399     1.0  0.77666  0.20149  0.80035  1.0000
  C   C1400     1.0  0.77220  0.20875  0.76839  1.0000
  C   C1401     1.0  0.78678  0.21579  0.74854  1.0000
  C   C1402     1.0  0.80581  0.21595  0.76061  1.0000
  C   C1403     1.0  0.81025  0.20929  0.79271  1.0000
  C   C1404     1.0  0.79568  0.20233  0.81270  1.0000
  H   H1096     1.0  0.73165  0.15661  0.73223  1.0000
  H   H1097     1.0  0.69767  0.15916  0.75409  1.0000
  H   H1098     1.0  0.69009  0.17580  0.80747  1.0000
  H   H1099     1.0  0.71599  0.19069  0.83879  1.0000
  H   H1100     1.0  0.75763  0.17118  0.76334  1.0000
  H   H1101     1.0  0.74301  0.17529  0.88674  1.0000
  H   H1102     1.0  0.75431  0.14613  0.91979  1.0000
  H   H1103     1.0  0.78402  0.12559  0.90318  1.0000
  H   H1104     1.0  0.80241  0.13399  0.85281  1.0000
  H   H1105     1.0  0.79161  0.16303  0.81994  1.0000
  H   H1106     1.0  0.76728  0.20537  0.89345  1.0000
  H   H1107     1.0  0.75476  0.23392  0.92680  1.0000
  H   H1108     1.0  0.71726  0.25407  0.84629  1.0000
  H   H1109     1.0  0.72957  0.22550  0.81266  1.0000
  H   H1110     1.0  0.75756  0.20880  0.75853  1.0000
  H   H1111     1.0  0.78353  0.22063  0.72338  1.0000
  H   H1112     1.0  0.81719  0.22080  0.74466  1.0000
  H   H1113     1.0  0.82508  0.20910  0.80177  1.0000
  H   H1114     1.0  0.79936  0.19727  0.83754  1.0000
  C   C1405     1.0  0.94358  0.20224  0.58895  1.0000
  C   C1406     1.0  0.67508  0.11250  0.64543  1.0000
  H   H1115     1.0  0.92480  0.46797  0.75562  1.0000
  H   H1116     1.0  0.81577  0.43610  0.94955  1.0000
  H   H1117     1.0  0.76920  0.06427  0.89109  1.0000
  C   C1407     1.0  0.84160  0.44958  0.96441  1.0000
  C   C1408     1.0  0.93052  0.25751  0.51759  1.0000
  C   C1409     1.0  0.70311  0.01147  0.93083  1.0000
  H   H1118     1.0  0.71692  0.09814  0.68773  1.0000
  C   C1410     1.0  0.90382  0.43710  0.95759  1.0000
  H   H1119     1.0  0.70707  0.12866  0.71852  1.0000
  H   H1120     1.0  0.72098  0.00393  0.88764  1.0000
  C   C1411     1.0  0.87800  0.48565  0.83981  1.0000
  H   H1121     1.0  0.92468  0.41509  0.93690  1.0000
  C   C1412     1.0  0.81742  0.17576  0.53596  1.0000
  C   C1413     1.0  0.67984  0.05338  0.84723  1.0000
  H   H1122     1.0  0.91441  0.20580  0.56917  1.0000
  H   H1123     1.0  0.67154  0.09368  0.73489  1.0000
  C   C1414     1.0  0.96366  0.48708  0.97982  1.0000
  C   C1415     1.0  0.70392  0.10715  0.68036  1.0000
  H   H1124     1.0  0.69723  0.07842  0.92701  1.0000
  C   C1416     1.0  0.75331  0.00627  0.84721  1.0000
  C   C1417     1.0  0.94775  0.35836  0.69082  1.0000
  H   H1125     1.0  0.82157  0.48714  0.96049  1.0000
  H   H1126     1.0  0.96053  0.21012  0.49849  1.0000
  H   H1127     1.0  0.93866  0.20035  0.61426  1.0000
  C   C1418     1.0  0.96804  0.35438  0.69234  1.0000
  C   C1419     1.0  0.86020  0.25430  0.50204  1.0000
  H   H1128     1.0  0.90213  0.26933  0.53428  1.0000
  H   H1129     1.0  0.98386  0.29469  0.80663  1.0000
  C   C1420     1.0  0.69239  0.10129  0.65419  1.0000
  C   C1421     1.0  0.70356  0.04806  0.97198  1.0000
  C   C1422     1.0  0.93986  0.46347  0.74952  1.0000
  C   C1423     1.0  0.89800  0.17110  0.52322  1.0000
  C   C1424     1.0  0.67289  0.00662  0.77221  1.0000
  C   C1425     1.0  0.69027  0.12399  0.53384  1.0000
  C   C1426     1.0  0.90361  0.49285  0.98971  1.0000
  H   H1130     1.0  0.94681  0.32892  0.73826  1.0000
  H   H1131     1.0  0.93473  0.25177  0.54186  1.0000
  C   C1427     1.0  0.98534  0.22180  0.67545  1.0000
  C   C1428     1.0  0.96353  0.20218  0.58202  1.0000
  C   C1429     1.0  0.97575  0.32445  0.82067  1.0000
  C   C1430     1.0  0.86234  0.45909  0.91973  1.0000
  C   C1431     1.0  0.98653  0.41373  0.98433  1.0000
  H   H1132     1.0  0.83829  0.44775  0.99030  1.0000
  C   C1432     1.0  0.98466  0.27020  0.75063  1.0000
  H   H1133     1.0  0.82586  0.34197  0.98363  1.0000
  C   C1433     1.0  0.81024  0.18234  0.56692  1.0000
  C   C1434     1.0  0.81729  0.19880  0.58173  1.0000
  C   C1435     1.0  0.83132  0.20884  0.56538  1.0000
  C   C1436     1.0  0.67023  0.13035  0.66186  1.0000
  H   H1134     1.0  0.96486  0.35457  0.82898  1.0000
  C   C1437     1.0  0.97945  0.36681  0.71026  1.0000
  H   H1135     1.0  0.70047  0.01488  0.79093  1.0000
  H   H1136     1.0  0.67146  0.01861  0.75463  1.0000
  H   H1137     1.0  0.97110  0.24391  0.55179  1.0000
  C   C1438     1.0  0.93769  0.47834  0.82930  1.0000
  H   H1138     1.0  0.86859  0.17188  0.54095  1.0000
  C   C1439     1.0  0.98626  0.24696  0.55160  1.0000
  H   H1139     1.0  0.94339  0.46533  0.81626  1.0000
  H   H1140     1.0  0.69379  0.02672  0.86645  1.0000
  H   H1141     1.0  0.76988  0.09653  0.97493  1.0000
  C   C1440     1.0  0.68388  0.05274  0.98049  1.0000
  H   H1142     1.0  0.79951  0.17448  0.57987  1.0000
  H   H1143     1.0  0.81212  0.20361  0.60612  1.0000
  H   H1144     1.0  0.90421  0.16950  0.54791  1.0000
  H   H1145     1.0  0.93297  0.43541  0.73121  1.0000
  C   C1441     1.0  0.68177  0.13613  0.68810  1.0000
  C   C1442     1.0  0.83852  0.20228  0.53455  1.0000
  H   H1146     1.0  0.81206  0.16274  0.52542  1.0000
  C   C1443     1.0  0.66107  0.11983  0.76147  1.0000
  C   C1444     1.0  0.69033  0.04212  0.87125  1.0000
  C   C1445     1.0  0.95056  0.30845  0.64800  1.0000
  H   H1147     1.0  0.73353  0.05132  0.98678  1.0000
  H   H1148     1.0  0.96869  0.30882  0.60439  1.0000
  C   C1446     1.0  0.90375  0.26721  0.75421  1.0000
  C   C1447     1.0  0.91210  0.26746  0.51339  1.0000
  H   H1149     1.0  0.73941  0.00530  0.75438  1.0000
  H   H1150     1.0  0.90098  0.28576  0.79739  1.0000
  C   C1448     1.0  0.94978  0.30368  0.68170  1.0000
  C   C1449     1.0  0.91942  0.42266  0.95928  1.0000
  C   C1450     1.0  0.88712  0.48750  0.97248  1.0000
  C   C1451     1.0  0.69461  0.08859  0.53192  1.0000
  H   H1151     1.0  0.67748  0.14945  0.70169  1.0000
  C   C1452     1.0  0.94984  0.38615  0.72727  1.0000
  H   H1152     1.0  0.84982  0.20984  0.52275  1.0000
  H   H1153     1.0  0.98582  0.47815  0.75568  1.0000
  C   C1453     1.0  0.96530  0.34212  0.81218  1.0000
  H   H1154     1.0  0.97466  0.34150  0.67988  1.0000
  H   H1155     1.0  0.99059  0.47018  0.92043  1.0000
  C   C1454     1.0  0.95453  0.47607  0.75569  1.0000
  C   C1455     1.0  0.97406  0.46941  0.74923  1.0000
  C   C1456     1.0  0.97870  0.45084  0.73556  1.0000
  H   H1156     1.0  0.93590  0.30555  0.69441  1.0000
  H   H1157     1.0  0.66758  0.08227  0.83337  1.0000
  H   H1158     1.0  0.88909  0.26263  0.75605  1.0000
  C   C1457     1.0  0.96999  0.20471  0.54929  1.0000
  C   C1458     1.0  0.87012  0.40046  0.95984  1.0000
  C   C1459     1.0  0.75479  0.10124  0.98028  1.0000
  C   C1460     1.0  0.69641  0.05085  0.90065  1.0000
  C   C1461     1.0  0.96663  0.29597  0.69848  1.0000
  C   C1462     1.0  0.69210  0.07111  0.90523  1.0000
  H   H1159     1.0  0.91472  0.49056  0.90210  1.0000
  H   H1160     1.0  0.67846  0.09793  0.88474  1.0000
  H   H1161     1.0  0.67551  0.04666  0.82435  1.0000
  C   C1463     1.0  0.95498  0.34361  0.78234  1.0000
  H   H1162     1.0  0.73381  0.06446  0.90008  1.0000
  H   H1163     1.0  0.96673  0.24562  0.74779  1.0000
  H   H1164     1.0  0.94616  0.35703  0.77641  1.0000
  C   C1464     1.0  0.98457  0.40079  0.86679  1.0000
  C   C1465     1.0  0.82821  0.31881  0.90861  1.0000
  C   C1466     1.0  0.84683  0.32336  0.89838  1.0000
  C   C1467     1.0  0.85748  0.33525  0.91883  1.0000
  P   P46       1.0  0.85509  0.31776  0.85661  1.0000
  C   C1468     1.0  0.84252  0.33671  0.83161  1.0000
  C   C1469     1.0  0.88124  0.31821  0.85495  1.0000
  C   C1470     1.0  0.89016  0.32898  0.83058  1.0000
  C   C1471     1.0  0.91050  0.32879  0.82927  1.0000
  C   C1472     1.0  0.92205  0.31789  0.85230  1.0000
  C   C1473     1.0  0.91327  0.30686  0.87635  1.0000
  C   C1474     1.0  0.89293  0.30692  0.87759  1.0000
  C   C1475     1.0  0.82874  0.33230  0.80753  1.0000
  C   C1476     1.0  0.81829  0.34736  0.78996  1.0000
  C   C1477     1.0  0.82102  0.36689  0.79703  1.0000
  C   C1478     1.0  0.83421  0.37138  0.82168  1.0000
  C   C1479     1.0  0.84506  0.35638  0.83866  1.0000
  C   C1480     1.0  0.85097  0.29352  0.84206  1.0000
  C   C1481     1.0  0.85444  0.28878  0.80851  1.0000
  C   C1482     1.0  0.85127  0.27021  0.79645  1.0000
  C   C1483     1.0  0.74326  0.05212  0.90893  1.0000
  H   H1165     1.0  0.94269  0.39807  0.74159  1.0000
  C   C1484     1.0  0.84555  0.27894  0.86386  1.0000
  H   H1166     1.0  0.98348  0.32323  0.84412  1.0000
  H   H1167     1.0  0.97371  0.20049  0.60247  1.0000
  P   P47       1.0  0.96512  0.28889  0.74174  1.0000
  H   H1168     1.0  0.81919  0.31081  0.89232  1.0000
  H   H1169     1.0  0.87124  0.34023  0.91063  1.0000
  H   H1170     1.0  0.88148  0.33771  0.81280  1.0000
  H   H1171     1.0  0.91725  0.33736  0.81057  1.0000
  H   H1172     1.0  0.93778  0.31804  0.85147  1.0000
  H   H1173     1.0  0.92222  0.29832  0.89412  1.0000
  H   H1174     1.0  0.88627  0.29828  0.89629  1.0000
  H   H1175     1.0  0.82582  0.31738  0.80228  1.0000
  H   H1176     1.0  0.80798  0.34386  0.77096  1.0000
  H   H1177     1.0  0.81283  0.37857  0.78362  1.0000
  H   H1178     1.0  0.83587  0.38650  0.82804  1.0000
  H   H1179     1.0  0.85513  0.36020  0.85782  1.0000
  H   H1180     1.0  0.85943  0.29955  0.79151  1.0000
  P   P48       1.0  0.70963  0.03652  0.93248  1.0000
  H   H1181     1.0  0.75762  0.00653  0.87286  1.0000
  C   C1485     1.0  0.67529  0.07342  0.85234  1.0000
  H   H1182     1.0  0.84379  0.28185  0.89012  1.0000
  H   H1183     1.0  0.72970  0.25832  0.90346  1.0000
  H   H1184     1.0  0.93737  0.31405  0.63523  1.0000
  C   C1486     1.0  0.98425  0.29299  0.68068  1.0000
  H   H1185     1.0  0.95895  0.47245  0.97737  1.0000
  C   C1487     1.0  0.84533  0.25593  0.81806  1.0000
  C   C1488     1.0  0.85000  0.34172  0.94958  1.0000
  C   C1489     1.0  0.76847  0.02078  0.93148  1.0000
  C   C1490     1.0  0.91048  0.28022  0.77742  1.0000
  H   H1186     1.0  0.92292  0.37719  0.70732  1.0000
  H   H1187     1.0  0.93891  0.34887  0.67687  1.0000
  C   C1491     1.0  0.94449  0.44495  0.73574  1.0000
  H   H1188     1.0  0.88303  0.40307  0.94576  1.0000
  C   C1492     1.0  0.84921  0.45245  0.89660  1.0000
  H   H1189     1.0  0.85236  0.45283  0.87026  1.0000
  C   C1493     1.0  0.69047  0.00425  0.95439  1.0000
  H   H1190     1.0  0.74280  0.00876  0.95013  1.0000
  C   C1494     1.0  0.96391  0.43870  0.72847  1.0000
  C   C1495     1.0  0.93612  0.20800  0.53097  1.0000
  C   C1496     1.0  0.97014  0.38236  0.72856  1.0000
  C   C1497     1.0  0.94144  0.27974  0.74794  1.0000
  C   C1498     1.0  0.92930  0.28638  0.77446  1.0000
  H   H1191     1.0  0.85809  0.35127  0.96487  1.0000
  P   P49       1.0  0.87634  0.46527  0.98400  1.0000
  H   H1192     1.0  0.85336  0.26695  0.77022  1.0000
  C   C1499     1.0  0.68940  0.00451  0.79262  1.0000
  C   C1500     1.0  0.95545  0.32764  0.76063  1.0000
  C   C1501     1.0  0.68143  0.08226  0.88132  1.0000
  C   C1502     1.0  0.96816  0.30549  0.63063  1.0000
  C   C1503     1.0  0.98502  0.23770  0.65365  1.0000
  C   C1504     1.0  0.74836  0.02091  0.93708  1.0000
  H   H1193     1.0  0.92871  0.46149  0.87079  1.0000
  H   H1194     1.0  0.92521  0.49204  0.71316  1.0000
  C   C1505     1.0  0.93868  0.37431  0.70809  1.0000
  H   H1195     1.0  0.84296  0.24151  0.80862  1.0000
  H   H1196     1.0  0.83701  0.22148  0.57687  1.0000
  C   C1506     1.0  0.89653  0.44660  0.98645  1.0000
  H   H1197     1.0  0.67234  0.04890  0.96400  1.0000
  H   H1198     1.0  0.68411  0.01354  0.97381  1.0000
  H   H1199     1.0  0.97855  0.39158  0.74388  1.0000
  H   H1200     1.0  0.93982  0.40625  0.99114  1.0000
  H   H1201     1.0  0.97937  0.27763  0.56161  1.0000
  H   H1202     1.0  0.70078  0.07526  0.52014  1.0000
  C   C1507     1.0  0.92168  0.49243  0.87833  1.0000
  C   C1508     1.0  0.92802  0.41773  0.98982  1.0000
  H   H1203     1.0  0.67282  0.13647  0.57409  1.0000
  H   H1204     1.0  0.69305  0.13810  0.52356  1.0000
  H   H1205     1.0  0.80643  0.32168  0.94730  1.0000
  C   C1509     1.0  0.71823  0.05403  0.99307  1.0000
  C   C1510     1.0  0.67880  0.12303  0.56239  1.0000
  C   C1511     1.0  0.69812  0.10678  0.51854  1.0000
  H   H1206     1.0  0.92539  0.21083  0.51146  1.0000
  C   C1512     1.0  0.68315  0.08757  0.56048  1.0000
  C   C1513     1.0  0.67495  0.10481  0.57565  1.0000
  H   H1207     1.0  0.98849  0.38954  0.88499  1.0000
  C   C1514     1.0  0.99091  0.26617  0.55727  1.0000
  H   H1208     1.0  0.92591  0.17041  0.49876  1.0000
  H   H1209     1.0  0.66602  0.07621  0.66898  1.0000
  H   H1210     1.0  0.95682  0.24572  0.49363  1.0000
  C   C1515     1.0  0.91021  0.17165  0.49556  1.0000
  H   H1211     1.0  0.70695  0.10755  0.49635  1.0000
  H   H1212     1.0  0.86205  0.13676  0.49725  1.0000
  P   P50       1.0  0.66008  0.10397  0.61243  1.0000
  Fe  Fe105     1.0  0.87716  0.61653  0.09334  1.0000
  S   S209      1.0  0.86629  0.60247  0.13978  1.0000
  S   S210      1.0  0.86006  0.62538  0.04716  1.0000
  Fe  Fe106     1.0  0.91904  0.61091  0.11459  1.0000
  S   S211      1.0  0.91221  0.59590  0.16180  1.0000
  S   S212      1.0  0.94855  0.61574  0.09480  1.0000
  Fe  Fe107     1.0  0.89134  0.57921  0.13200  1.0000
  S   S213      1.0  0.89416  0.54608  0.12154  1.0000
  Fe  Fe108     1.0  0.88812  0.62048  0.16631  1.0000
  S   S214      1.0  0.88737  0.63617  0.21699  1.0000
  S   S215      1.0  0.90052  0.59271  0.08436  1.0000
  S   S216      1.0  0.89652  0.63611  0.12012  1.0000
  Fe  Fe109     1.0  0.75821  0.88579  0.20304  1.0000
  S   S217      1.0  0.72838  0.88508  0.17830  1.0000
  S   S218      1.0  0.77413  0.85622  0.22079  1.0000
  Fe  Fe110     1.0  0.75491  0.93103  0.20063  1.0000
  S   S219      1.0  0.72544  0.93287  0.17713  1.0000
  S   S220      1.0  0.76905  0.95818  0.21765  1.0000
  Fe  Fe111     1.0  0.71789  0.90963  0.21327  1.0000
  S   S221      1.0  0.69222  0.91603  0.24993  1.0000
  Fe  Fe112     1.0  0.73821  0.90854  0.14349  1.0000
  S   S222      1.0  0.73178  0.91683  0.08855  1.0000
  S   S223      1.0  0.74705  0.90923  0.23901  1.0000
  S   S224      1.0  0.76841  0.90776  0.16608  1.0000
  Fe  Fe113     1.0  0.87074  0.75956  0.37858  1.0000
  S   S225      1.0  0.88317  0.78820  0.36872  1.0000
  S   S226      1.0  0.86478  0.74776  0.43091  1.0000
  Fe  Fe114     1.0  0.87576  0.74664  0.30451  1.0000
  S   S227      1.0  0.88909  0.77469  0.29141  1.0000
  S   S228      1.0  0.87214  0.72667  0.25912  1.0000
  Fe  Fe115     1.0  0.90615  0.77039  0.33894  1.0000
  S   S229      1.0  0.93819  0.77028  0.35434  1.0000
  Fe  Fe116     1.0  0.86462  0.79004  0.32183  1.0000
  S   S230      1.0  0.84866  0.81988  0.30567  1.0000
  S   S231      1.0  0.89418  0.74161  0.35016  1.0000
  S   S232      1.0  0.85067  0.76218  0.33355  1.0000
  C   C1516     1.0  0.86874  0.75814  0.47093  1.0000
  H   H1213     1.0  0.97540  0.77405  0.47721  1.0000
  H   H1214     1.0  0.92311  0.78325  0.43111  1.0000
  C   C1517     1.0  0.66312  0.85752  0.35630  1.0000
  H   H1215     1.0  0.97992  0.72893  0.27472  1.0000
  C   C1518     1.0  0.73630  0.90798  0.04709  1.0000
  C   C1519     1.0  0.95450  0.50688  0.19030  1.0000
  C   C1520     1.0  0.72988  0.91993  0.02004  1.0000
  C   C1521     1.0  0.72700  0.98732  0.05028  1.0000
  H   H1216     1.0  0.72256  0.93425  0.02479  1.0000
  C   C1522     1.0  0.92253  0.49441  0.19458  1.0000
  H   H1217     1.0  0.77773  0.88029  0.47806  1.0000
  H   H1218     1.0  0.99303  0.79791  0.38383  1.0000
  H   H1219     1.0  0.94887  0.61217  0.16678  1.0000
  H   H1220     1.0  0.73054  0.95395  0.24941  1.0000
  H   H1221     1.0  0.86403  0.78825  0.45584  1.0000
  H   H1222     1.0  0.75557  0.86862  0.00237  1.0000
  H   H1223     1.0  0.91666  0.70534  0.18973  1.0000
  H   H1224     1.0  0.98133  0.71603  0.16972  1.0000
  C   C1523     1.0  0.79518  0.84654  0.24414  1.0000
  C   C1524     1.0  0.80961  0.85817  0.25551  1.0000
  C   C1525     1.0  0.82584  0.84976  0.27385  1.0000
  C   C1526     1.0  0.82821  0.82951  0.28083  1.0000
  C   C1527     1.0  0.81393  0.81783  0.26900  1.0000
  C   C1528     1.0  0.79753  0.82631  0.25114  1.0000
  H   H1225     1.0  0.80827  0.87365  0.25003  1.0000
  H   H1226     1.0  0.83670  0.85904  0.28270  1.0000
  H   H1227     1.0  0.81527  0.80235  0.27445  1.0000
  H   H1228     1.0  0.78645  0.81714  0.24286  1.0000
  H   H1229     1.0  0.67586  0.94299  0.18855  1.0000
  C   C1529     1.0  0.87451  0.62310  0.01080  1.0000
  H   H1230     1.0  0.72427  0.98775  0.22901  1.0000
  H   H1231     1.0  0.98971  0.51550  0.02978  1.0000
  H   H1232     1.0  0.82280  0.75992  0.45468  1.0000
  C   C1530     1.0  0.88544  0.52387  0.13587  1.0000
  C   C1531     1.0  0.87319  0.52293  0.16349  1.0000
  H   H1233     1.0  0.71693  0.88574  0.28151  1.0000
  H   H1234     1.0  0.84205  0.58981  0.03244  1.0000
  C   C1532     1.0  0.76259  0.98160  0.20026  1.0000
  C   C1533     1.0  0.96288  0.55908  0.09209  1.0000
  H   H1235     1.0  0.86862  0.53616  0.17706  1.0000
  H   H1236     1.0  0.92809  0.52019  0.16721  1.0000
  H   H1237     1.0  0.96533  0.61159  0.33093  1.0000
  C   C1534     1.0  0.81922  0.75801  0.48065  1.0000
  C   C1535     1.0  0.88431  0.66163  0.22760  1.0000
  C   C1536     1.0  0.88810  0.66744  0.26041  1.0000
  C   C1537     1.0  0.88493  0.68725  0.27042  1.0000
  C   C1538     1.0  0.87774  0.70157  0.24778  1.0000
  C   C1539     1.0  0.87433  0.69583  0.21482  1.0000
  C   C1540     1.0  0.87762  0.67605  0.20475  1.0000
  H   H1238     1.0  0.89319  0.65646  0.27839  1.0000
  H   H1239     1.0  0.88761  0.69136  0.29584  1.0000
  H   H1240     1.0  0.86875  0.70673  0.19709  1.0000
  H   H1241     1.0  0.87447  0.67188  0.17955  1.0000
  H   H1242     1.0  0.85773  0.50411  0.19547  1.0000
  C   C1541     1.0  0.96019  0.77122  0.33150  1.0000
  C   C1542     1.0  0.97799  0.76609  0.34776  1.0000
  H   H1243     1.0  0.94696  0.78178  0.28580  1.0000
  H   H1244     1.0  0.97787  0.76089  0.37311  1.0000
  C   C1543     1.0  0.96706  0.60890  0.12317  1.0000
  H   H1245     1.0  0.67991  0.95809  0.24331  1.0000
  C   C1544     1.0  0.96328  0.60788  0.15727  1.0000
  H   H1246     1.0  0.97502  0.56207  0.14078  1.0000
  C   C1545     1.0  0.91771  0.75516  0.45117  1.0000
  C   C1546     1.0  0.78693  0.97436  0.12345  1.0000
  C   C1547     1.0  0.82058  0.90357  0.00009  1.0000
  C   C1548     1.0  0.83161  0.54277  0.05007  1.0000
  H   H1247     1.0  0.71256  0.94271  0.29815  1.0000
  C   C1549     1.0  0.69274  0.85077  0.30851  1.0000
  H   H1248     1.0  0.67128  0.98586  0.06644  1.0000
  H   H1249     1.0  0.80469  0.78687  0.48597  1.0000
  H   H1250     1.0  0.98266  0.56099  0.27940  1.0000
  C   C1550     1.0  0.78552  0.92171  0.43527  1.0000
  H   H1251     1.0  0.67208  0.86466  0.27404  1.0000
  H   H1252     1.0  0.96108  0.75371  0.19181  1.0000
  H   H1253     1.0  0.76113  0.94597  0.05531  1.0000
  C   C1551     1.0  0.66763  0.91049  0.25731  1.0000
  C   C1552     1.0  0.86523  0.55403  0.00866  1.0000
  H   H1254     1.0  0.97563  0.60111  0.20565  1.0000
  C   C1553     1.0  0.66612  0.84342  0.47663  1.0000
  H   H1255     1.0  0.95092  0.50735  0.11956  1.0000
  H   H1256     1.0  0.83057  0.90106  0.02072  1.0000
  H   H1257     1.0  0.77872  0.92799  0.10044  1.0000
  H   H1258     1.0  0.94004  0.55876  0.18023  1.0000
  C   C1554     1.0  0.97838  0.60164  0.17924  1.0000
  C   C1555     1.0  0.82369  0.75336  0.25983  1.0000
  C   C1556     1.0  0.80364  0.75782  0.26402  1.0000
  C   C1557     1.0  0.79349  0.77113  0.24268  1.0000
  C   C1558     1.0  0.80339  0.78001  0.21718  1.0000
  C   C1559     1.0  0.82366  0.77591  0.21326  1.0000
  C   C1560     1.0  0.83366  0.76243  0.23470  1.0000
  P   P51       1.0  0.83662  0.78597  0.17907  1.0000
  C   C1561     1.0  0.81932  0.79938  0.15209  1.0000
  C   C1562     1.0  0.85391  0.80288  0.19224  1.0000
  C   C1563     1.0  0.86132  0.80259  0.22468  1.0000
  C   C1564     1.0  0.87519  0.81541  0.23384  1.0000
  C   C1565     1.0  0.88157  0.82874  0.21092  1.0000
  C   C1566     1.0  0.87422  0.82919  0.17860  1.0000
  C   C1567     1.0  0.86048  0.81629  0.16925  1.0000
  C   C1568     1.0  0.81376  0.79157  0.12165  1.0000
  C   C1569     1.0  0.79988  0.80210  0.10170  1.0000
  C   C1570     1.0  0.79143  0.82037  0.11211  1.0000
  C   C1571     1.0  0.79693  0.82821  0.14238  1.0000
  C   C1572     1.0  0.81091  0.81783  0.16219  1.0000
  C   C1573     1.0  0.84938  0.76526  0.15831  1.0000
  C   C1574     1.0  0.84020  0.74784  0.15443  1.0000
  C   C1575     1.0  0.85048  0.73112  0.14126  1.0000
  C   C1576     1.0  0.87000  0.73163  0.13187  1.0000
  C   C1577     1.0  0.87921  0.74894  0.13534  1.0000
  C   C1578     1.0  0.86895  0.76571  0.14843  1.0000
  H   H1259     1.0  0.83156  0.74273  0.27589  1.0000
  H   H1260     1.0  0.79600  0.75084  0.28368  1.0000
  H   H1261     1.0  0.77792  0.77456  0.24581  1.0000
  H   H1262     1.0  0.79511  0.79005  0.20080  1.0000
  H   H1263     1.0  0.84917  0.75866  0.23160  1.0000
  H   H1264     1.0  0.85628  0.79280  0.24325  1.0000
  H   H1265     1.0  0.88066  0.81532  0.25909  1.0000
  H   H1266     1.0  0.89204  0.83886  0.21844  1.0000
  H   H1267     1.0  0.87903  0.83966  0.16090  1.0000
  H   H1268     1.0  0.85496  0.81681  0.14405  1.0000
  H   H1269     1.0  0.82000  0.77739  0.11332  1.0000
  H   H1270     1.0  0.79553  0.79605  0.07826  1.0000
  H   H1271     1.0  0.78052  0.82845  0.09686  1.0000
  H   H1272     1.0  0.79022  0.84226  0.15081  1.0000
  H   H1273     1.0  0.81489  0.82408  0.18573  1.0000
  H   H1274     1.0  0.82523  0.74702  0.16243  1.0000
  C   C1579     1.0  0.69619  0.84507  0.34143  1.0000
  H   H1275     1.0  0.87805  0.71854  0.12233  1.0000
  H   H1276     1.0  0.89443  0.74925  0.12849  1.0000
  H   H1277     1.0  0.87652  0.77878  0.15148  1.0000
  H   H1278     1.0  0.93630  0.65095  0.14344  1.0000
  C   C1580     1.0  0.76710  0.97467  0.07349  1.0000
  C   C1581     1.0  0.72007  0.96403  0.26220  1.0000
  C   C1582     1.0  0.95361  0.54706  0.07021  1.0000
  H   H1279     1.0  0.87392  0.66835  0.02986  1.0000
  C   C1583     1.0  0.71645  0.98322  0.25065  1.0000
  C   C1584     1.0  0.92556  0.77328  0.45190  1.0000
  C   C1585     1.0  0.95772  0.57457  0.25338  1.0000
  H   H1280     1.0  0.94208  0.51906  0.06346  1.0000
  C   C1586     1.0  0.95110  0.62610  0.28899  1.0000
  C   C1587     1.0  0.95320  0.63851  0.26200  1.0000
  C   C1588     1.0  0.97107  0.64631  0.25635  1.0000
  C   C1589     1.0  0.81736  0.60698  0.01192  1.0000
  H   H1281     1.0  0.98896  0.53452  0.23855  1.0000
  C   C1590     1.0  0.77853  0.94381  0.09949  1.0000
  C   C1591     1.0  0.80124  0.91070  0.00605  1.0000
  H   H1282     1.0  0.79599  0.51916  0.08841  1.0000
  H   H1283     1.0  0.78975  0.97322  0.01146  1.0000
  C   C1592     1.0  0.97789  0.65684  0.08314  1.0000
  H   H1284     1.0  0.93352  0.58476  0.22235  1.0000
  C   C1593     1.0  0.89790  0.54852  0.03189  1.0000
  C   C1594     1.0  0.96344  0.53384  0.13453  1.0000
  H   H1285     1.0  0.97872  0.78579  0.25784  1.0000
  C   C1595     1.0  0.77816  0.97016  0.99449  1.0000
  C   C1596     1.0  0.94948  0.52834  0.08018  1.0000
  P   P52       1.0  0.75281  0.98776  0.04169  1.0000
  C   C1597     1.0  0.92465  0.67838  0.16468  1.0000
  H   H1286     1.0  0.78642  0.91431  0.48726  1.0000
  H   H1287     1.0  0.90988  0.67667  0.15645  1.0000
  C   C1598     1.0  0.98713  0.60887  0.00667  1.0000
  H   H1288     1.0  0.84269  0.54829  0.13196  1.0000
  H   H1289     1.0  0.85076  0.50474  0.08032  1.0000
  H   H1290     1.0  0.85315  0.55820  0.07687  1.0000
  H   H1291     1.0  0.66591  0.89025  0.21684  1.0000
  H   H1292     1.0  0.93716  0.62024  0.29350  1.0000
  H   H1293     1.0  0.94090  0.64217  0.24557  1.0000
  H   H1294     1.0  0.97230  0.65629  0.23601  1.0000
  C   C1599     1.0  0.68145  0.84838  0.36527  1.0000
  H   H1295     1.0  0.67956  0.99136  0.14581  1.0000
  H   H1296     1.0  0.98978  0.67738  0.11630  1.0000
  C   C1600     1.0  0.75024  0.98398  0.17274  1.0000
  C   C1601     1.0  0.96696  0.62123  0.30999  1.0000
  C   C1602     1.0  0.86704  0.50473  0.17389  1.0000
  C   C1603     1.0  0.66365  0.95163  0.19988  1.0000
  H   H1297     1.0  0.68821  0.96570  0.32691  1.0000
  H   H1298     1.0  0.72978  0.96038  0.07899  1.0000
  H   H1299     1.0  0.96841  0.65124  0.10166  1.0000
  C   C1604     1.0  0.74842  0.88301  0.00713  1.0000
  H   H1300     1.0  0.78940  0.93653  0.43927  1.0000
  C   C1605     1.0  0.98494  0.62879  0.30402  1.0000
  C   C1606     1.0  0.96054  0.77781  0.29864  1.0000
  H   H1301     1.0  0.97714  0.68271  0.19725  1.0000
  H   H1302     1.0  0.95481  0.58597  0.27167  1.0000
  C   C1607     1.0  0.96792  0.55248  0.12408  1.0000
  C   C1608     1.0  0.98586  0.60399  0.11114  1.0000
  C   C1609     1.0  0.93452  0.50829  0.18244  1.0000
  C   C1610     1.0  0.97801  0.72110  0.22262  1.0000
  H   H1303     1.0  0.90763  0.54158  0.05037  1.0000
  H   H1304     1.0  0.94055  0.78405  0.17976  1.0000
  H   H1305     1.0  0.79616  0.91365  0.03120  1.0000
  C   C1611     1.0  0.84109  0.54903  0.07863  1.0000
  C   C1612     1.0  0.97706  0.54561  0.23424  1.0000
  H   H1306     1.0  0.87383  0.53287  0.04722  1.0000
  C   C1613     1.0  0.97856  0.78011  0.28288  1.0000
  H   H1307     1.0  0.69481  0.95945  0.08852  1.0000
  C   C1614     1.0  0.67468  0.86012  0.29952  1.0000
  C   C1615     1.0  0.93637  0.77856  0.47942  1.0000
  H   H1308     1.0  0.90521  0.78672  0.19373  1.0000
  H   H1309     1.0  0.80610  0.52924  0.03265  1.0000
  C   C1616     1.0  0.94957  0.55920  0.20160  1.0000
  C   C1617     1.0  0.97338  0.56047  0.25775  1.0000
  C   C1618     1.0  0.78482  0.82831  0.33579  1.0000
  C   C1619     1.0  0.80325  0.82407  0.34990  1.0000
  C   C1620     1.0  0.81264  0.83884  0.36552  1.0000
  C   C1621     1.0  0.80353  0.85783  0.36741  1.0000
  C   C1622     1.0  0.78491  0.86222  0.35354  1.0000
  C   C1623     1.0  0.77568  0.84732  0.33744  1.0000
  P   P53       1.0  0.77353  0.88695  0.35613  1.0000
  C   C1624     1.0  0.77748  0.89587  0.39759  1.0000
  C   C1625     1.0  0.78377  0.90262  0.32585  1.0000
  C   C1626     1.0  0.77325  0.92025  0.31659  1.0000
  C   C1627     1.0  0.78082  0.93245  0.29295  1.0000
  C   C1628     1.0  0.79885  0.92712  0.27812  1.0000
  C   C1629     1.0  0.80950  0.90970  0.28737  1.0000
  C   C1630     1.0  0.80203  0.89747  0.31119  1.0000
  C   C1631     1.0  0.78236  0.91510  0.40300  1.0000
  H   H1310     1.0  0.86625  0.50039  0.02532  1.0000
  H   H1311     1.0  0.98886  0.60482  0.08484  1.0000
  C   C1632     1.0  0.77892  0.89004  0.45712  1.0000
  C   C1633     1.0  0.77572  0.88340  0.42490  1.0000
  C   C1634     1.0  0.74766  0.88791  0.34758  1.0000
  C   C1635     1.0  0.73372  0.89336  0.37220  1.0000
  C   C1636     1.0  0.71387  0.89612  0.36402  1.0000
  C   C1637     1.0  0.70785  0.89353  0.33130  1.0000
  C   C1638     1.0  0.72159  0.88773  0.30692  1.0000
  C   C1639     1.0  0.74139  0.88498  0.31494  1.0000
  H   H1312     1.0  0.77791  0.81698  0.32259  1.0000
  H   H1313     1.0  0.81067  0.80953  0.34752  1.0000
  H   H1314     1.0  0.82729  0.83563  0.37518  1.0000
  H   H1315     1.0  0.81118  0.86916  0.37920  1.0000
  H   H1316     1.0  0.76161  0.85021  0.32576  1.0000
  H   H1317     1.0  0.75910  0.92454  0.32738  1.0000
  H   H1318     1.0  0.97833  0.67860  0.30046  1.0000
  H   H1319     1.0  0.80439  0.93644  0.25915  1.0000
  H   H1320     1.0  0.82342  0.90549  0.27564  1.0000
  H   H1321     1.0  0.81041  0.88393  0.31753  1.0000
  H   H1322     1.0  0.78390  0.92503  0.38247  1.0000
  C   C1640     1.0  0.97795  0.64926  0.05092  1.0000
  H   H1323     1.0  0.77198  0.86850  0.42123  1.0000
  H   H1324     1.0  0.73809  0.89597  0.39748  1.0000
  H   H1325     1.0  0.70317  0.90061  0.38288  1.0000
  H   H1326     1.0  0.69255  0.89609  0.32463  1.0000
  H   H1327     1.0  0.94941  0.55242  0.04577  1.0000
  H   H1328     1.0  0.75190  0.88099  0.29545  1.0000
  C   C1641     1.0  0.93360  0.68544  0.30278  1.0000
  C   C1642     1.0  0.93263  0.69929  0.32830  1.0000
  C   C1643     1.0  0.93758  0.71828  0.32199  1.0000
  C   C1644     1.0  0.94330  0.72353  0.29015  1.0000
  C   C1645     1.0  0.94480  0.70958  0.26452  1.0000
  C   C1646     1.0  0.93967  0.69052  0.27104  1.0000
  P   P54       1.0  0.95238  0.71646  0.22343  1.0000
  C   C1647     1.0  0.93745  0.73854  0.21267  1.0000
  C   C1648     1.0  0.66594  0.96015  0.23096  1.0000
  H   H1329     1.0  0.97873  0.70869  0.33401  1.0000
  C   C1649     1.0  0.89474  0.62416  0.01234  1.0000
  C   C1650     1.0  0.69997  0.97150  0.07446  1.0000
  C   C1651     1.0  0.68678  0.98629  0.06191  1.0000
  C   C1652     1.0  0.78764  0.95394  0.12439  1.0000
  C   C1653     1.0  0.91751  0.74033  0.22080  1.0000
  C   C1654     1.0  0.90588  0.75748  0.21337  1.0000
  C   C1655     1.0  0.91415  0.77324  0.19857  1.0000
  C   C1656     1.0  0.93405  0.77172  0.19072  1.0000
  C   C1657     1.0  0.94567  0.75443  0.19764  1.0000
  C   C1658     1.0  0.94767  0.69680  0.19508  1.0000
  C   C1659     1.0  0.96252  0.68204  0.18761  1.0000
  C   C1660     1.0  0.92864  0.69475  0.18348  1.0000
  H   H1330     1.0  0.92926  0.67084  0.30741  1.0000
  H   H1331     1.0  0.92767  0.69547  0.35281  1.0000
  H   H1332     1.0  0.93668  0.72910  0.34170  1.0000
  H   H1333     1.0  0.94643  0.73853  0.28559  1.0000
  H   H1334     1.0  0.93986  0.67964  0.25162  1.0000
  C   C1661     1.0  0.86713  0.67060  0.00571  1.0000
  H   H1335     1.0  0.96818  0.63815  0.04508  1.0000
  P   P55       1.0  0.96971  0.52547  0.17600  1.0000
  H   H1336     1.0  0.96581  0.57370  0.08450  1.0000
  C   C1662     1.0  0.71999  0.97204  0.06886  1.0000
  H   H1337     1.0  0.91095  0.72854  0.23336  1.0000
  H   H1338     1.0  0.89050  0.75862  0.21985  1.0000
  C   C1663     1.0  0.92060  0.74232  0.47797  1.0000
  H   H1339     1.0  0.90173  0.62604  0.03604  1.0000
  H   H1340     1.0  0.74406  0.97142  0.16203  1.0000
  H   H1341     1.0  0.90069  0.50706  0.09726  1.0000
  C   C1664     1.0  0.94576  0.57388  0.22546  1.0000
  C   C1665     1.0  0.75855  0.97538  0.00281  1.0000
  H   H1342     1.0  0.79485  0.94603  0.14487  1.0000
  H   H1343     1.0  0.81446  0.52829  0.13823  1.0000
  H   H1344     1.0  0.70413  0.84818  0.28999  1.0000
  H   H1345     1.0  0.90903  0.75126  0.43005  1.0000
  C   C1666     1.0  0.87851  0.54384  0.03036  1.0000
  C   C1667     1.0  0.78382  0.90919  0.46231  1.0000
  H   H1346     1.0  0.77252  0.94590  0.28557  1.0000
  H   H1347     1.0  0.96973  0.65404  0.16403  1.0000
  C   C1668     1.0  0.95443  0.52174  0.11216  1.0000
  C   C1669     1.0  0.76847  0.95410  0.07396  1.0000
  C   C1670     1.0  0.80873  0.52730  0.08559  1.0000
  H   H1348     1.0  0.82974  0.50819  0.00695  1.0000
  H   H1349     1.0  0.66425  0.92996  0.29939  1.0000
  C   C1671     1.0  0.82494  0.57233  0.00078  1.0000
  C   C1672     1.0  0.95841  0.66565  0.16896  1.0000
  H   H1350     1.0  0.75083  0.88013  0.06066  1.0000
  H   H1351     1.0  0.83797  0.67299  0.02543  1.0000
  C   C1673     1.0  0.83500  0.54369  0.11019  1.0000
  H   H1352     1.0  0.91393  0.72855  0.47766  1.0000
  C   C1674     1.0  0.69627  0.97070  0.30588  1.0000
  C   C1675     1.0  0.81903  0.53255  0.11368  1.0000
  H   H1353     1.0  0.71029  0.83801  0.34840  1.0000
  C   C1676     1.0  0.86682  0.77837  0.47655  1.0000
  C   C1677     1.0  0.93950  0.66383  0.15747  1.0000
  C   C1678     1.0  0.96544  0.54511  0.20563  1.0000
  C   C1679     1.0  0.71002  0.95776  0.28982  1.0000
  C   C1680     1.0  0.74579  0.88953  0.04032  1.0000
  C   C1681     1.0  0.77664  0.98474  0.09820  1.0000
  H   H1354     1.0  0.83313  0.72877  0.48271  1.0000
  H   H1355     1.0  0.68438  0.84356  0.39046  1.0000
  C   C1682     1.0  0.89133  0.50647  0.11875  1.0000
  C   C1683     1.0  0.90445  0.56267  0.01063  1.0000
  C   C1684     1.0  0.81475  0.53272  0.05394  1.0000
  H   H1356     1.0  0.84344  0.71760  0.13913  1.0000
  P   P56       1.0  0.83959  0.54979  0.00924  1.0000
  C   C1685     1.0  0.99031  0.65613  0.02664  1.0000
  H   H1357     1.0  0.82096  0.62030  0.02417  1.0000
  H   H1358     1.0  0.94205  0.79283  0.47986  1.0000
  C   C1686     1.0  0.98754  0.72687  0.25143  1.0000
  C   C1687     1.0  0.98086  0.51118  0.00935  1.0000
  H   H1359     1.0  0.92434  0.51447  0.99588  1.0000
  H   H1360     1.0  0.66646  0.86856  0.44492  1.0000
  C   C1688     1.0  0.65995  0.86358  0.32328  1.0000
  H   H1361     1.0  0.98534  0.83138  0.40602  1.0000
  C   C1689     1.0  0.69268  0.98997  0.29448  1.0000
  C   C1690     1.0  0.97921  0.59072  0.00699  1.0000
  C   C1691     1.0  0.82937  0.58967  0.01645  1.0000
  H   H1362     1.0  0.79361  0.98225  0.14318  1.0000
  H   H1363     1.0  0.98337  0.58029  0.02644  1.0000
  C   C1692     1.0  0.98847  0.71972  0.19255  1.0000
  C   C1693     1.0  0.84682  0.67314  0.00316  1.0000
  C   C1694     1.0  0.98719  0.64128  0.27691  1.0000
  C   C1695     1.0  0.98991  0.67156  0.09129  1.0000
  H   H1364     1.0  0.91929  0.56675  0.01240  1.0000
  C   C1696     1.0  0.66131  0.85414  0.44782  1.0000
  H   H1365     1.0  0.90717  0.49559  0.18859  1.0000
  C   C1697     1.0  0.99217  0.68425  0.30605  1.0000
  C   C1698     1.0  0.99231  0.70131  0.32517  1.0000
  Fe  Fe117     1.0  0.87388  0.77595  0.63322  1.0000
  S   S233      1.0  0.87747  0.80195  0.66704  1.0000
  S   S234      1.0  0.87000  0.78376  0.57762  1.0000
  Fe  Fe118     1.0  0.87921  0.74649  0.69166  1.0000
  S   S235      1.0  0.88310  0.77063  0.72814  1.0000
  S   S236      1.0  0.88797  0.71447  0.70659  1.0000
  Fe  Fe119     1.0  0.85765  0.78789  0.70313  1.0000
  S   S237      1.0  0.83123  0.80110  0.73464  1.0000
  Fe  Fe120     1.0  0.90253  0.78291  0.68951  1.0000
  S   S238      1.0  0.93232  0.79061  0.70899  1.0000
  S   S239      1.0  0.85268  0.76276  0.66813  1.0000
  S   S240      1.0  0.89992  0.75802  0.65414  1.0000
  Fe  Fe121     1.0  0.73996  0.89876  0.88657  1.0000
  S   S241      1.0  0.76594  0.91032  0.86205  1.0000
  S   S242      1.0  0.74532  0.88547  0.93874  1.0000
  Fe  Fe122     1.0  0.71423  0.90914  0.82486  1.0000
  S   S243      1.0  0.73907  0.92135  0.79717  1.0000
  S   S244      1.0  0.68300  0.91709  0.80609  1.0000
  Fe  Fe123     1.0  0.75777  0.89463  0.81551  1.0000
  S   S245      1.0  0.78276  0.88161  0.78102  1.0000
  Fe  Fe124     1.0  0.74559  0.93579  0.84536  1.0000
  S   S246      1.0  0.75283  0.96690  0.85732  1.0000
  S   S247      1.0  0.73240  0.88146  0.84068  1.0000
  S   S248      1.0  0.72008  0.92508  0.87255  1.0000
  Fe  Fe125     1.0  0.90002  0.60772  0.86866  1.0000
  S   S249      1.0  0.86900  0.60318  0.85607  1.0000
  S   S250      1.0  0.91167  0.62025  0.91602  1.0000
  Fe  Fe126     1.0  0.91445  0.59176  0.80206  1.0000
  S   S251      1.0  0.88453  0.58615  0.78395  1.0000
  S   S252      1.0  0.94169  0.58498  0.77216  1.0000
  Fe  Fe127     1.0  0.87567  0.61604  0.80587  1.0000
  S   S253      1.0  0.85611  0.64105  0.78223  1.0000
  Fe  Fe128     1.0  0.88095  0.57378  0.83537  1.0000
  S   S254      1.0  0.86942  0.54493  0.85226  1.0000
  S   S255      1.0  0.90593  0.62218  0.82012  1.0000
  S   S256      1.0  0.91154  0.57776  0.85170  1.0000
  C   C1699     1.0  0.87610  0.52144  0.83451  1.0000
  C   C1700     1.0  0.88387  0.51919  0.80247  1.0000
  C   C1701     1.0  0.79603  0.58977  0.97670  1.0000
  H   H1366     1.0  0.93486  0.54195  0.77486  1.0000
  C   C1702     1.0  0.94718  0.75797  0.60502  1.0000
  C   C1703     1.0  0.87300  0.50452  0.85290  1.0000
  H   H1367     1.0  0.88611  0.53200  0.78774  1.0000
  H   H1368     1.0  0.97487  0.80731  0.61591  1.0000
  H   H1369     1.0  0.97970  0.53983  0.98724  1.0000
  H   H1370     1.0  0.86673  0.50598  0.87738  1.0000
  C   C1704     1.0  0.87845  0.69471  0.72852  1.0000
  C   C1705     1.0  0.89126  0.67824  0.73623  1.0000
  C   C1706     1.0  0.88466  0.66181  0.75247  1.0000
  C   C1707     1.0  0.86501  0.66156  0.76144  1.0000
  C   C1708     1.0  0.85213  0.67809  0.75392  1.0000
  C   C1709     1.0  0.85880  0.69461  0.73770  1.0000
  H   H1371     1.0  0.90644  0.67824  0.72955  1.0000
  H   H1372     1.0  0.89478  0.64928  0.75792  1.0000
  H   H1373     1.0  0.83692  0.67814  0.76081  1.0000
  H   H1374     1.0  0.84873  0.70715  0.73205  1.0000
  C   C1710     1.0  0.81786  0.82376  0.74670  1.0000
  C   C1711     1.0  0.82377  0.84217  0.73812  1.0000
  C   C1712     1.0  0.81284  0.85954  0.74873  1.0000
  C   C1713     1.0  0.79576  0.85895  0.76809  1.0000
  C   C1714     1.0  0.78968  0.84054  0.77626  1.0000
  C   C1715     1.0  0.80067  0.82316  0.76579  1.0000
  H   H1375     1.0  0.83689  0.84305  0.72353  1.0000
  H   H1376     1.0  0.81775  0.87359  0.74203  1.0000
  H   H1377     1.0  0.77656  0.83967  0.79084  1.0000
  H   H1378     1.0  0.79582  0.80910  0.77260  1.0000
  H   H1379     1.0  0.83394  0.81411  0.61322  1.0000
  C   C1716     1.0  0.98628  0.66720  0.75101  1.0000
  H   H1380     1.0  0.80364  0.55905  0.97025  1.0000
  C   C1717     1.0  0.69189  0.98879  0.81472  1.0000
  H   H1381     1.0  0.86989  0.61833  0.92673  1.0000
  C   C1718     1.0  0.80038  0.77577  0.64652  1.0000
  C   C1719     1.0  0.74759  0.75012  0.60177  1.0000
  H   H1382     1.0  0.80427  0.72131  0.64544  1.0000
  C   C1720     1.0  0.97841  0.59758  0.77491  1.0000
  C   C1721     1.0  0.96033  0.59701  0.79073  1.0000
  C   C1722     1.0  0.95727  0.60585  0.82181  1.0000
  C   C1723     1.0  0.80018  0.72353  0.92474  1.0000
  H   H1383     1.0  0.94366  0.60490  0.83480  1.0000
  C   C1724     1.0  0.78831  0.91382  0.97953  1.0000
  C   C1725     1.0  0.95498  0.79310  0.68860  1.0000
  C   C1726     1.0  0.95602  0.79902  0.65547  1.0000
  H   H1384     1.0  0.97175  0.78599  0.73282  1.0000
  H   H1385     1.0  0.94273  0.80190  0.64129  1.0000
  H   H1386     1.0  0.96685  0.81221  0.55421  1.0000
  C   C1727     1.0  0.87067  0.77330  0.53679  1.0000
  H   H1387     1.0  0.82926  0.69856  0.67232  1.0000
  H   H1388     1.0  0.86551  0.80148  0.51321  1.0000
  H   H1389     1.0  0.91431  0.73221  0.76342  1.0000
  C   C1728     1.0  0.99166  0.79920  0.65945  1.0000
  H   H1390     1.0  0.70494  0.98691  0.82990  1.0000
  C   C1729     1.0  0.97095  0.66751  0.82593  1.0000
  H   H1391     1.0  0.89345  0.49869  0.76385  1.0000
  H   H1392     1.0  0.71256  0.96979  0.88514  1.0000
  H   H1393     1.0  0.82437  0.49855  0.90238  1.0000
  C   C1730     1.0  0.89706  0.62122  0.95209  1.0000
  C   C1731     1.0  0.87687  0.61990  0.95050  1.0000
  C   C1732     1.0  0.98000  0.68017  0.94527  1.0000
  C   C1733     1.0  0.95687  0.72857  0.72005  1.0000
  C   C1734     1.0  0.93925  0.73684  0.73315  1.0000
  H   H1394     1.0  0.82989  0.64061  0.94141  1.0000
  C   C1735     1.0  0.93987  0.76549  0.50606  1.0000
  C   C1736     1.0  0.80315  0.79253  0.66517  1.0000
  C   C1737     1.0  0.96692  0.69413  0.93000  1.0000
  P   P57       1.0  0.96058  0.67303  0.75923  1.0000
  C   C1738     1.0  0.94664  0.65837  0.73232  1.0000
  C   C1739     1.0  0.95576  0.66810  0.80252  1.0000
  C   C1740     1.0  0.93688  0.66459  0.81319  1.0000
  C   C1741     1.0  0.93344  0.66023  0.84655  1.0000
  C   C1742     1.0  0.91454  0.54682  0.73511  1.0000
  C   C1743     1.0  0.93506  0.70679  0.76277  1.0000
  H   H1395     1.0  0.98303  0.63728  0.73593  1.0000
  C   C1744     1.0  0.94106  0.66524  0.70056  1.0000
  C   C1745     1.0  0.92954  0.65433  0.68023  1.0000
  C   C1746     1.0  0.92374  0.63639  0.69125  1.0000
  C   C1747     1.0  0.92966  0.62923  0.72241  1.0000
  C   C1748     1.0  0.94118  0.64008  0.74282  1.0000
  C   C1749     1.0  0.95284  0.69833  0.74997  1.0000
  C   C1750     1.0  0.97424  0.80219  0.64116  1.0000
  H   H1396     1.0  0.67527  0.98455  0.71302  1.0000
  C   C1751     1.0  0.87229  0.74561  0.49841  1.0000
  H   H1397     1.0  0.90484  0.88476  0.89205  1.0000
  C   C1752     1.0  0.87861  0.66971  0.97705  1.0000
  H   H1398     1.0  0.92494  0.66476  0.79564  1.0000
  H   H1399     1.0  0.91908  0.65694  0.85476  1.0000
  H   H1400     1.0  0.94612  0.65505  0.89479  1.0000
  H   H1401     1.0  0.87904  0.66998  0.92394  1.0000
  H   H1402     1.0  0.79686  0.79436  0.68979  1.0000
  H   H1403     1.0  0.94506  0.67927  0.69178  1.0000
  H   H1404     1.0  0.92474  0.66001  0.65623  1.0000
  H   H1405     1.0  0.91453  0.62808  0.67579  1.0000
  H   H1406     1.0  0.92512  0.61533  0.73094  1.0000
  H   H1407     1.0  0.94565  0.63423  0.76685  1.0000
  H   H1408     1.0  0.84891  0.74383  0.58484  1.0000
  P   P58       1.0  0.94831  0.49999  0.77390  1.0000
  C   C1753     1.0  0.88708  0.51750  0.94020  1.0000
  H   H1409     1.0  0.72852  0.97417  0.98667  1.0000
  C   C1754     1.0  0.87360  0.75311  0.53099  1.0000
  H   H1410     1.0  0.99239  0.53912  0.91939  1.0000
  C   C1755     1.0  0.84438  0.73338  0.60278  1.0000
  H   H1411     1.0  0.79173  0.71255  0.58339  1.0000
  C   C1756     1.0  0.85293  0.70779  0.64289  1.0000
  H   H1412     1.0  0.91472  0.84287  0.59246  1.0000
  H   H1413     1.0  0.87659  0.74322  0.55156  1.0000
  C   C1757     1.0  0.92832  0.72594  0.75433  1.0000
  H   H1414     1.0  0.79191  0.76467  0.65705  1.0000
  C   C1758     1.0  0.94870  0.65934  0.86940  1.0000
  H   H1415     1.0  0.94924  0.49708  0.93469  1.0000
  C   C1759     1.0  0.74470  0.73039  0.59665  1.0000
  C   C1760     1.0  0.90594  0.62337  0.98308  1.0000
  C   C1761     1.0  0.99010  0.61626  0.82099  1.0000
  H   H1416     1.0  0.73738  0.95760  0.93368  1.0000
  C   C1762     1.0  0.81923  0.72087  0.63696  1.0000
  H   H1417     1.0  0.89682  0.58274  0.97084  1.0000
  C   C1763     1.0  0.95803  0.50105  0.95560  1.0000
  C   C1764     1.0  0.74867  0.96142  0.95062  1.0000
  C   C1765     1.0  0.91183  0.51028  0.98207  1.0000
  C   C1766     1.0  0.95544  0.75421  0.57353  1.0000
  C   C1767     1.0  0.77952  0.72310  0.58904  1.0000
  H   H1418     1.0  0.98359  0.57382  0.83167  1.0000
  H   H1419     1.0  0.96978  0.62187  0.86119  1.0000
  H   H1420     1.0  0.98088  0.59062  0.75099  1.0000
  C   C1768     1.0  0.76645  0.75635  0.60068  1.0000
  H   H1421     1.0  0.96569  0.52933  0.73222  1.0000
  C   C1769     1.0  0.83335  0.70804  0.65242  1.0000
  C   C1770     1.0  0.87209  0.56781  0.98670  1.0000
  C   C1771     1.0  0.96009  0.72592  0.62399  1.0000
  C   C1772     1.0  0.82115  0.78711  0.60325  1.0000
  C   C1773     1.0  0.82463  0.73333  0.61148  1.0000
  H   H1422     1.0  0.91346  0.78328  0.56068  1.0000
  C   C1774     1.0  0.74484  0.98799  0.79888  1.0000
  H   H1423     1.0  0.93901  0.77174  0.61062  1.0000
  H   H1424     1.0  0.86579  0.49673  0.93508  1.0000
  H   H1425     1.0  0.92604  0.69853  0.77849  1.0000
  C   C1775     1.0  0.86563  0.62101  0.97977  1.0000
  H   H1426     1.0  0.86390  0.69811  0.65533  1.0000
  C   C1776     1.0  0.81170  0.75351  0.54861  1.0000
  H   H1427     1.0  0.84234  0.55334  0.93722  1.0000
  H   H1428     1.0  0.77101  0.73094  0.90654  1.0000
  C   C1777     1.0  0.80909  0.77311  0.61511  1.0000
  C   C1778     1.0  0.97013  0.51273  0.77794  1.0000
  H   H1429     1.0  0.73519  0.76061  0.60644  1.0000
  H   H1430     1.0  0.83528  0.53151  0.89102  1.0000
  C   C1779     1.0  0.97517  0.52591  0.75324  1.0000
  C   C1780     1.0  0.90519  0.53872  0.70834  1.0000
  C   C1781     1.0  0.97211  0.61547  0.83685  1.0000
  H   H1431     1.0  0.88059  0.52715  0.92110  1.0000
  H   H1432     1.0  0.88808  0.91671  0.87531  1.0000
  H   H1433     1.0  0.89506  0.54786  0.69326  1.0000
  C   C1782     1.0  0.94157  0.79526  0.55637  1.0000
  H   H1434     1.0  0.87375  0.72091  0.61186  1.0000
  H   H1435     1.0  0.85005  0.62026  0.97837  1.0000
  C   C1783     1.0  0.94956  0.74389  0.63012  1.0000
  C   C1784     1.0  0.96616  0.73618  0.56764  1.0000
  C   C1785     1.0  0.96362  0.52010  0.95838  1.0000
  C   C1786     1.0  0.83367  0.52663  0.91646  1.0000
  H   H1436     1.0  0.80040  0.73667  0.93967  1.0000
  C   C1787     1.0  0.70628  0.97942  0.90441  1.0000
  C   C1788     1.0  0.81403  0.90257  0.94072  1.0000
  C   C1789     1.0  0.79465  0.90985  0.94704  1.0000
  P   P59       1.0  0.82186  0.89664  0.89863  1.0000
  C   C1790     1.0  0.84819  0.89309  0.89691  1.0000
  C   C1791     1.0  0.81191  0.87440  0.88470  1.0000
  C   C1792     1.0  0.82132  0.86310  0.85930  1.0000
  C   C1793     1.0  0.81354  0.84615  0.84787  1.0000
  C   C1794     1.0  0.79615  0.84047  0.86129  1.0000
  C   C1795     1.0  0.78661  0.85165  0.88637  1.0000
  C   C1796     1.0  0.79450  0.86847  0.89818  1.0000
  C   C1797     1.0  0.85926  0.90814  0.88585  1.0000
  C   C1798     1.0  0.87962  0.90512  0.88418  1.0000
  C   C1799     1.0  0.88907  0.88712  0.89363  1.0000
  C   C1800     1.0  0.87817  0.87214  0.90494  1.0000
  C   C1801     1.0  0.85781  0.87511  0.90668  1.0000
  C   C1802     1.0  0.81395  0.91639  0.87072  1.0000
  C   C1803     1.0  0.81022  0.93559  0.88272  1.0000
  C   C1804     1.0  0.80308  0.95063  0.86139  1.0000
  C   C1805     1.0  0.79991  0.94669  0.82788  1.0000
  C   C1806     1.0  0.80423  0.92778  0.81551  1.0000
  C   C1807     1.0  0.81136  0.91270  0.83674  1.0000
  H   H1437     1.0  0.97668  0.70819  0.58800  1.0000
  H   H1438     1.0  0.82219  0.67653  0.97041  1.0000
  C   C1808     1.0  0.83782  0.53893  0.94279  1.0000
  C   C1809     1.0  0.99066  0.79315  0.69251  1.0000
  H   H1439     1.0  0.78426  0.91213  0.92695  1.0000
  H   H1440     1.0  0.83447  0.86757  0.84776  1.0000
  H   H1441     1.0  0.82070  0.83772  0.82785  1.0000
  H   H1442     1.0  0.78988  0.82761  0.85176  1.0000
  H   H1443     1.0  0.77289  0.84754  0.89642  1.0000
  H   H1444     1.0  0.78664  0.87684  0.91736  1.0000
  H   H1445     1.0  0.85225  0.92217  0.87828  1.0000
  H   H1446     1.0  0.86230  0.57576  0.96944  1.0000
  H   H1447     1.0  0.67177  0.90878  0.69930  1.0000
  H   H1448     1.0  0.79726  0.78278  0.54550  1.0000
  H   H1449     1.0  0.84953  0.86335  0.91545  1.0000
  H   H1450     1.0  0.81248  0.93891  0.90858  1.0000
  C   C1810     1.0  0.99241  0.77881  0.55619  1.0000
  H   H1451     1.0  0.79152  0.62052  0.98846  1.0000
  H   H1452     1.0  0.80144  0.92456  0.78966  1.0000
  H   H1453     1.0  0.81403  0.89809  0.82662  1.0000
  C   C1811     1.0  0.78296  0.96124  0.96402  1.0000
  C   C1812     1.0  0.81499  0.80651  0.65297  1.0000
  H   H1454     1.0  0.67997  0.96274  0.83312  1.0000
  C   C1813     1.0  0.96739  0.66321  0.85918  1.0000
  C   C1814     1.0  0.84943  0.67441  0.94297  1.0000
  H   H1455     1.0  0.67627  0.97918  0.97146  1.0000
  P   P60       1.0  0.83777  0.67567  0.90272  1.0000
  C   C1815     1.0  0.81638  0.69290  0.90446  1.0000
  C   C1816     1.0  0.85436  0.68394  0.87189  1.0000
  C   C1817     1.0  0.86857  0.67056  0.85764  1.0000
  C   C1818     1.0  0.88095  0.67665  0.83292  1.0000
  C   C1819     1.0  0.87935  0.69608  0.82217  1.0000
  C   C1820     1.0  0.86539  0.70954  0.83639  1.0000
  C   C1821     1.0  0.85295  0.70355  0.86122  1.0000
  C   C1822     1.0  0.79973  0.68984  0.88561  1.0000
  C   C1823     1.0  0.78341  0.70350  0.88649  1.0000
  C   C1824     1.0  0.78363  0.72032  0.90606  1.0000
  H   H1456     1.0  0.66795  0.91951  0.57758  1.0000
  C   C1825     1.0  0.81653  0.70992  0.92391  1.0000
  C   C1826     1.0  0.83082  0.65173  0.89112  1.0000
  C   C1827     1.0  0.82817  0.64716  0.85752  1.0000
  C   C1828     1.0  0.82289  0.62865  0.84835  1.0000
  C   C1829     1.0  0.82024  0.61455  0.87260  1.0000
  C   C1830     1.0  0.82282  0.61898  0.90610  1.0000
  C   C1831     1.0  0.82795  0.63754  0.91538  1.0000
  C   C1832     1.0  0.88815  0.50027  0.78899  1.0000
  C   C1833     1.0  0.74172  0.89479  0.98010  1.0000
  H   H1457     1.0  0.77181  0.94986  0.91846  1.0000
  C   C1834     1.0  0.82756  0.50807  0.92284  1.0000
  H   H1458     1.0  0.95929  0.57243  0.98325  1.0000
  H   H1459     1.0  0.86982  0.65529  0.86502  1.0000
  H   H1460     1.0  0.89123  0.66606  0.82106  1.0000
  H   H1461     1.0  0.88856  0.70059  0.80219  1.0000
  H   H1462     1.0  0.86395  0.72454  0.82759  1.0000
  H   H1463     1.0  0.84211  0.71421  0.87145  1.0000
  H   H1464     1.0  0.79930  0.67704  0.86997  1.0000
  H   H1465     1.0  0.77064  0.70109  0.87176  1.0000
  C   C1835     1.0  0.90914  0.51891  0.70080  1.0000
  C   C1836     1.0  0.93975  0.67833  0.95296  1.0000
  H   H1466     1.0  0.82936  0.71279  0.93812  1.0000
  H   H1467     1.0  0.83044  0.65777  0.83824  1.0000
  H   H1468     1.0  0.82145  0.62512  0.82225  1.0000
  H   H1469     1.0  0.81666  0.60005  0.86529  1.0000
  C   C1837     1.0  0.69379  0.97233  0.92804  1.0000
  C   C1838     1.0  0.98110  0.62294  0.98269  1.0000
  C   C1839     1.0  0.86984  0.67145  0.94575  1.0000
  C   C1840     1.0  0.97301  0.66491  0.96391  1.0000
  H   H1470     1.0  0.89427  0.66673  0.97912  1.0000
  C   C1841     1.0  0.91199  0.81316  0.57705  1.0000
  H   H1471     1.0  0.69406  0.84550  0.71995  1.0000
  C   C1842     1.0  0.95156  0.81216  0.56045  1.0000
  H   H1472     1.0  0.98798  0.77857  0.58202  1.0000
  C   C1843     1.0  0.76821  0.95691  0.94205  1.0000
  C   C1844     1.0  0.66827  0.97086  0.66725  1.0000
  H   H1473     1.0  0.90995  0.53607  0.95110  1.0000
  H   H1474     1.0  0.79940  0.96528  0.87089  1.0000
  H   H1475     1.0  0.91198  0.56232  0.74038  1.0000
  H   H1476     1.0  0.75840  0.70167  0.58565  1.0000
  C   C1845     1.0  0.94681  0.69316  0.93370  1.0000
  H   H1477     1.0  0.68253  0.87826  0.77446  1.0000
  C   C1846     1.0  0.68592  0.98473  0.95308  1.0000
  H   H1478     1.0  0.97240  0.70568  0.91521  1.0000
  C   C1847     1.0  0.89167  0.57193  0.98753  1.0000
  C   C1848     1.0  0.96350  0.70927  0.72790  1.0000
  C   C1849     1.0  0.66972  0.88728  0.76655  1.0000
  P   P61       1.0  0.95391  0.77265  0.54133  1.0000
  C   C1850     1.0  0.80078  0.60708  0.99188  1.0000
  C   C1851     1.0  0.66894  0.91695  0.60408  1.0000
  H   H1479     1.0  0.92417  0.67755  0.95581  1.0000
  H   H1480     1.0  0.82118  0.60791  0.92485  1.0000
  C   C1852     1.0  0.92242  0.51113  0.86486  1.0000
  H   H1481     1.0  0.97284  0.73313  0.54364  1.0000
  C   C1853     1.0  0.97891  0.77625  0.53066  1.0000
  C   C1854     1.0  0.76065  0.71691  0.59009  1.0000
  C   C1855     1.0  0.94190  0.82926  0.57348  1.0000
  H   H1482     1.0  0.95913  0.53091  0.93964  1.0000
  H   H1483     1.0  0.97940  0.66198  0.87660  1.0000
  H   H1484     1.0  0.82891  0.78491  0.58001  1.0000
  H   H1485     1.0  0.96181  0.71505  0.64352  1.0000
  C   C1856     1.0  0.96840  0.72206  0.59273  1.0000
  C   C1857     1.0  0.98585  0.55716  0.87672  1.0000
  C   C1858     1.0  0.75004  0.98830  0.83243  1.0000
  H   H1486     1.0  0.97673  0.70291  0.71625  1.0000
  C   C1859     1.0  0.93071  0.51345  0.83351  1.0000
  H   H1487     1.0  0.71404  0.98072  0.74559  1.0000
  H   H1488     1.0  0.91593  0.52384  0.87806  1.0000
  H   H1489     1.0  0.78299  0.58976  0.96159  1.0000
  C   C1860     1.0  0.66661  0.90649  0.77834  1.0000
  C   C1861     1.0  0.92159  0.79603  0.56410  1.0000
  C   C1862     1.0  0.97241  0.79024  0.70701  1.0000
  H   H1490     1.0  0.88548  0.85816  0.91214  1.0000
  C   C1863     1.0  0.82133  0.73810  0.53040  1.0000
  H   H1491     1.0  0.93382  0.75159  0.72651  1.0000
  C   C1864     1.0  0.95278  0.66435  0.96826  1.0000
  C   C1865     1.0  0.85846  0.72054  0.61823  1.0000
  H   H1492     1.0  0.74255  0.97420  0.78708  1.0000
  H   H1493     1.0  0.96518  0.73713  0.70346  1.0000
  H   H1494     1.0  0.72736  0.92274  0.96648  1.0000
  H   H1495     1.0  0.94318  0.74703  0.65437  1.0000
  C   C1866     1.0  0.72061  0.96561  0.69944  1.0000
  C   C1867     1.0  0.71368  0.96710  0.73205  1.0000
  C   C1868     1.0  0.70617  0.95101  0.74717  1.0000
  C   C1869     1.0  0.70580  0.93337  0.72994  1.0000
  C   C1870     1.0  0.71322  0.93156  0.69759  1.0000
  C   C1871     1.0  0.72015  0.94795  0.68205  1.0000
  P   P62       1.0  0.71172  0.90899  0.67514  1.0000
  C   C1872     1.0  0.71362  0.88861  0.70363  1.0000
  C   C1873     1.0  0.68844  0.91149  0.65412  1.0000
  C   C1874     1.0  0.97508  0.52515  0.98521  1.0000
  C   C1875     1.0  0.86759  0.78584  0.50923  1.0000
  H   H1496     1.0  0.97054  0.56017  0.88285  1.0000
  C   C1876     1.0  0.87877  0.50013  0.94802  1.0000
  C   C1877     1.0  0.68717  0.91517  0.61984  1.0000
  C   C1878     1.0  0.70134  0.87331  0.70073  1.0000
  C   C1879     1.0  0.70383  0.85707  0.72180  1.0000
  C   C1880     1.0  0.71869  0.85587  0.74558  1.0000
  C   C1881     1.0  0.73118  0.87085  0.74815  1.0000
  C   C1882     1.0  0.72868  0.88715  0.72727  1.0000
  C   C1883     1.0  0.73247  0.90368  0.64816  1.0000
  C   C1884     1.0  0.75054  0.91074  0.65583  1.0000
  C   C1885     1.0  0.76701  0.90529  0.63648  1.0000
  C   C1886     1.0  0.76567  0.89249  0.60973  1.0000
  C   C1887     1.0  0.74786  0.88496  0.60251  1.0000
  C   C1888     1.0  0.73137  0.89036  0.62187  1.0000
  H   H1497     1.0  0.72633  0.97816  0.68771  1.0000
  H   H1498     1.0  0.99083  0.75852  0.64768  1.0000
  H   H1499     1.0  0.70077  0.95201  0.77243  1.0000
  H   H1500     1.0  0.69980  0.92111  0.74200  1.0000
  H   H1501     1.0  0.72524  0.94709  0.65661  1.0000
  C   C1889     1.0  0.82405  0.80375  0.62209  1.0000
  H   H1502     1.0  0.82616  0.72438  0.54227  1.0000
  C   C1890     1.0  0.93113  0.51494  0.74825  1.0000
  C   C1891     1.0  0.92226  0.50714  0.72028  1.0000
  H   H1503     1.0  0.70015  0.91677  0.60526  1.0000
  H   H1504     1.0  0.68983  0.87382  0.68236  1.0000
  H   H1505     1.0  0.90204  0.51263  0.67981  1.0000
  H   H1506     1.0  0.72055  0.84337  0.76206  1.0000
  H   H1507     1.0  0.74289  0.86982  0.76625  1.0000
  H   H1508     1.0  0.73866  0.89850  0.72945  1.0000
  H   H1509     1.0  0.75214  0.91996  0.67735  1.0000
  H   H1510     1.0  0.78095  0.91065  0.64279  1.0000
  H   H1511     1.0  0.77854  0.88804  0.59515  1.0000
  H   H1512     1.0  0.74696  0.87459  0.58239  1.0000
  H   H1513     1.0  0.71789  0.88376  0.61689  1.0000
  C   C1892     1.0  0.92740  0.53505  0.75497  1.0000
  C   C1893     1.0  0.78260  0.74277  0.59522  1.0000
  H   H1514     1.0  0.89666  0.81353  0.58357  1.0000
  C   C1894     1.0  0.83056  0.51376  0.98198  1.0000
  C   C1895     1.0  0.90367  0.52252  0.95707  1.0000
  P   P63       1.0  0.80689  0.75071  0.59236  1.0000
  C   C1896     1.0  0.73256  0.91343  0.98683  1.0000
  H   H1515     1.0  0.94980  0.84209  0.57741  1.0000
  H   H1516     1.0  0.94705  0.65307  0.98340  1.0000
  C   C1897     1.0  0.82610  0.50162  0.95559  1.0000
  H   H1517     1.0  0.79810  0.95744  0.95764  1.0000
  H   H1518     1.0  0.93669  0.70386  0.92159  1.0000
  H   H1519     1.0  0.76837  0.77174  0.60400  1.0000
  H   H1520     1.0  0.92155  0.62434  0.98455  1.0000
  H   H1521     1.0  0.79371  0.95824  0.81170  1.0000
  C   C1898     1.0  0.80791  0.57239  0.98143  1.0000
  H   H1522     1.0  0.81771  0.81909  0.66811  1.0000
  H   H1523     1.0  0.73008  0.72558  0.59749  1.0000
  H   H1524     1.0  0.68336  0.96824  0.65969  1.0000
  C   C1899     1.0  0.92215  0.82972  0.58197  1.0000
  H   H1525     1.0  0.98575  0.66967  0.81865  1.0000
  C   C1900     1.0  0.98313  0.50822  0.80425  1.0000
  C   C1901     1.0  0.67120  0.91086  0.67263  1.0000
  C   C1902     1.0  0.82696  0.89945  0.96760  1.0000
  C   C1903     1.0  0.83797  0.67503  0.97194  1.0000
  H   H1526     1.0  0.69030  0.95719  0.92696  1.0000
  C   C1904     1.0  0.67781  0.97525  0.81660  1.0000
  H   H1527     1.0  0.93091  0.52807  0.82373  1.0000
  C   C1905     1.0  0.80514  0.77089  0.53213  1.0000
  C   C1906     1.0  0.93809  0.49705  0.81505  1.0000
  H   H1528     1.0  0.95003  0.59650  0.93872  1.0000
  C   C1907     1.0  0.96045  0.59985  0.95770  1.0000
  C   C1908     1.0  0.66360  0.98012  0.69754  1.0000
  C   C1909     1.0  0.74378  0.97072  0.98078  1.0000
  C   C1910     1.0  0.66122  0.97739  0.79636  1.0000
  C   C1911     1.0  0.96824  0.61804  0.95748  1.0000
  H   H1529     1.0  0.96395  0.62830  0.93785  1.0000
  C   C1912     1.0  0.96573  0.58629  0.98269  1.0000
  H   H1530     1.0  0.77327  0.91918  0.98414  1.0000
  C   C1913     1.0  0.83588  0.53277  0.97584  1.0000
  H   H1531     1.0  0.93322  0.73744  0.52615  1.0000
  C   C1914     1.0  0.80913  0.77321  0.49837  1.0000
  H   H1532     1.0  0.97982  0.49772  0.82310  1.0000
  C   C1915     1.0  0.93159  0.74744  0.50540  1.0000
  H   H1533     1.0  0.84194  0.89378  0.96373  1.0000
  P   P64       1.0  0.98969  0.64710  0.98455  1.0000
  H   H1534     1.0  0.67475  0.84961  0.49585  1.0000
  C   C1916     1.0  0.82510  0.74040  0.49656  1.0000
  C   C1917     1.0  0.98521  0.77645  0.49747  1.0000
  H   H1535     1.0  0.66315  0.81659  0.50335  1.0000
  C   C1918     1.0  0.99264  0.53487  0.75539  1.0000
  C   C1919     1.0  0.99307  0.64835  0.74025  1.0000
  C   C1920     1.0  0.99320  0.56505  0.84788  1.0000
  H   H1536     1.0  0.87384  0.72995  0.49448  1.0000
