data_image0
_chemical_formula_structural       CHCFeS2FeSCHCH2FeSFeS2C2HCH2CSCHCHC2SC4HC2HCH2C6H5C3HC2H3CH2C3PC3HC2HC7H2C2H4C2HCH6CH2C12H7C3HCHCHCHC3PC8HCHC2HC4HCSHCH6C4HC2PH2SH2C2HPHC3HCH6CH2CHC2HCH2CH2SHC2SH3CFeCHFeC2HFeHC2H4C3HSFeSCPHFeCHCSFeS2FeS2FeSFeS2C2SHSHC2PCHCHCHC6HCH3C3HC6H4CHCHC2SHC2SC2HCH4C3HFeHC4H2C2H2C6PC4FeCFeC11HCH4S2H9CH2C3HCHSCHC3H2C3H2CHFeH2CHC2HCH3C4H2C6SHCH5CHCHC2H2PH3C4HC2HC6HC2HCHC3HCHCH5C2HC2HCH3CSC2HSCSCH2SH3C2HC2H3CH2CHCH2CHPCHC2HPC6H4C4H2C2HCH2C2HC3FeH3C2HPH2C2HSCH2CFeSCFeC4HCPFe2SCH3FeC4S3H3CH4C2HC2HCHC2HC6H5C2HC5HC7H2CH2C5HCH2SCHC3H4CH2CSH4CHCH2CHCSHCH2C3H2C2H2C2H2C2HPC3H2CHC3HPC2HC2HCHCH3PH2FeSHSFeSCSCHCHCH2CHC3HC2HC2H3C2HC6H4SC2H3SCFeC4HC2HSCPH2SCH2CFeC4HC2H2C3H2SC2HCHCHCHC7PC9HC6H12C2H3C5HSHCHC3H3CHCH2PCH2C2H2C3FeSH6C2HCH3C3H4C2HC6PC2SFeSHCSFeCFeS2FeS2FeSFeS3HFeHSHCSCS3HC3H2CPC6H4C6H4C2SHCHC6H4C2SC3H2CHFeC3H2C3HC6FeHC5HC3PHC3H5SCH3C3HC9PC4HSC3HC5HFeCFeHCH5CH5CH7C2HC3H3C4H2CH3C4HC6HCH2C2H2C3SCHCH3CSH3CHC12H3SH7C2HFeCH3CSH3CH2C3H2CHC3H2C2HCH2C3H3CHC3H3C2SFeS2FeS3HC3HC2H3CHFeC5H3SH2CHSC3H2C3H2C7PC3H3SC2H2C3H2C2H5CH2PH3CH2CH2CHC2H2CH3FeCHC3H2C4HC3PHCHCSCHCHC4H2CS2HC2FeCHC2SC9HCPCHCHCHCH2C2FeH5C2SCFeC3H3C2H4CH2CHCH2C5HCHCHC3HC6HC3HCHCH4CH2C3HCSCHCHCSHFeC3HFeS2FeS2FeSFeHS2CHCFeS2C3SC2HCHCHSC2HCH2CH2C5H3C6H4C2HCHC3H2SH2CHSC6HSC2H3CHCHCH5C3HFeC3HCPC6PC3HCHCH2C4H6CH3CSH3CHCH3FeHCHC3HC4HSHCHC2SC6PC3HC5HC4HSHCH7C2H3C2H2CHC2PSH3C4FeH5C2H3C2H3CHCH4C4H5C2H2CHC2SH2CHCH2C2H4CH2FeCHC3SHSHC2HPCSCHSH2FeHCHC2HCH3CHC5HC2FeHC3H2C3H2CHCHCHC3HCHC2HSC4FeC3SC5H3CH4C4SC3PC9H2C8HC2H7C4HCH3C2SH2C5HCH3C5H2C2HSCHC3H2SHC2HCFeSHFeSFeSFeS3HCFeC2SHFeSHC2HCSH2C3H2C6H4PCHC4H3CHC2HC2HCH3CH3CH3CHSCFeC3H2CH2S2H2CH2CH2CHCHC5HCHCHFeHC3HSCPC2PHC4H3C6HCSHCH2C2H4C6HC2HCHCHC3H8SCH2C4HC3HC2H4C3HC5H3CFeC3HC2SCHCH3CH2CHC4HSH2C5HSC4SFeS2FeCSHC2FeSHFeS2FeSFeS3FeSCHCH2C6H4C6H8CH5C2HC3H3C2H3CHC4PC10H9CS2HC2HCPC2HC2HSC2HCHC2HPH2CHSC2HC4H2SH2C2HC3SCHC2HSHCHCHC2HC3HC5HC3H4FeHCHC2SC3H3CH2CH2CHC7H2C5HFe2HCHCH6C3H2CHCHCHCH6CSC6FeH2C3HCHSHC2HSHFeCSCHCH5C2H2C2HC2HCHSH2CHCH2C4H3CH5CPC5H2CH2C2H2CHC3HC3HCH2C6H6SFeC2H2CHSHC2HC2HFeHFeH3CHC2H2C3HC3SHCHCH2CH2CHC3HSHC2HCH2PHCHCHCH3CHCPC2HCHFeC4H3SHC2H2SC2HSFeS2FeSFeS2CHCFeSH2CHPHFeCSC2SH2CH2C7H4C5H4SPCHFeC4H3CHCHFeC2H4SCH3CSHC7H3CH3CHC5HCH2CHCHSH2CPSHC2HC2H10C3FeC2H4C2HC3H3C11HC2SCHC3H5C3H2CH2CH2C3HS2CH2CHFeC2SC4PHCHFeC2H2C4FeC4PH2CHC4HPC7SHC3HCH2C3HC3PHC6H3CH2C2H2CHCH
_chemical_formula_sum              "C1440 H1152 Fe96 S192 P48"
_cell_length_a       45.9655
_cell_length_b       46.3202
_cell_length_c       60.0303
_cell_angle_alpha    88.1752
_cell_angle_beta     88.4555
_cell_angle_gamma    84.3995

_space_group_name_H-M_alt    "P 1"
_space_group_IT_number       1

loop_
  _space_group_symop_operation_xyz
  'x, y, z'

loop_
  _atom_site_type_symbol
  _atom_site_label
  _atom_site_symmetry_multiplicity
  _atom_site_fract_x
  _atom_site_fract_y
  _atom_site_fract_z
  _atom_site_occupancy
  C   C1        1.0  0.29898  0.01733  0.27813  1.0000
  H   H1        1.0  0.46675  0.10253  0.23966  1.0000
  C   C2        1.0  0.39677  0.09987  0.13170  1.0000
  Fe  Fe1       1.0  0.30737  0.00343  0.14069  1.0000
  S   S1        1.0  0.26216  0.02690  0.14369  1.0000
  S   S2        1.0  0.34150  0.02188  0.11823  1.0000
  Fe  Fe2       1.0  0.26844  0.01922  0.18058  1.0000
  S   S3        1.0  0.25343  0.05370  0.20542  1.0000
  C   C3        1.0  0.07717  0.98194  0.05894  1.0000
  H   H2        1.0  0.37886  0.98231  0.16188  1.0000
  C   C4        1.0  0.35122  0.01040  0.27066  1.0000
  H   H3        1.0  0.31428  0.98557  0.22813  1.0000
  H   H4        1.0  0.00051  0.45362  0.25569  1.0000
  Fe  Fe3       1.0  0.42732  0.08473  0.28688  1.0000
  S   S4        1.0  0.38238  0.07111  0.28312  1.0000
  Fe  Fe4       1.0  0.36821  0.11842  0.28001  1.0000
  S   S5        1.0  0.33416  0.13476  0.25484  1.0000
  S   S6        1.0  0.41395  0.13221  0.28115  1.0000
  C   C5        1.0  0.23753  0.98314  0.00746  1.0000
  C   C6        1.0  0.01561  0.46317  0.24423  1.0000
  H   H5        1.0  0.39629  0.10031  0.09581  1.0000
  C   C7        1.0  0.40915  0.12475  0.19368  1.0000
  H   H6        1.0  0.29651  0.07761  0.28007  1.0000
  H   H7        1.0  0.45621  0.07849  0.16266  1.0000
  C   C8        1.0  0.32767  0.01983  0.28454  1.0000
  S   S7        1.0  0.16161  0.01146  0.03105  1.0000
  C   C9        1.0  0.02450  0.11921  0.10595  1.0000
  H   H8        1.0  0.41644  0.99964  0.29738  1.0000
  C   C10       1.0  0.06302  0.47618  0.10406  1.0000
  H   H9        1.0  0.04089  0.03387  0.99604  1.0000
  C   C11       1.0  0.23105  0.04791  0.26520  1.0000
  C   C12       1.0  0.44325  0.08379  0.14812  1.0000
  S   S8        1.0  0.31442  0.99886  0.17753  1.0000
  C   C13       1.0  0.29419  0.00454  0.25780  1.0000
  C   C14       1.0  0.37574  0.00118  0.11666  1.0000
  C   C15       1.0  0.40107  0.01374  0.12209  1.0000
  C   C16       1.0  0.02784  0.00131  0.05056  1.0000
  H   H10       1.0  0.14123  0.03793  0.12106  1.0000
  C   C17       1.0  0.28793  0.11037  0.30439  1.0000
  C   C18       1.0  0.04557  0.45861  0.24777  1.0000
  H   H11       1.0  0.39929  0.03583  0.12760  1.0000
  C   C19       1.0  0.09828  0.07521  0.99398  1.0000
  H   H12       1.0  0.35259  0.14560  0.18131  1.0000
  H   H13       1.0  0.16437  0.01345  0.29186  1.0000
  C   C20       1.0  0.27758  0.07521  0.21849  1.0000
  C   C21       1.0  0.26623  0.10249  0.22584  1.0000
  C   C22       1.0  0.28393  0.12029  0.23677  1.0000
  C   C23       1.0  0.31302  0.11071  0.24137  1.0000
  C   C24       1.0  0.32448  0.08311  0.23445  1.0000
  C   C25       1.0  0.30694  0.06563  0.22261  1.0000
  H   H14       1.0  0.24364  0.11012  0.22283  1.0000
  H   H15       1.0  0.27488  0.14154  0.24194  1.0000
  H   H16       1.0  0.34691  0.07545  0.23782  1.0000
  H   H17       1.0  0.31608  0.04479  0.21679  1.0000
  H   H18       1.0  0.33186  0.02884  0.30041  1.0000
  C   C26       1.0  0.43911  0.08594  0.10803  1.0000
  C   C27       1.0  0.20637  0.00291  0.08884  1.0000
  C   C28       1.0  0.19610  0.01217  0.06763  1.0000
  H   H19       1.0  0.00608  0.99808  0.04537  1.0000
  C   C29       1.0  0.01397  0.36503  0.25431  1.0000
  C   C30       1.0  0.13624  0.43983  0.15354  1.0000
  H   H20       1.0  0.22279  0.01409  0.09661  1.0000
  H   H21       1.0  0.20473  0.03059  0.05920  1.0000
  H   H22       1.0  0.37372  0.12508  0.21816  1.0000
  C   C31       1.0  0.03025  0.05299  0.98799  1.0000
  H   H23       1.0  0.10192  0.44800  0.11104  1.0000
  H   H24       1.0  0.44776  0.13010  0.17294  1.0000
  C   C32       1.0  0.04707  0.10129  0.09587  1.0000
  C   C33       1.0  0.04521  0.09367  0.07352  1.0000
  C   C34       1.0  0.02011  0.10389  0.06165  1.0000
  P   P1        1.0  0.07444  0.07088  0.06005  1.0000
  C   C35       1.0  0.10812  0.07015  0.07512  1.0000
  C   C36       1.0  0.06411  0.03420  0.05857  1.0000
  C   C37       1.0  0.03533  0.02942  0.05362  1.0000
  H   H25       1.0  0.10783  0.01303  0.06358  1.0000
  C   C38       1.0  0.48530  0.03004  0.23531  1.0000
  C   C39       1.0  0.27206  0.01049  0.05180  1.0000
  H   H26       1.0  0.21237  0.00550  0.30974  1.0000
  C   C40       1.0  0.11163  0.05368  0.09511  1.0000
  C   C41       1.0  0.13825  0.05149  0.10608  1.0000
  C   C42       1.0  0.16143  0.06604  0.09737  1.0000
  C   C43       1.0  0.15806  0.08269  0.07763  1.0000
  C   C44       1.0  0.13154  0.08477  0.06651  1.0000
  C   C45       1.0  0.08060  0.08431  0.03184  1.0000
  C   C46       1.0  0.07116  0.11303  0.02522  1.0000
  H   H27       1.0  0.25911  0.03116  0.02011  1.0000
  H   H28       1.0  0.08833  0.46807  0.23650  1.0000
  C   C47       1.0  0.27544  0.04417  0.08175  1.0000
  C   C48       1.0  0.09508  0.06583  0.01619  1.0000
  H   H29       1.0  0.43362  0.98968  0.22600  1.0000
  H   H30       1.0  0.06599  0.09384  0.10553  1.0000
  H   H31       1.0  0.01801  0.09866  0.04436  1.0000
  H   H32       1.0  0.29865  0.12640  0.29449  1.0000
  C   C49       1.0  0.47445  0.08212  0.23225  1.0000
  C   C50       1.0  0.46212  0.98567  0.29294  1.0000
  H   H33       1.0  0.00939  0.35436  0.16222  1.0000
  C   C51       1.0  0.08511  0.01015  0.06092  1.0000
  H   H34       1.0  0.09403  0.04188  0.10188  1.0000
  H   H35       1.0  0.00552  0.06633  0.01741  1.0000
  H   H36       1.0  0.18223  0.06378  0.10565  1.0000
  H   H37       1.0  0.17626  0.09342  0.07063  1.0000
  H   H38       1.0  0.12967  0.09728  0.05100  1.0000
  H   H39       1.0  0.06114  0.12832  0.03705  1.0000
  C   C52       1.0  0.43478  0.13741  0.18730  1.0000
  H   H40       1.0  0.41886  0.03617  0.16416  1.0000
  H   H41       1.0  0.10375  0.04410  0.02113  1.0000
  C   C53       1.0  0.40748  0.06123  0.19363  1.0000
  C   C54       1.0  0.42722  0.01056  0.19380  1.0000
  C   C55       1.0  0.42558  0.00935  0.21703  1.0000
  C   C56       1.0  0.41442  0.03378  0.22865  1.0000
  C   C57       1.0  0.40568  0.05970  0.21705  1.0000
  C   C58       1.0  0.35799  0.09924  0.17582  1.0000
  C   C59       1.0  0.34192  0.12651  0.17783  1.0000
  C   C60       1.0  0.31159  0.12938  0.17543  1.0000
  C   C61       1.0  0.29728  0.10533  0.17021  1.0000
  C   C62       1.0  0.31331  0.07849  0.16734  1.0000
  C   C63       1.0  0.34350  0.07531  0.17024  1.0000
  C   C64       1.0  0.23464  0.03037  0.28457  1.0000
  H   H42       1.0  0.41399  0.03305  0.24671  1.0000
  H   H43       1.0  0.39819  0.07850  0.22653  1.0000
  H   H44       1.0  0.29915  0.15017  0.17784  1.0000
  H   H45       1.0  0.27371  0.10728  0.16876  1.0000
  H   H46       1.0  0.30224  0.05997  0.16331  1.0000
  H   H47       1.0  0.35548  0.05424  0.16794  1.0000
  H   H48       1.0  0.39003  0.16457  0.23956  1.0000
  C   C65       1.0  0.44433  0.15952  0.19979  1.0000
  C   C66       1.0  0.43249  0.98548  0.28839  1.0000
  C   C67       1.0  0.17977  0.04013  0.26484  1.0000
  H   H49       1.0  0.43590  0.99159  0.18480  1.0000
  C   C68       1.0  0.42827  0.16935  0.21863  1.0000
  H   H50       1.0  0.25245  0.08040  0.03434  1.0000
  C   C69       1.0  0.01030  0.07155  0.00019  1.0000
  H   H51       1.0  0.37371  0.10709  0.13311  1.0000
  C   C70       1.0  0.41357  0.09345  0.15076  1.0000
  H   H52       1.0  0.44803  0.00749  0.12519  1.0000
  C   C71       1.0  0.21038  0.01819  0.29431  1.0000
  C   C72       1.0  0.27291  0.06166  0.30895  1.0000
  C   C73       1.0  0.47516  0.05632  0.24508  1.0000
  P   P2        1.0  0.01555  0.41653  0.15315  1.0000
  C   C74       1.0  0.03457  0.44029  0.13449  1.0000
  C   C75       1.0  0.03931  0.40077  0.17477  1.0000
  C   C76       1.0  0.06102  0.37820  0.16988  1.0000
  C   C77       1.0  0.07850  0.36498  0.18678  1.0000
  C   C78       1.0  0.07454  0.37430  0.20865  1.0000
  C   C79       1.0  0.05315  0.39684  0.21361  1.0000
  C   C80       1.0  0.03550  0.40997  0.19681  1.0000
  C   C81       1.0  0.06469  0.43482  0.12998  1.0000
  H   H53       1.0  0.46845  0.00061  0.30500  1.0000
  C   C82       1.0  0.99779  0.12199  0.07167  1.0000
  H   H54       1.0  0.38172  0.98452  0.05757  1.0000
  C   C83       1.0  0.25967  0.06238  0.04544  1.0000
  C   C84       1.0  0.00309  0.35977  0.14525  1.0000
  H   H55       1.0  0.00362  0.47680  0.16740  1.0000
  C   C85       1.0  0.18306  0.02290  0.28434  1.0000
  C   C86       1.0  0.00356  0.38822  0.13647  1.0000
  C   C87       1.0  0.99333  0.33809  0.13244  1.0000
  C   C88       1.0  0.40265  0.15705  0.22498  1.0000
  H   H56       1.0  0.01872  0.04733  0.05155  1.0000
  C   C89       1.0  0.40954  0.09607  0.11042  1.0000
  S   S9        1.0  0.08625  0.99078  0.00485  1.0000
  H   H57       1.0  0.47883  0.07160  0.12528  1.0000
  C   C90       1.0  0.26580  0.06738  0.06756  1.0000
  H   H58       1.0  0.06379  0.37020  0.15312  1.0000
  H   H59       1.0  0.09459  0.34702  0.18301  1.0000
  H   H60       1.0  0.08748  0.36362  0.22189  1.0000
  H   H61       1.0  0.04944  0.40337  0.23069  1.0000
  H   H62       1.0  0.01838  0.42662  0.20130  1.0000
  H   H63       1.0  0.07729  0.41663  0.13788  1.0000
  C   C91       1.0  0.07403  0.12222  0.00292  1.0000
  C   C92       1.0  0.26317  0.03415  0.03748  1.0000
  C   C93       1.0  0.34641  0.99828  0.25032  1.0000
  C   C94       1.0  0.48509  0.08160  0.21003  1.0000
  H   H64       1.0  0.26348  0.08926  0.07366  1.0000
  C   C95       1.0  0.41767  0.03612  0.18213  1.0000
  C   C96       1.0  0.39336  0.13466  0.21274  1.0000
  P   P3        1.0  0.26955  0.02650  0.29778  1.0000
  H   H65       1.0  0.28620  0.99844  0.08535  1.0000
  H   H66       1.0  0.43573  0.18632  0.22842  1.0000
  S   S10       1.0  0.05545  0.46784  0.30679  1.0000
  H   H67       1.0  0.06545  0.14393  0.99771  1.0000
  H   H68       1.0  0.99202  0.31645  0.13960  1.0000
  C   C97       1.0  0.45600  0.07991  0.12691  1.0000
  C   C98       1.0  0.17454  0.99803  0.05736  1.0000
  H   H69       1.0  0.28110  0.04809  0.09872  1.0000
  P   P4        1.0  0.39716  0.09505  0.17851  1.0000
  H   H70       1.0  0.20506  0.98793  0.98204  1.0000
  C   C99       1.0  0.06516  0.47142  0.23328  1.0000
  C   C100      1.0  0.42865  0.99775  0.12062  1.0000
  C   C101      1.0  0.20379  0.05267  0.25531  1.0000
  H   H71       1.0  0.05352  0.44508  0.26180  1.0000
  C   C102      1.0  0.12039  0.43002  0.17198  1.0000
  H   H72       1.0  0.37328  0.98692  0.20253  1.0000
  H   H73       1.0  0.12190  0.40710  0.17647  1.0000
  H   H74       1.0  0.20149  0.06606  0.24017  1.0000
  H   H75       1.0  0.24939  0.05807  0.25780  1.0000
  H   H76       1.0  0.27237  0.00160  0.25265  1.0000
  H   H77       1.0  0.09088  0.44162  0.19906  1.0000
  C   C103      1.0  0.07880  0.45264  0.11476  1.0000
  H   H78       1.0  0.10858  0.06054  0.98179  1.0000
  H   H79       1.0  0.36486  0.99122  0.23972  1.0000
  C   C104      1.0  0.99614  0.09662  0.99020  1.0000
  H   H80       1.0  0.44884  0.08236  0.09159  1.0000
  C   C105      1.0  0.10273  0.44978  0.18480  1.0000
  C   C106      1.0  0.31794  0.99519  0.24389  1.0000
  H   H81       1.0  0.01615  0.33502  0.22765  1.0000
  C   C107      1.0  0.99993  0.12966  0.09383  1.0000
  H   H82       1.0  0.33083  0.00337  0.05100  1.0000
  H   H83       1.0  0.37323  0.01238  0.27580  1.0000
  C   C108      1.0  0.28677  0.08257  0.29629  1.0000
  H   H84       1.0  0.02618  0.12529  0.12312  1.0000
  H   H85       1.0  0.19492  0.01286  0.22091  1.0000
  S   S11       1.0  0.46637  0.05631  0.27386  1.0000
  H   H86       1.0  0.15863  0.04389  0.25714  1.0000
  C   C109      1.0  0.27833  0.01586  0.07401  1.0000
  C   C110      1.0  0.13421  0.46942  0.14776  1.0000
  S   S12       1.0  0.01520  0.40279  0.28766  1.0000
  H   H87       1.0  0.48565  0.10164  0.20041  1.0000
  H   H88       1.0  0.03333  0.35445  0.26206  1.0000
  H   H89       1.0  0.46439  0.16880  0.19500  1.0000
  C   C111      1.0  0.08730  0.10320  0.98725  1.0000
  Fe  Fe5       1.0  0.24643  0.98255  0.14362  1.0000
  C   C112      1.0  0.00417  0.35394  0.23479  1.0000
  H   H90       1.0  0.15007  0.42449  0.14372  1.0000
  Fe  Fe6       1.0  0.01371  0.44638  0.30423  1.0000
  C   C113      1.0  0.33702  0.98041  0.04921  1.0000
  C   C114      1.0  0.01892  0.46372  0.12334  1.0000
  H   H91       1.0  0.22255  0.99265  0.02007  1.0000
  Fe  Fe7       1.0  0.13529  0.98862  0.00642  1.0000
  H   H92       1.0  0.48557  0.00998  0.24502  1.0000
  C   C115      1.0  0.99969  0.39008  0.26347  1.0000
  C   C116      1.0  0.19613  0.98937  0.22145  1.0000
  H   H93       1.0  0.14647  0.47706  0.13345  1.0000
  H   H94       1.0  0.22306  0.98467  0.25033  1.0000
  H   H95       1.0  0.99564  0.46806  0.12605  1.0000
  H   H96       1.0  0.17133  0.98734  0.19171  1.0000
  C   C117      1.0  0.19475  0.97970  0.10020  1.0000
  C   C118      1.0  0.22752  0.98055  0.98591  1.0000
  C   C119      1.0  0.99351  0.39466  0.11480  1.0000
  H   H97       1.0  0.99279  0.41649  0.10780  1.0000
  S   S13       1.0  0.39400  0.08382  0.63086  1.0000
  Fe  Fe8       1.0  0.43886  0.06131  0.62634  1.0000
  S   S14       1.0  0.45091  0.03673  0.59509  1.0000
  C   C120      1.0  0.45778  0.99883  0.59809  1.0000
  P   P5        1.0  0.48724  0.28852  0.57417  1.0000
  H   H98       1.0  0.44077  0.17298  0.43720  1.0000
  Fe  Fe9       1.0  0.23394  0.45265  0.46902  1.0000
  C   C121      1.0  0.12677  0.40780  0.51432  1.0000
  H   H99       1.0  0.35392  0.39838  0.45469  1.0000
  C   C122      1.0  0.20185  0.36157  0.49511  1.0000
  S   S15       1.0  0.25106  0.40781  0.45726  1.0000
  Fe  Fe10      1.0  0.42535  0.24220  0.50557  1.0000
  S   S16       1.0  0.44848  0.23755  0.47216  1.0000
  S   S17       1.0  0.44118  0.20552  0.52970  1.0000
  Fe  Fe11      1.0  0.38912  0.29810  0.48980  1.0000
  S   S18       1.0  0.40943  0.29703  0.45524  1.0000
  S   S19       1.0  0.35941  0.33597  0.50371  1.0000
  Fe  Fe12      1.0  0.40451  0.24881  0.45727  1.0000
  S   S20       1.0  0.38443  0.21962  0.43300  1.0000
  Fe  Fe13      1.0  0.45177  0.28567  0.47317  1.0000
  S   S21       1.0  0.38090  0.25087  0.49083  1.0000
  S   S22       1.0  0.43203  0.28940  0.50748  1.0000
  C   C123      1.0  0.23414  0.36132  0.38136  1.0000
  C   C124      1.0  0.36985  0.98568  0.33545  1.0000
  S   S23       1.0  0.42600  0.16824  0.33842  1.0000
  H   H100      1.0  0.06062  0.46708  0.54752  1.0000
  S   S24       1.0  0.35611  0.04393  0.34087  1.0000
  H   H101      1.0  0.04230  0.42179  0.51304  1.0000
  C   C125      1.0  0.22089  0.42915  0.39775  1.0000
  C   C126      1.0  0.47317  0.39353  0.45284  1.0000
  P   P6        1.0  0.17955  0.38978  0.39212  1.0000
  C   C127      1.0  0.13168  0.37477  0.41812  1.0000
  H   H102      1.0  0.04617  0.43154  0.42738  1.0000
  C   C128      1.0  0.37978  0.01178  0.34174  1.0000
  H   H103      1.0  0.47304  0.13328  0.36334  1.0000
  C   C129      1.0  0.35619  0.42144  0.45284  1.0000
  H   H104      1.0  0.14258  0.46792  0.43189  1.0000
  C   C130      1.0  0.39691  0.20539  0.40688  1.0000
  C   C131      1.0  0.42325  0.21190  0.39658  1.0000
  C   C132      1.0  0.43197  0.20011  0.37576  1.0000
  C   C133      1.0  0.41447  0.18178  0.36497  1.0000
  C   C134      1.0  0.38824  0.17518  0.37534  1.0000
  C   C135      1.0  0.37960  0.18681  0.39619  1.0000
  H   H105      1.0  0.43680  0.22613  0.40459  1.0000
  C   C136      1.0  0.23508  0.32342  0.41858  1.0000
  H   H106      1.0  0.37431  0.16161  0.36708  1.0000
  H   H107      1.0  0.35913  0.18173  0.40393  1.0000
  H   H108      1.0  0.46978  0.33971  0.50006  1.0000
  C   C137      1.0  0.15831  0.38252  0.36827  1.0000
  C   C138      1.0  0.21704  0.39957  0.51780  1.0000
  C   C139      1.0  0.46741  0.37405  0.43663  1.0000
  H   H109      1.0  0.37788  0.98535  0.54083  1.0000
  C   C140      1.0  0.33014  0.35595  0.48978  1.0000
  C   C141      1.0  0.31795  0.34594  0.47072  1.0000
  C   C142      1.0  0.29370  0.36203  0.46091  1.0000
  C   C143      1.0  0.28161  0.38828  0.46997  1.0000
  C   C144      1.0  0.29410  0.39844  0.48884  1.0000
  C   C145      1.0  0.31824  0.38234  0.49865  1.0000
  H   H110      1.0  0.32693  0.32563  0.46374  1.0000
  H   H111      1.0  0.28424  0.35407  0.44627  1.0000
  H   H112      1.0  0.28512  0.41863  0.49593  1.0000
  H   H113      1.0  0.32782  0.39036  0.51319  1.0000
  C   C146      1.0  0.21000  0.36248  0.39628  1.0000
  H   H114      1.0  0.39780  0.23316  0.56158  1.0000
  C   C147      1.0  0.41176  0.17791  0.60045  1.0000
  H   H115      1.0  0.20708  0.31833  0.50961  1.0000
  C   C148      1.0  0.38270  0.43217  0.45752  1.0000
  C   C149      1.0  0.46759  0.10740  0.52315  1.0000
  S   S25       1.0  0.18606  0.46739  0.47542  1.0000
  H   H116      1.0  0.43383  0.37454  0.53863  1.0000
  C   C150      1.0  0.18648  0.38252  0.57989  1.0000
  C   C151      1.0  0.20960  0.34103  0.51198  1.0000
  S   S26       1.0  0.07302  0.45802  0.37238  1.0000
  C   C152      1.0  0.15228  0.35691  0.33418  1.0000
  C   C153      1.0  0.39930  0.20422  0.59078  1.0000
  H   H117      1.0  0.45227  0.20542  0.36786  1.0000
  C   C154      1.0  0.25708  0.42363  0.55519  1.0000
  H   H118      1.0  0.42507  0.27694  0.57307  1.0000
  H   H119      1.0  0.19252  0.34382  0.42683  1.0000
  H   H120      1.0  0.27679  0.13894  0.33151  1.0000
  H   H121      1.0  0.44330  0.14118  0.59580  1.0000
  C   C155      1.0  0.43322  0.16111  0.58841  1.0000
  C   C156      1.0  0.44216  0.17043  0.56701  1.0000
  C   C157      1.0  0.42929  0.19618  0.55708  1.0000
  H   H122      1.0  0.16512  0.44516  0.53669  1.0000
  Fe  Fe14      1.0  0.04355  0.47330  0.34319  1.0000
  H   H123      1.0  0.33057  0.30022  0.58310  1.0000
  C   C158      1.0  0.15609  0.39086  0.41677  1.0000
  C   C159      1.0  0.16260  0.40699  0.43509  1.0000
  C   C160      1.0  0.14434  0.40779  0.45411  1.0000
  C   C161      1.0  0.11976  0.39226  0.45514  1.0000
  H   H124      1.0  0.14916  0.42070  0.46798  1.0000
  H   H125      1.0  0.10559  0.39306  0.46985  1.0000
  C   C162      1.0  0.40226  0.31540  0.55886  1.0000
  C   C163      1.0  0.40458  0.34297  0.54922  1.0000
  H   H126      1.0  0.38134  0.30647  0.55939  1.0000
  H   H127      1.0  0.38539  0.35544  0.54262  1.0000
  C   C164      1.0  0.35715  0.12334  0.58619  1.0000
  C   C165      1.0  0.34741  0.15241  0.58199  1.0000
  C   C166      1.0  0.35560  0.16619  0.56212  1.0000
  C   C167      1.0  0.37382  0.15103  0.54655  1.0000
  C   C168      1.0  0.38381  0.12169  0.55058  1.0000
  C   C169      1.0  0.37546  0.10806  0.57071  1.0000
  P   P7        1.0  0.40792  0.10169  0.53081  1.0000
  C   C170      1.0  0.40239  0.11727  0.50292  1.0000
  C   C171      1.0  0.44531  0.10292  0.53903  1.0000
  C   C172      1.0  0.45268  0.09757  0.56141  1.0000
  C   C173      1.0  0.27333  0.35204  0.58989  1.0000
  Fe  Fe15      1.0  0.37678  0.07761  0.31977  1.0000
  C   C174      1.0  0.11383  0.43512  0.50745  1.0000
  Fe  Fe16      1.0  0.40617  0.13387  0.31852  1.0000
  C   C175      1.0  0.38830  0.10279  0.48669  1.0000
  C   C176      1.0  0.38254  0.11613  0.46577  1.0000
  C   C177      1.0  0.39065  0.14400  0.46095  1.0000
  C   C178      1.0  0.40533  0.15819  0.47675  1.0000
  C   C179      1.0  0.41161  0.14471  0.49745  1.0000
  C   C180      1.0  0.39892  0.06449  0.53272  1.0000
  C   C181      1.0  0.42046  0.04153  0.53728  1.0000
  C   C182      1.0  0.41281  0.01313  0.54019  1.0000
  C   C183      1.0  0.38371  0.00736  0.53842  1.0000
  C   C184      1.0  0.36214  0.03005  0.53392  1.0000
  C   C185      1.0  0.36966  0.05853  0.53123  1.0000
  H   H128      1.0  0.15158  0.40926  0.62668  1.0000
  C   C186      1.0  0.47761  0.08618  0.36531  1.0000
  H   H129      1.0  0.34867  0.18896  0.55910  1.0000
  H   H130      1.0  0.38027  0.16274  0.53173  1.0000
  H   H131      1.0  0.38340  0.08574  0.57468  1.0000
  H   H132      1.0  0.43608  0.09362  0.57395  1.0000
  S   S27       1.0  0.00377  0.44867  0.34105  1.0000
  S   S28       1.0  0.24980  0.47622  0.49772  1.0000
  H   H133      1.0  0.29631  0.02076  0.34192  1.0000
  H   H134      1.0  0.41629  0.03215  0.35367  1.0000
  H   H135      1.0  0.38150  0.08140  0.49007  1.0000
  H   H136      1.0  0.37134  0.10513  0.45339  1.0000
  H   H137      1.0  0.38548  0.15476  0.44501  1.0000
  H   H138      1.0  0.41143  0.17992  0.47310  1.0000
  H   H139      1.0  0.11156  0.36792  0.31735  1.0000
  H   H140      1.0  0.44308  0.04541  0.53926  1.0000
  H   H141      1.0  0.23859  0.41987  0.60212  1.0000
  C   C187      1.0  0.28799  0.00040  0.33820  1.0000
  H   H142      1.0  0.45245  0.02311  0.39083  1.0000
  H   H143      1.0  0.35264  0.07604  0.52830  1.0000
  C   C188      1.0  0.33499  0.47024  0.44418  1.0000
  C   C189      1.0  0.33231  0.44048  0.44624  1.0000
  C   C190      1.0  0.38549  0.46213  0.45572  1.0000
  H   H144      1.0  0.38166  0.01208  0.63116  1.0000
  C   C191      1.0  0.31008  0.32647  0.55655  1.0000
  H   H145      1.0  0.19932  0.42911  0.63066  1.0000
  S   S29       1.0  0.40108  0.16708  0.62785  1.0000
  C   C192      1.0  0.21806  0.41060  0.60036  1.0000
  H   H146      1.0  0.45925  0.15764  0.55803  1.0000
  C   C193      1.0  0.42704  0.98605  0.35002  1.0000
  C   C194      1.0  0.19399  0.42464  0.38848  1.0000
  C   C195      1.0  0.48520  0.06100  0.35311  1.0000
  H   H147      1.0  0.31158  0.43222  0.44298  1.0000
  H   H148      1.0  0.15027  0.40405  0.51536  1.0000
  C   C196      1.0  0.13373  0.44207  0.56407  1.0000
  C   C197      1.0  0.16913  0.40448  0.61449  1.0000
  C   C198      1.0  0.47287  0.98366  0.58086  1.0000
  H   H149      1.0  0.19033  0.35019  0.35416  1.0000
  H   H150      1.0  0.23569  0.30901  0.43317  1.0000
  C   C199      1.0  0.28676  0.42409  0.54912  1.0000
  H   H151      1.0  0.32165  0.45067  0.54077  1.0000
  Fe  Fe17      1.0  0.06305  0.45663  0.62597  1.0000
  H   H152      1.0  0.23430  0.37625  0.36709  1.0000
  H   H153      1.0  0.47877  0.24678  0.54038  1.0000
  C   C200      1.0  0.26958  0.36133  0.56757  1.0000
  H   H154      1.0  0.12129  0.41269  0.37759  1.0000
  C   C201      1.0  0.20537  0.39076  0.49814  1.0000
  C   C202      1.0  0.15289  0.45656  0.54987  1.0000
  H   H155      1.0  0.19353  0.35493  0.47955  1.0000
  C   C203      1.0  0.45778  0.15902  0.42897  1.0000
  H   H156      1.0  0.23307  0.41218  0.40747  1.0000
  H   H157      1.0  0.48384  0.43722  0.52495  1.0000
  H   H158      1.0  0.06546  0.37382  0.52535  1.0000
  C   C204      1.0  0.45449  0.30998  0.56532  1.0000
  C   C205      1.0  0.22117  0.34969  0.53173  1.0000
  C   C206      1.0  0.03745  0.47793  0.42580  1.0000
  C   C207      1.0  0.27544  0.11747  0.32521  1.0000
  H   H159      1.0  0.46409  0.18899  0.62756  1.0000
  H   H160      1.0  0.42863  0.12812  0.42037  1.0000
  C   C208      1.0  0.47010  0.02404  0.40235  1.0000
  C   C209      1.0  0.43186  0.35382  0.54710  1.0000
  C   C210      1.0  0.11365  0.39197  0.34724  1.0000
  C   C211      1.0  0.22529  0.37900  0.53468  1.0000
  C   C212      1.0  0.46884  0.20793  0.61750  1.0000
  C   C213      1.0  0.45675  0.33738  0.55508  1.0000
  S   S30       1.0  0.42285  0.08702  0.32402  1.0000
  H   H161      1.0  0.10664  0.44271  0.41138  1.0000
  C   C214      1.0  0.31365  0.31731  0.57879  1.0000
  H   H162      1.0  0.30062  0.40418  0.54677  1.0000
  H   H163      1.0  0.15725  0.44544  0.37002  1.0000
  H   H164      1.0  0.44908  0.98630  0.35565  1.0000
  H   H165      1.0  0.18201  0.37004  0.56569  1.0000
  H   H166      1.0  0.22721  0.33346  0.54460  1.0000
  C   C215      1.0  0.21331  0.39437  0.58163  1.0000
  H   H167      1.0  0.33422  0.16447  0.59444  1.0000
  C   C216      1.0  0.05368  0.47620  0.47065  1.0000
  H   H168      1.0  0.46321  0.43172  0.39478  1.0000
  C   C217      1.0  0.25851  0.34136  0.38505  1.0000
  C   C218      1.0  0.45594  0.45354  0.49820  1.0000
  H   H169      1.0  0.28564  0.35502  0.53357  1.0000
  H   H170      1.0  0.44798  0.28016  0.61236  1.0000
  P   P8        1.0  0.46399  0.08390  0.39387  1.0000
  H   H171      1.0  0.46278  0.11084  0.50569  1.0000
  H   H172      1.0  0.25128  0.10251  0.35382  1.0000
  H   H173      1.0  0.25297  0.45918  0.40214  1.0000
  C   C219      1.0  0.11348  0.37568  0.43718  1.0000
  C   C220      1.0  0.42715  0.29879  0.56670  1.0000
  C   C221      1.0  0.11145  0.46422  0.40591  1.0000
  C   C222      1.0  0.48023  0.05079  0.40721  1.0000
  H   H174      1.0  0.33020  0.03236  0.63587  1.0000
  C   C223      1.0  0.48170  0.09712  0.56791  1.0000
  C   C224      1.0  0.29890  0.45050  0.54588  1.0000
  H   H175      1.0  0.29801  0.32285  0.61268  1.0000
  C   C225      1.0  0.42473  0.08327  0.39430  1.0000
  C   C226      1.0  0.41067  0.06674  0.41061  1.0000
  C   C227      1.0  0.38048  0.06507  0.41000  1.0000
  C   C228      1.0  0.36408  0.08039  0.39345  1.0000
  C   C229      1.0  0.37771  0.09803  0.37794  1.0000
  C   C230      1.0  0.40786  0.09977  0.37852  1.0000
  H   H176      1.0  0.09220  0.40372  0.34525  1.0000
  C   C231      1.0  0.45395  0.23497  0.62187  1.0000
  C   C232      1.0  0.16910  0.36216  0.35247  1.0000
  H   H177      1.0  0.35102  0.11291  0.60177  1.0000
  C   C233      1.0  0.44798  0.98353  0.61689  1.0000
  H   H178      1.0  0.21992  0.42230  0.51957  1.0000
  C   C234      1.0  0.33540  0.00903  0.63565  1.0000
  C   C235      1.0  0.05357  0.45039  0.45898  1.0000
  C   C236      1.0  0.46664  0.44482  0.40893  1.0000
  H   H179      1.0  0.42945  0.99570  0.54431  1.0000
  C   C237      1.0  0.04556  0.45133  0.43661  1.0000
  H   H180      1.0  0.42306  0.15608  0.50947  1.0000
  C   C238      1.0  0.12460  0.37187  0.33153  1.0000
  H   H181      1.0  0.42294  0.05486  0.42365  1.0000
  H   H182      1.0  0.36983  0.05152  0.42209  1.0000
  H   H183      1.0  0.34085  0.07847  0.39242  1.0000
  H   H184      1.0  0.36494  0.10993  0.36516  1.0000
  H   H185      1.0  0.41798  0.11385  0.36652  1.0000
  C   C239      1.0  0.08329  0.44043  0.50689  1.0000
  C   C240      1.0  0.25903  0.32249  0.40369  1.0000
  H   H186      1.0  0.27810  0.30729  0.40671  1.0000
  C   C241      1.0  0.21059  0.34326  0.41489  1.0000
  C   C242      1.0  0.40781  0.21322  0.56905  1.0000
  H   H187      1.0  0.18161  0.41914  0.43466  1.0000
  C   C243      1.0  0.23219  0.45599  0.39499  1.0000
  H   H188      1.0  0.09444  0.36359  0.43794  1.0000
  H   H189      1.0  0.38283  0.21746  0.60006  1.0000
  H   H190      1.0  0.38140  0.46144  0.50165  1.0000
  C   C244      1.0  0.48620  0.16723  0.42731  1.0000
  S   S31       1.0  0.09590  0.43656  0.60004  1.0000
  C   C245      1.0  0.17834  0.44774  0.37690  1.0000
  C   C246      1.0  0.28160  0.47666  0.54897  1.0000
  H   H191      1.0  0.40081  0.41713  0.46300  1.0000
  S   S32       1.0  0.46167  0.10011  0.63472  1.0000
  C   C247      1.0  0.47276  0.11589  0.40786  1.0000
  S   S33       1.0  0.01573  0.45138  0.62037  1.0000
  C   C248      1.0  0.11836  0.45637  0.58178  1.0000
  H   H192      1.0  0.12658  0.36157  0.40445  1.0000
  H   H193      1.0  0.13097  0.41953  0.56150  1.0000
  S   S34       1.0  0.35916  0.12447  0.31678  1.0000
  H   H194      1.0  0.27720  0.34076  0.37362  1.0000
  H   H195      1.0  0.33951  0.02566  0.53286  1.0000
  H   H196      1.0  0.19972  0.40648  0.48490  1.0000
  C   C249      1.0  0.28810  0.34830  0.55094  1.0000
  C   C250      1.0  0.13033  0.39715  0.36555  1.0000
  H   H197      1.0  0.48057  0.99540  0.56636  1.0000
  C   C251      1.0  0.16454  0.38758  0.59630  1.0000
  C   C252      1.0  0.27322  0.99730  0.31837  1.0000
  H   H198      1.0  0.32428  0.31666  0.54354  1.0000
  H   H199      1.0  0.12770  0.45215  0.50310  1.0000
  H   H200      1.0  0.14342  0.37940  0.59459  1.0000
  C   C253      1.0  0.45101  0.13349  0.41931  1.0000
  H   H201      1.0  0.42361  0.44130  0.42271  1.0000
  H   H202      1.0  0.45660  0.40012  0.46531  1.0000
  C   C254      1.0  0.26117  0.09691  0.33776  1.0000
  H   H203      1.0  0.43620  0.99505  0.63022  1.0000
  C   C255      1.0  0.07898  0.39079  0.52005  1.0000
  H   H204      1.0  0.25933  0.36155  0.60304  1.0000
  H   H205      1.0  0.06010  0.42958  0.46686  1.0000
  C   C256      1.0  0.44424  0.45011  0.42498  1.0000
  H   H206      1.0  0.11952  0.36479  0.52649  1.0000
  P   P9        1.0  0.24133  0.38958  0.55995  1.0000
  C   C257      1.0  0.40853  0.01201  0.34882  1.0000
  H   H207      1.0  0.21659  0.45049  0.56198  1.0000
  C   C258      1.0  0.06595  0.41803  0.51314  1.0000
  C   C259      1.0  0.10941  0.38569  0.52070  1.0000
  H   H208      1.0  0.47789  0.34570  0.55279  1.0000
  P   P10       1.0  0.06601  0.47583  0.49906  1.0000
  C   C260      1.0  0.40391  0.45630  0.50648  1.0000
  C   C261      1.0  0.36451  0.99761  0.63305  1.0000
  C   C262      1.0  0.29529  0.33007  0.59544  1.0000
  C   C263      1.0  0.40953  0.44513  0.52802  1.0000
  C   C264      1.0  0.23973  0.45006  0.55783  1.0000
  C   C265      1.0  0.45947  0.25930  0.60860  1.0000
  H   H209      1.0  0.47432  0.34220  0.59931  1.0000
  H   H210      1.0  0.43787  0.23682  0.63542  1.0000
  H   H211      1.0  0.24795  0.05366  0.33921  1.0000
  H   H212      1.0  0.30651  0.97888  0.36758  1.0000
  C   C266      1.0  0.47990  0.11343  0.35478  1.0000
  C   C267      1.0  0.19596  0.41580  0.61662  1.0000
  C   C268      1.0  0.31341  0.99047  0.63941  1.0000
  C   C269      1.0  0.42709  0.46072  0.49134  1.0000
  H   H213      1.0  0.34795  0.98541  0.32946  1.0000
  H   H214      1.0  0.48854  0.38064  0.51921  1.0000
  C   C270      1.0  0.48246  0.99828  0.41244  1.0000
  C   C271      1.0  0.25207  0.47640  0.55501  1.0000
  H   H215      1.0  0.48261  0.03974  0.36024  1.0000
  C   C272      1.0  0.47941  0.25659  0.59046  1.0000
  H   H216      1.0  0.16069  0.34123  0.32202  1.0000
  H   H217      1.0  0.44626  0.36559  0.43645  1.0000
  C   C273      1.0  0.25956  0.06919  0.32954  1.0000
  C   C274      1.0  0.18942  0.47476  0.37464  1.0000
  H   H218      1.0  0.39154  0.44151  0.53947  1.0000
  C   C275      1.0  0.43833  0.43842  0.53472  1.0000
  C   C276      1.0  0.09741  0.47757  0.38714  1.0000
  C   C277      1.0  0.03983  0.47707  0.54151  1.0000
  Fe  Fe18      1.0  0.41663  0.12173  0.64151  1.0000
  H   H219      1.0  0.48419  0.34918  0.40903  1.0000
  H   H220      1.0  0.29113  0.99978  0.64218  1.0000
  H   H221      1.0  0.24110  0.98302  0.58148  1.0000
  C   C278      1.0  0.44865  0.46663  0.44361  1.0000
  C   C279      1.0  0.46147  0.44261  0.51981  1.0000
  H   H222      1.0  0.44280  0.42973  0.55139  1.0000
  P   P11       1.0  0.41921  0.47569  0.46363  1.0000
  H   H223      1.0  0.47439  0.45620  0.48714  1.0000
  H   H224      1.0  0.48702  0.09275  0.58525  1.0000
  C   C280      1.0  0.47559  0.47826  0.44558  1.0000
  C   C281      1.0  0.21313  0.02175  0.78905  1.0000
  H   H225      1.0  0.47501  0.11942  0.80572  1.0000
  S   S35       1.0  0.36064  0.04236  0.68012  1.0000
  C   C282      1.0  0.08817  0.44697  0.77478  1.0000
  H   H226      1.0  0.17149  0.00107  0.87348  1.0000
  H   H227      1.0  0.13740  0.25992  0.87556  1.0000
  C   C283      1.0  0.99237  0.18094  0.87202  1.0000
  Fe  Fe19      1.0  0.39709  0.06788  0.66653  1.0000
  S   S36       1.0  0.32192  0.03265  0.78199  1.0000
  C   C284      1.0  0.09705  0.00455  0.72830  1.0000
  Fe  Fe20      1.0  0.01100  0.44358  0.65745  1.0000
  C   C285      1.0  0.09694  0.28762  0.87436  1.0000
  C   C286      1.0  0.43026  0.00112  0.80675  1.0000
  C   C287      1.0  0.06653  0.28882  0.87295  1.0000
  C   C288      1.0  0.15523  0.98763  0.80385  1.0000
  H   H228      1.0  0.00895  0.21009  0.84742  1.0000
  C   C289      1.0  0.00147  0.10266  0.96755  1.0000
  P   P12       1.0  0.01350  0.26500  0.86934  1.0000
  Fe  Fe21      1.0  0.45956  0.08281  0.67023  1.0000
  Fe  Fe22      1.0  0.30929  0.99044  0.79767  1.0000
  S   S37       1.0  0.44047  0.04233  0.66086  1.0000
  C   C290      1.0  0.13123  0.01894  0.83198  1.0000
  H   H229      1.0  0.02588  0.08893  0.93781  1.0000
  H   H230      1.0  0.02829  0.40030  0.78560  1.0000
  H   H231      1.0  0.33607  0.04624  0.89549  1.0000
  Fe  Fe23      1.0  0.09162  0.00257  0.96869  1.0000
  C   C291      1.0  0.02149  0.08398  0.95524  1.0000
  C   C292      1.0  0.23747  0.02627  0.74600  1.0000
  C   C293      1.0  0.35345  0.05313  0.83209  1.0000
  C   C294      1.0  0.37002  0.04606  0.86997  1.0000
  S   S38       1.0  0.41603  0.10773  0.67812  1.0000
  S   S39       1.0  0.06205  0.03666  0.94997  1.0000
  S   S40       1.0  0.05918  0.44420  0.66269  1.0000
  H   H232      1.0  0.02173  0.38807  0.74417  1.0000
  H   H233      1.0  0.40496  0.99144  0.86214  1.0000
  H   H234      1.0  0.45848  0.07056  0.80877  1.0000
  C   C295      1.0  0.47697  0.07130  0.73237  1.0000
  H   H235      1.0  0.05993  0.21625  0.87045  1.0000
  H   H236      1.0  0.10743  0.30749  0.87536  1.0000
  H   H237      1.0  0.45947  0.06751  0.76592  1.0000
  H   H238      1.0  0.15182  0.03459  0.80208  1.0000
  C   C296      1.0  0.46551  0.02875  0.85983  1.0000
  C   C297      1.0  0.45768  0.00324  0.70822  1.0000
  H   H239      1.0  0.47446  0.04718  0.85164  1.0000
  C   C298      1.0  0.00099  0.23083  0.87916  1.0000
  C   C299      1.0  0.03630  0.05930  0.96552  1.0000
  H   H240      1.0  0.20508  0.01935  0.80602  1.0000
  C   C300      1.0  0.01910  0.37287  0.81373  1.0000
  H   H241      1.0  0.28117  0.98058  0.72096  1.0000
  C   C301      1.0  0.45796  0.11496  0.81782  1.0000
  C   C302      1.0  0.99570  0.32129  0.92043  1.0000
  H   H242      1.0  0.08887  0.10998  0.96986  1.0000
  C   C303      1.0  0.33433  0.03421  0.75398  1.0000
  C   C304      1.0  0.34664  0.05913  0.74577  1.0000
  C   C305      1.0  0.35613  0.06136  0.72335  1.0000
  C   C306      1.0  0.35228  0.03911  0.70885  1.0000
  C   C307      1.0  0.33969  0.01434  0.71701  1.0000
  C   C308      1.0  0.33118  0.01165  0.73961  1.0000
  H   H243      1.0  0.34898  0.07672  0.75681  1.0000
  H   H244      1.0  0.36552  0.08066  0.71713  1.0000
  H   H245      1.0  0.33652  0.99726  0.70574  1.0000
  H   H246      1.0  0.04227  0.29317  0.83082  1.0000
  H   H247      1.0  0.10596  0.44918  0.74118  1.0000
  C   C309      1.0  0.44849  0.08720  0.81952  1.0000
  C   C310      1.0  0.00316  0.38707  0.73365  1.0000
  H   H248      1.0  0.05377  0.30977  0.87272  1.0000
  C   C311      1.0  0.24842  0.04109  0.76334  1.0000
  C   C312      1.0  0.99145  0.22673  0.90136  1.0000
  C   C313      1.0  0.44538  0.13679  0.83158  1.0000
  C   C314      1.0  0.47775  0.06146  0.75482  1.0000
  C   C315      1.0  0.10031  0.23524  0.87303  1.0000
  H   H249      1.0  0.45797  0.08449  0.72623  1.0000
  C   C316      1.0  0.42473  0.00647  0.76683  1.0000
  C   C317      1.0  0.37648  0.04788  0.84697  1.0000
  C   C318      1.0  0.05273  0.26315  0.87175  1.0000
  C   C319      1.0  0.06989  0.23635  0.87159  1.0000
  C   C320      1.0  0.34096  0.04848  0.87780  1.0000
  C   C321      1.0  0.14387  0.99160  0.75718  1.0000
  C   C322      1.0  0.20170  0.00708  0.77165  1.0000
  H   H250      1.0  0.41358  0.14772  0.85774  1.0000
  H   H251      1.0  0.26685  0.05376  0.76027  1.0000
  C   C323      1.0  0.00272  0.42437  0.81100  1.0000
  H   H252      1.0  0.24571  0.04931  0.79844  1.0000
  H   H253      1.0  0.45266  0.15834  0.83016  1.0000
  C   C324      1.0  0.00473  0.37071  0.83440  1.0000
  C   C325      1.0  0.11383  0.26084  0.87445  1.0000
  C   C326      1.0  0.23633  0.03876  0.78485  1.0000
  C   C327      1.0  0.00368  0.27187  0.84053  1.0000
  C   C328      1.0  0.41751  0.02963  0.80948  1.0000
  H   H254      1.0  0.02203  0.41069  0.70604  1.0000
  C   C329      1.0  0.48611  0.99387  0.70106  1.0000
  H   H255      1.0  0.24740  0.02767  0.72948  1.0000
  H   H256      1.0  0.03250  0.98382  0.97003  1.0000
  S   S41       1.0  0.21639  0.97906  0.84251  1.0000
  C   C330      1.0  0.08639  0.45139  0.75170  1.0000
  H   H257      1.0  0.11340  0.21447  0.87305  1.0000
  C   C331      1.0  0.01309  0.29276  0.80365  1.0000
  C   C332      1.0  0.42338  0.13079  0.84710  1.0000
  C   C333      1.0  0.21434  0.00916  0.75014  1.0000
  H   H258      1.0  0.00299  0.32347  0.93725  1.0000
  H   H259      1.0  0.42771  0.99755  0.75043  1.0000
  H   H260      1.0  0.11518  0.04522  0.72162  1.0000
  H   H261      1.0  0.02666  0.30438  0.79215  1.0000
  C   C334      1.0  0.06277  0.44982  0.78822  1.0000
  H   H262      1.0  0.35762  0.05483  0.81434  1.0000
  H   H263      1.0  0.99239  0.16330  0.86060  1.0000
  C   C335      1.0  0.43687  0.02247  0.85577  1.0000
  S   S42       1.0  0.29833  0.99084  0.83437  1.0000
  H   H264      1.0  0.12540  0.04047  0.83824  1.0000
  H   H265      1.0  0.39679  0.09876  0.86090  1.0000
  H   H266      1.0  0.03032  0.35378  0.80632  1.0000
  H   H267      1.0  0.07893  0.00960  0.71720  1.0000
  C   C336      1.0  0.14656  0.01550  0.81164  1.0000
  H   H268      1.0  0.10920  0.44108  0.78221  1.0000
  C   C337      1.0  0.12359  0.99464  0.84433  1.0000
  H   H269      1.0  0.40530  0.04784  0.75475  1.0000
  H   H270      1.0  0.32169  0.99243  0.74582  1.0000
  C   C338      1.0  0.99761  0.29457  0.88610  1.0000
  H   H271      1.0  0.45409  0.02067  0.71987  1.0000
  C   C339      1.0  0.01787  0.39946  0.80196  1.0000
  S   S43       1.0  0.14021  0.00428  0.97069  1.0000
  H   H272      1.0  0.20658  0.99724  0.73664  1.0000
  C   C340      1.0  0.43383  0.98966  0.78551  1.0000
  H   H273      1.0  0.00591  0.98797  0.93464  1.0000
  H   H274      1.0  0.11201  0.99733  0.86019  1.0000
  C   C341      1.0  0.42630  0.08100  0.83494  1.0000
  C   C342      1.0  0.42656  0.99742  0.86571  1.0000
  C   C343      1.0  0.41189  0.03474  0.76933  1.0000
  H   H275      1.0  0.41174  0.99981  0.70401  1.0000
  H   H276      1.0  0.15593  0.03438  0.74734  1.0000
  C   C344      1.0  0.03543  0.45774  0.77872  1.0000
  C   C345      1.0  0.11751  0.02459  0.73076  1.0000
  H   H277      1.0  0.30688  0.05930  0.82820  1.0000
  H   H278      1.0  0.02418  0.28249  0.91479  1.0000
  C   C346      1.0  0.40825  0.04634  0.79056  1.0000
  C   C347      1.0  0.48323  0.01066  0.87410  1.0000
  H   H279      1.0  0.39862  0.06848  0.79213  1.0000
  H   H280      1.0  0.00506  0.34992  0.84319  1.0000
  C   C348      1.0  0.41388  0.10298  0.84882  1.0000
  C   C349      1.0  0.02175  0.28638  0.82559  1.0000
  H   H281      1.0  0.38736  0.04261  0.88189  1.0000
  P   P13       1.0  0.00248  0.45894  0.79602  1.0000
  C   C350      1.0  0.43386  0.99136  0.69941  1.0000
  C   C351      1.0  0.14075  0.01826  0.74525  1.0000
  C   C352      1.0  0.00335  0.39997  0.71208  1.0000
  H   H282      1.0  0.43803  0.98779  0.82084  1.0000
  H   H283      1.0  0.01325  0.46782  0.74746  1.0000
  C   C353      1.0  0.00753  0.29800  0.90770  1.0000
  H   H284      1.0  0.99057  0.12193  0.95966  1.0000
  C   C354      1.0  0.47266  0.98600  0.88413  1.0000
  C   C355      1.0  0.31817  0.05333  0.86279  1.0000
  C   C356      1.0  0.32446  0.05595  0.83997  1.0000
  H   H285      1.0  0.29564  0.05464  0.86877  1.0000
  P   P14       1.0  0.41403  0.04511  0.83683  1.0000
  C   C357      1.0  0.00154  0.20760  0.86458  1.0000
  C   C358      1.0  0.44435  0.97941  0.87993  1.0000
  H   H286      1.0  0.05496  0.99450  0.89201  1.0000
  C   C359      1.0  0.98862  0.39507  0.84313  1.0000
  C   C360      1.0  0.03390  0.46206  0.75547  1.0000
  H   H287      1.0  0.99009  0.24414  0.91300  1.0000
  C   C361      1.0  0.18403  0.98304  0.88168  1.0000
  H   H288      1.0  0.05783  0.46187  0.72413  1.0000
  C   C362      1.0  0.05926  0.45862  0.74207  1.0000
  H   H289      1.0  0.15743  0.98544  0.91200  1.0000
  H   H290      1.0  0.10303  0.98680  0.90990  1.0000
  H   H291      1.0  0.06432  0.44557  0.80602  1.0000
  P   P15       1.0  0.17287  0.98360  0.77671  1.0000
  H   H292      1.0  0.29556  0.97997  0.68136  1.0000
  H   H293      1.0  0.02258  0.54021  0.13116  1.0000
  Fe  Fe24      1.0  0.42492  0.86021  0.28333  1.0000
  S   S44       1.0  0.40231  0.90309  0.29283  1.0000
  H   H294      1.0  0.00131  0.83374  0.00100  1.0000
  S   S45       1.0  0.31210  0.91441  0.19091  1.0000
  Fe  Fe25      1.0  0.36541  0.87828  0.30495  1.0000
  S   S46       1.0  0.32023  0.89811  0.29585  1.0000
  C   C363      1.0  0.18616  0.94467  0.20464  1.0000
  S   S47       1.0  0.38647  0.83557  0.29316  1.0000
  C   C364      1.0  0.23462  0.87405  0.23882  1.0000
  H   H295      1.0  0.26753  0.86119  0.21342  1.0000
  C   C365      1.0  0.21525  0.94309  0.23782  1.0000
  H   H296      1.0  0.20766  0.88387  0.26826  1.0000
  C   C366      1.0  0.02724  0.86976  0.00479  1.0000
  H   H297      1.0  0.20352  0.83933  0.14804  1.0000
  H   H298      1.0  0.02712  0.86773  0.02279  1.0000
  C   C367      1.0  0.21919  0.91814  0.06539  1.0000
  H   H299      1.0  0.24360  0.86488  0.13035  1.0000
  C   C368      1.0  0.04855  0.52537  0.15949  1.0000
  C   C369      1.0  0.12209  0.84790  0.23852  1.0000
  C   C370      1.0  0.14901  0.83103  0.23843  1.0000
  H   H300      1.0  0.26715  0.90112  0.15165  1.0000
  C   C371      1.0  0.36613  0.96983  0.05278  1.0000
  C   C372      1.0  0.03835  0.58248  0.17364  1.0000
  H   H301      1.0  0.04211  0.60168  0.25691  1.0000
  C   C373      1.0  0.04277  0.89102  0.99395  1.0000
  C   C374      1.0  0.12084  0.87754  0.23305  1.0000
  H   H302      1.0  0.14489  0.91335  0.22335  1.0000
  H   H303      1.0  0.19953  0.90980  0.05971  1.0000
  H   H304      1.0  0.43924  0.82262  0.17053  1.0000
  C   C375      1.0  0.99536  0.55192  0.24559  1.0000
  C   C376      1.0  0.17364  0.87359  0.22742  1.0000
  H   H305      1.0  0.44641  0.88976  0.20773  1.0000
  C   C377      1.0  0.31432  0.91173  0.22016  1.0000
  C   C378      1.0  0.33506  0.89113  0.22953  1.0000
  C   C379      1.0  0.33779  0.88809  0.25266  1.0000
  C   C380      1.0  0.31851  0.90444  0.26679  1.0000
  C   C381      1.0  0.29709  0.92469  0.25753  1.0000
  C   C382      1.0  0.29529  0.92869  0.23420  1.0000
  H   H306      1.0  0.34915  0.87739  0.21888  1.0000
  H   H307      1.0  0.35422  0.87227  0.25952  1.0000
  H   H308      1.0  0.10218  0.83799  0.24279  1.0000
  H   H309      1.0  0.18724  0.84945  0.18670  1.0000
  S   S48       1.0  0.20644  0.96783  0.12721  1.0000
  C   C383      1.0  0.23640  0.86946  0.14731  1.0000
  C   C384      1.0  0.17468  0.84379  0.23286  1.0000
  H   H310      1.0  0.27897  0.94444  0.22707  1.0000
  H   H311      1.0  0.44254  0.91185  0.14808  1.0000
  H   H312      1.0  0.11217  0.88709  0.97808  1.0000
  S   S49       1.0  0.06267  0.91354  0.00998  1.0000
  C   C385      1.0  0.27647  0.84966  0.26896  1.0000
  Fe  Fe26      1.0  0.29422  0.95697  0.17503  1.0000
  C   C386      1.0  0.01776  0.56438  0.25625  1.0000
  C   C387      1.0  0.14649  0.89038  0.22749  1.0000
  C   C388      1.0  0.48155  0.83550  0.16148  1.0000
  C   C389      1.0  0.25855  0.94927  0.05909  1.0000
  H   H313      1.0  0.07389  0.48996  0.09224  1.0000
  C   C390      1.0  0.23370  0.93727  0.05162  1.0000
  C   C391      1.0  0.02752  0.57487  0.15337  1.0000
  H   H314      1.0  0.15648  0.55705  0.25409  1.0000
  S   S50       1.0  0.03927  0.54641  0.27769  1.0000
  C   C392      1.0  0.00953  0.60712  0.23166  1.0000
  P   P16       1.0  0.08039  0.50580  0.19679  1.0000
  H   H315      1.0  0.03354  0.60443  0.17942  1.0000
  H   H316      1.0  0.19538  0.83039  0.23273  1.0000
  S   S51       1.0  0.29127  0.95964  0.13770  1.0000
  C   C393      1.0  0.40589  0.95726  0.10656  1.0000
  H   H317      1.0  0.43782  0.93395  0.24887  1.0000
  H   H318      1.0  0.22497  0.94261  0.03537  1.0000
  C   C394      1.0  0.47089  0.87536  0.23675  1.0000
  Fe  Fe27      1.0  0.09295  0.94465  0.99392  1.0000
  C   C395      1.0  0.45123  0.84045  0.16471  1.0000
  C   C396      1.0  0.24025  0.89596  0.18101  1.0000
  C   C397      1.0  0.01255  0.85048  0.99247  1.0000
  C   C398      1.0  0.28247  0.84890  0.24605  1.0000
  H   H319      1.0  0.10331  0.55797  0.26334  1.0000
  C   C399      1.0  0.25413  0.92210  0.09420  1.0000
  C   C400      1.0  0.26892  0.94100  0.08039  1.0000
  H   H320      1.0  0.25064  0.91188  0.19002  1.0000
  H   H321      1.0  0.30757  0.95279  0.99963  1.0000
  C   C401      1.0  0.21801  0.88130  0.19132  1.0000
  C   C402      1.0  0.46691  0.88975  0.21598  1.0000
  C   C403      1.0  0.18290  0.97498  0.20494  1.0000
  H   H322      1.0  0.01576  0.50755  0.19832  1.0000
  H   H323      1.0  0.38204  0.94300  0.22770  1.0000
  S   S52       1.0  0.44310  0.85500  0.24805  1.0000
  C   C404      1.0  0.35481  0.92132  0.04495  1.0000
  C   C405      1.0  0.03218  0.54624  0.14645  1.0000
  H   H324      1.0  0.01508  0.59113  0.14322  1.0000
  C   C406      1.0  0.22848  0.87414  0.26188  1.0000
  H   H325      1.0  0.22861  0.93139  0.25031  1.0000
  C   C407      1.0  0.20471  0.86084  0.17930  1.0000
  H   H326      1.0  0.01504  0.62858  0.22662  1.0000
  C   C408      1.0  0.20214  0.92844  0.22119  1.0000
  H   H327      1.0  0.26138  0.91695  0.11096  1.0000
  C   C409      1.0  0.47418  0.94891  0.26551  1.0000
  C   C410      1.0  0.37999  0.86225  0.10010  1.0000
  C   C411      1.0  0.35269  0.87797  0.09746  1.0000
  C   C412      1.0  0.33911  0.89287  0.11538  1.0000
  C   C413      1.0  0.35275  0.89202  0.13595  1.0000
  C   C414      1.0  0.38032  0.87656  0.13870  1.0000
  C   C415      1.0  0.39373  0.86143  0.12067  1.0000
  P   P17       1.0  0.39791  0.87555  0.16535  1.0000
  C   C416      1.0  0.39184  0.91093  0.17744  1.0000
  C   C417      1.0  0.38322  0.84901  0.18415  1.0000
  C   C418      1.0  0.39898  0.83824  0.20284  1.0000
  C   C419      1.0  0.38699  0.81924  0.21827  1.0000
  C   C420      1.0  0.35911  0.81070  0.21515  1.0000
  C   C421      1.0  0.34317  0.82130  0.19661  1.0000
  C   C422      1.0  0.35510  0.84047  0.18120  1.0000
  C   C423      1.0  0.38823  0.93589  0.16360  1.0000
  C   C424      1.0  0.38197  0.96317  0.17270  1.0000
  H   H328      1.0  0.17679  0.93394  0.19114  1.0000
  C   C425      1.0  0.38393  0.94121  0.20978  1.0000
  C   C426      1.0  0.39059  0.91394  0.20065  1.0000
  C   C427      1.0  0.99908  0.96250  0.98802  1.0000
  C   C428      1.0  0.17295  0.96573  0.09005  1.0000
  C   C429      1.0  0.03304  0.48167  0.10835  1.0000
  C   C430      1.0  0.21222  0.97344  0.23790  1.0000
  H   H329      1.0  0.16381  0.94776  0.09873  1.0000
  H   H330      1.0  0.34201  0.87860  0.08158  1.0000
  H   H331      1.0  0.31806  0.90519  0.11336  1.0000
  H   H332      1.0  0.34192  0.90367  0.14968  1.0000
  H   H333      1.0  0.41488  0.84917  0.12239  1.0000
  H   H334      1.0  0.42030  0.84517  0.20587  1.0000
  H   H335      1.0  0.39921  0.81178  0.23292  1.0000
  H   H336      1.0  0.34974  0.79628  0.22732  1.0000
  H   H337      1.0  0.32130  0.81524  0.19442  1.0000
  H   H338      1.0  0.34196  0.84923  0.16746  1.0000
  H   H339      1.0  0.38997  0.93424  0.14575  1.0000
  H   H340      1.0  0.02043  0.49964  0.09994  1.0000
  C   C431      1.0  0.13498  0.52182  0.20925  1.0000
  C   C432      1.0  0.02483  0.59188  0.24894  1.0000
  H   H341      1.0  0.39432  0.89533  0.21187  1.0000
  H   H342      1.0  0.01130  0.95990  0.00328  1.0000
  H   H343      1.0  0.11528  0.51213  0.15595  1.0000
  C   C433      1.0  0.10494  0.52234  0.21443  1.0000
  C   C434      1.0  0.15349  0.53438  0.22350  1.0000
  C   C435      1.0  0.24959  0.88990  0.15919  1.0000
  C   C436      1.0  0.05457  0.56168  0.18679  1.0000
  C   C437      1.0  0.24949  0.86228  0.27688  1.0000
  H   H344      1.0  0.24521  0.86334  0.29468  1.0000
  S   S53       1.0  0.46557  0.94934  0.10966  1.0000
  H   H345      1.0  0.40768  0.93543  0.10043  1.0000
  C   C438      1.0  0.44456  0.94861  0.26105  1.0000
  H   H346      1.0  0.14680  0.96332  0.06080  1.0000
  C   C439      1.0  0.43686  0.86824  0.16062  1.0000
  C   C440      1.0  0.11233  0.54804  0.24820  1.0000
  C   C441      1.0  0.22916  0.91084  0.08677  1.0000
  H   H347      1.0  0.30373  0.83984  0.23999  1.0000
  H   H348      1.0  0.09995  0.89061  0.23308  1.0000
  H   H349      1.0  0.29316  0.84138  0.28059  1.0000
  C   C442      1.0  0.05482  0.48868  0.21496  1.0000
  H   H350      1.0  0.21706  0.89714  0.09779  1.0000
  C   C443      1.0  0.26181  0.86128  0.23100  1.0000
  H   H351      1.0  0.17665  0.53388  0.21949  1.0000
  H   H352      1.0  0.06208  0.56802  0.20267  1.0000
  P   P18       1.0  0.20708  0.88932  0.21973  1.0000
  C   C444      1.0  0.06026  0.53307  0.17961  1.0000
  H   H353      1.0  0.28211  0.93738  0.26838  1.0000
  H   H354      1.0  0.39754  0.93223  0.05377  1.0000
  C   C445      1.0  0.37910  0.96575  0.19575  1.0000
  C   C446      1.0  0.21389  0.85502  0.15733  1.0000
  H   H355      1.0  0.14998  0.80803  0.24262  1.0000
  H   H356      1.0  0.25571  0.96660  0.29720  1.0000
  C   C447      1.0  0.32555  0.93172  0.04174  1.0000
  C   C448      1.0  0.14218  0.54745  0.24298  1.0000
  C   C449      1.0  0.09387  0.53558  0.23397  1.0000
  Fe  Fe28      1.0  0.02661  0.50947  0.30052  1.0000
  S   S54       1.0  0.14183  0.94150  0.99825  1.0000
  H   H357      1.0  0.39059  0.85072  0.08621  1.0000
  H   H358      1.0  0.07081  0.53621  0.23821  1.0000
  H   H359      1.0  0.14428  0.51169  0.19439  1.0000
  H   H360      1.0  0.30998  0.91667  0.03769  1.0000
  H   H361      1.0  0.35876  0.96303  0.10461  1.0000
  H   H362      1.0  0.36179  0.89847  0.04318  1.0000
  C   C450      1.0  0.48314  0.88519  0.14836  1.0000
  C   C451      1.0  0.45301  0.89041  0.15200  1.0000
  H   H363      1.0  0.05159  0.50318  0.15405  1.0000
  C   C452      1.0  0.11643  0.48921  0.16048  1.0000
  H   H364      1.0  0.16386  0.86764  0.98310  1.0000
  H   H365      1.0  0.48620  0.91464  0.18946  1.0000
  H   H366      1.0  0.28834  0.94925  0.08647  1.0000
  C   C453      1.0  0.04864  0.97752  0.05346  1.0000
  C   C454      1.0  0.42368  0.96667  0.27267  1.0000
  C   C455      1.0  0.37501  0.94032  0.05073  1.0000
  H   H367      1.0  0.98967  0.53072  0.25110  1.0000
  H   H368      1.0  0.00619  0.62613  0.30884  1.0000
  H   H369      1.0  0.40071  0.96564  0.26973  1.0000
  H   H370      1.0  0.04304  0.95572  0.05066  1.0000
  C   C456      1.0  0.48308  0.96675  0.28199  1.0000
  C   C457      1.0  0.28519  0.96062  0.99614  1.0000
  H   H371      1.0  0.09353  0.96355  0.06044  1.0000
  C   C458      1.0  0.31638  0.96135  0.04393  1.0000
  C   C459      1.0  0.16324  0.97451  0.06857  1.0000
  C   C460      1.0  0.37817  0.97279  0.10903  1.0000
  C   C461      1.0  0.02457  0.49343  0.21169  1.0000
  C   C462      1.0  0.26632  0.97278  0.01291  1.0000
  C   C463      1.0  0.43116  0.96951  0.11267  1.0000
  P   P19       1.0  0.27802  0.97393  0.04149  1.0000
  C   C464      1.0  0.10074  0.47958  0.17923  1.0000
  C   C465      1.0  0.00510  0.48047  0.22621  1.0000
  S   S55       1.0  0.24858  0.97676  0.18092  1.0000
  Fe  Fe29      1.0  0.45155  0.87657  0.62967  1.0000
  S   S56       1.0  0.40374  0.87127  0.62843  1.0000
  H   H372      1.0  0.26706  0.92456  0.32279  1.0000
  C   C466      1.0  0.36144  0.48112  0.44892  1.0000
  S   S57       1.0  0.39501  0.78961  0.61953  1.0000
  Fe  Fe30      1.0  0.41713  0.82429  0.63714  1.0000
  C   C467      1.0  0.20753  0.95426  0.62703  1.0000
  Fe  Fe31      1.0  0.42626  0.69958  0.50988  1.0000
  S   S58       1.0  0.37995  0.71365  0.50130  1.0000
  S   S59       1.0  0.45140  0.72257  0.53502  1.0000
  Fe  Fe32      1.0  0.43393  0.65690  0.47173  1.0000
  S   S60       1.0  0.38786  0.66846  0.46011  1.0000
  S   S61       1.0  0.46264  0.62414  0.45128  1.0000
  Fe  Fe33      1.0  0.39591  0.71473  0.46556  1.0000
  S   S62       1.0  0.37872  0.75528  0.44577  1.0000
  Fe  Fe34      1.0  0.37551  0.66635  0.49643  1.0000
  S   S63       1.0  0.33441  0.64763  0.50967  1.0000
  S   S64       1.0  0.44282  0.70347  0.47434  1.0000
  S   S65       1.0  0.42102  0.65168  0.50798  1.0000
  H   H373      1.0  0.22446  0.50009  0.38241  1.0000
  Fe  Fe35      1.0  0.25334  0.51346  0.47324  1.0000
  H   H374      1.0  0.33283  0.70998  0.43725  1.0000
  S   S66       1.0  0.29580  0.53412  0.46691  1.0000
  H   H375      1.0  0.28481  0.96595  0.60295  1.0000
  C   C468      1.0  0.38847  0.95984  0.33634  1.0000
  S   S67       1.0  0.20742  0.53317  0.47941  1.0000
  C   C469      1.0  0.40032  0.93623  0.57426  1.0000
  S   S68       1.0  0.18167  0.50459  0.53646  1.0000
  S   S69       1.0  0.41115  0.78531  0.34438  1.0000
  S   S70       1.0  0.44039  0.92746  0.34500  1.0000
  H   H376      1.0  0.47247  0.76480  0.56281  1.0000
  C   C470      1.0  0.41708  0.95991  0.34370  1.0000
  C   C471      1.0  0.44897  0.54354  0.58691  1.0000
  C   C472      1.0  0.14138  0.50000  0.57081  1.0000
  H   H377      1.0  0.11808  0.54846  0.53686  1.0000
  H   H378      1.0  0.39067  0.51501  0.49686  1.0000
  C   C473      1.0  0.43175  0.51863  0.62025  1.0000
  P   P20       1.0  0.29956  0.66556  0.41922  1.0000
  C   C474      1.0  0.38748  0.76301  0.41745  1.0000
  C   C475      1.0  0.40228  0.74217  0.40386  1.0000
  C   C476      1.0  0.40843  0.74910  0.38131  1.0000
  C   C477      1.0  0.40053  0.77707  0.37227  1.0000
  C   C478      1.0  0.38561  0.79788  0.38587  1.0000
  C   C479      1.0  0.37901  0.79080  0.40832  1.0000
  H   H379      1.0  0.40886  0.72075  0.41072  1.0000
  H   H380      1.0  0.41966  0.73283  0.37082  1.0000
  H   H381      1.0  0.37928  0.81943  0.37912  1.0000
  H   H382      1.0  0.36743  0.80701  0.41871  1.0000
  C   C480      1.0  0.30501  0.56641  0.47857  1.0000
  C   C481      1.0  0.28824  0.58013  0.49567  1.0000
  C   C482      1.0  0.29710  0.60541  0.50485  1.0000
  C   C483      1.0  0.32247  0.61729  0.49676  1.0000
  C   C484      1.0  0.33854  0.60412  0.47915  1.0000
  C   C485      1.0  0.33013  0.57852  0.47035  1.0000
  H   H383      1.0  0.26875  0.57104  0.50205  1.0000
  H   H384      1.0  0.28445  0.61562  0.51842  1.0000
  H   H385      1.0  0.35767  0.61349  0.47253  1.0000
  H   H386      1.0  0.34311  0.56809  0.45704  1.0000
  C   C486      1.0  0.45303  0.83363  0.37992  1.0000
  C   C487      1.0  0.29755  0.70925  0.35880  1.0000
  S   S71       1.0  0.24036  0.48867  0.44423  1.0000
  H   H387      1.0  0.38054  0.93983  0.33140  1.0000
  C   C488      1.0  0.47335  0.69346  0.38652  1.0000
  H   H388      1.0  0.14449  0.52241  0.57368  1.0000
  C   C489      1.0  0.41121  0.77077  0.59626  1.0000
  C   C490      1.0  0.39572  0.75039  0.58586  1.0000
  C   C491      1.0  0.40737  0.73596  0.56678  1.0000
  C   C492      1.0  0.43507  0.74118  0.55829  1.0000
  C   C493      1.0  0.45086  0.76098  0.56902  1.0000
  C   C494      1.0  0.43891  0.77590  0.58776  1.0000
  H   H389      1.0  0.37442  0.74599  0.59245  1.0000
  H   H390      1.0  0.39511  0.72052  0.55885  1.0000
  H   H391      1.0  0.42359  0.60616  0.58837  1.0000
  H   H392      1.0  0.45125  0.79113  0.59580  1.0000
  C   C495      1.0  0.45293  0.95306  0.61820  1.0000
  C   C496      1.0  0.47851  0.95341  0.58248  1.0000
  S   S72       1.0  0.47455  0.90007  0.60200  1.0000
  C   C497      1.0  0.44654  0.64257  0.57779  1.0000
  C   C498      1.0  0.27574  0.71939  0.40211  1.0000
  C   C499      1.0  0.13131  0.54513  0.50233  1.0000
  H   H393      1.0  0.12876  0.54135  0.38680  1.0000
  H   H394      1.0  0.14106  0.53627  0.46784  1.0000
  C   C500      1.0  0.43943  0.61400  0.57654  1.0000
  H   H395      1.0  0.08350  0.51149  0.53559  1.0000
  Fe  Fe36      1.0  0.42053  0.89275  0.32665  1.0000
  C   C501      1.0  0.10361  0.50556  0.38046  1.0000
  C   C502      1.0  0.26029  0.94919  0.63102  1.0000
  C   C503      1.0  0.30205  0.89181  0.61595  1.0000
  H   H396      1.0  0.32800  0.92654  0.57542  1.0000
  H   H397      1.0  0.25909  0.76151  0.38911  1.0000
  C   C504      1.0  0.42546  0.53245  0.44819  1.0000
  C   C505      1.0  0.40604  0.55719  0.55081  1.0000
  C   C506      1.0  0.42404  0.56245  0.45043  1.0000
  H   H398      1.0  0.41473  0.50806  0.62920  1.0000
  C   C507      1.0  0.23617  0.61555  0.39951  1.0000
  C   C508      1.0  0.36751  0.52849  0.53972  1.0000
  C   C509      1.0  0.34807  0.55359  0.53827  1.0000
  C   C510      1.0  0.35748  0.58040  0.54314  1.0000
  C   C511      1.0  0.39643  0.53026  0.54587  1.0000
  C   C512      1.0  0.45246  0.59581  0.56001  1.0000
  Fe  Fe37      1.0  0.00749  0.49830  0.62814  1.0000
  H   H399      1.0  0.39308  0.60354  0.55227  1.0000
  C   C513      1.0  0.15681  0.48564  0.55317  1.0000
  C   C514      1.0  0.37040  0.94150  0.57897  1.0000
  C   C515      1.0  0.38637  0.58232  0.54921  1.0000
  C   C516      1.0  0.29179  0.69281  0.39740  1.0000
  C   C517      1.0  0.03733  0.50367  0.43731  1.0000
  H   H400      1.0  0.43268  0.83507  0.37104  1.0000
  C   C518      1.0  0.11494  0.53807  0.52131  1.0000
  C   C519      1.0  0.34922  0.78479  0.54833  1.0000
  C   C520      1.0  0.27184  0.94596  0.32751  1.0000
  P   P21       1.0  0.44338  0.55874  0.55912  1.0000
  H   H401      1.0  0.36024  0.88563  0.46579  1.0000
  C   C521      1.0  0.35119  0.92233  0.57184  1.0000
  C   C522      1.0  0.28622  0.94927  0.34734  1.0000
  C   C523      1.0  0.34961  0.94897  0.63722  1.0000
  H   H402      1.0  0.36020  0.50776  0.53576  1.0000
  H   H403      1.0  0.32578  0.55241  0.53311  1.0000
  H   H404      1.0  0.34244  0.59990  0.54191  1.0000
  H   H405      1.0  0.41136  0.51067  0.54671  1.0000
  H   H406      1.0  0.04231  0.71471  0.64036  1.0000
  S   S73       1.0  0.38166  0.87117  0.33999  1.0000
  C   C524      1.0  0.46840  0.93805  0.60109  1.0000
  H   H407      1.0  0.35323  0.69062  0.40369  1.0000
  H   H408      1.0  0.41512  0.95122  0.57976  1.0000
  H   H409      1.0  0.31629  0.48500  0.43937  1.0000
  C   C525      1.0  0.30231  0.68774  0.37554  1.0000
  C   C526      1.0  0.36302  0.78985  0.52776  1.0000
  C   C527      1.0  0.09198  0.50258  0.50057  1.0000
  H   H410      1.0  0.14692  0.56112  0.50316  1.0000
  C   C528      1.0  0.28205  0.73585  0.36370  1.0000
  C   C529      1.0  0.45821  0.52146  0.63052  1.0000
  C   C530      1.0  0.27102  0.74085  0.38531  1.0000
  C   C531      1.0  0.37962  0.88610  0.47562  1.0000
  C   C532      1.0  0.40446  0.89723  0.46616  1.0000
  C   C533      1.0  0.42933  0.89821  0.47892  1.0000
  C   C534      1.0  0.42957  0.88755  0.50099  1.0000
  C   C535      1.0  0.40511  0.87526  0.51031  1.0000
  C   C536      1.0  0.37976  0.87553  0.49771  1.0000
  P   P22       1.0  0.40544  0.86160  0.53882  1.0000
  C   C537      1.0  0.38314  0.83177  0.54247  1.0000
  C   C538      1.0  0.44174  0.84615  0.54571  1.0000
  C   C539      1.0  0.45920  0.83063  0.52972  1.0000
  C   C540      1.0  0.42706  0.52968  0.59854  1.0000
  H   H411      1.0  0.33670  0.76625  0.55076  1.0000
  S   S74       1.0  0.44654  0.85145  0.31634  1.0000
  C   C541      1.0  0.45220  0.84794  0.56730  1.0000
  C   C542      1.0  0.38012  0.81309  0.52488  1.0000
  C   C543      1.0  0.32042  0.96024  0.64052  1.0000
  H   H412      1.0  0.48034  0.71752  0.35581  1.0000
  C   C544      1.0  0.35281  0.80279  0.56611  1.0000
  C   C545      1.0  0.37011  0.82591  0.56333  1.0000
  C   C546      1.0  0.39204  0.89207  0.55555  1.0000
  C   C547      1.0  0.48002  0.53542  0.61911  1.0000
  C   C548      1.0  0.30521  0.90000  0.63803  1.0000
  H   H413      1.0  0.29081  0.49717  0.54620  1.0000
  Fe  Fe38      1.0  0.20254  0.49411  0.50231  1.0000
  C   C549      1.0  0.36189  0.89786  0.55998  1.0000
  Fe  Fe39      1.0  0.19392  0.50503  0.45225  1.0000
  H   H414      1.0  0.40435  0.90530  0.44900  1.0000
  C   C550      1.0  0.12825  0.53087  0.48252  1.0000
  H   H415      1.0  0.44888  0.88881  0.51076  1.0000
  H   H416      1.0  0.36018  0.86736  0.50486  1.0000
  H   H417      1.0  0.45112  0.82804  0.51321  1.0000
  H   H418      1.0  0.06841  0.59633  0.61199  1.0000
  H   H419      1.0  0.27876  0.75266  0.35079  1.0000
  C   C551      1.0  0.26546  0.96984  0.31303  1.0000
  H   H420      1.0  0.43871  0.85859  0.58027  1.0000
  H   H421      1.0  0.39124  0.81617  0.50900  1.0000
  H   H422      1.0  0.34347  0.79788  0.58239  1.0000
  H   H423      1.0  0.37394  0.83864  0.57763  1.0000
  H   H424      1.0  0.43448  0.90810  0.55901  1.0000
  C   C552      1.0  0.00873  0.49676  0.51160  1.0000
  H   H425      1.0  0.44464  0.94111  0.63232  1.0000
  H   H426      1.0  0.34661  0.88360  0.55414  1.0000
  H   H427      1.0  0.25275  0.57962  0.44849  1.0000
  H   H428      1.0  0.22185  0.61490  0.38553  1.0000
  H   H429      1.0  0.26715  0.72378  0.41876  1.0000
  H   H430      1.0  0.43538  0.52326  0.43315  1.0000
  H   H431      1.0  0.09293  0.51614  0.36613  1.0000
  C   C553      1.0  0.48036  0.83575  0.57242  1.0000
  C   C554      1.0  0.23512  0.59491  0.41693  1.0000
  H   H432      1.0  0.46531  0.87443  0.36647  1.0000
  C   C555      1.0  0.44960  0.78878  0.44979  1.0000
  C   C556      1.0  0.43420  0.78869  0.47021  1.0000
  C   C557      1.0  0.44770  0.77640  0.48930  1.0000
  H   H433      1.0  0.35580  0.92584  0.63803  1.0000
  H   H434      1.0  0.33856  0.82414  0.61863  1.0000
  H   H435      1.0  0.31168  0.85829  0.59191  1.0000
  C   C558      1.0  0.46241  0.54558  0.51608  1.0000
  C   C559      1.0  0.12395  0.51980  0.39222  1.0000
  C   C560      1.0  0.23220  0.94468  0.63936  1.0000
  C   C561      1.0  0.25353  0.59567  0.43498  1.0000
  H   H436      1.0  0.29080  0.90656  0.60402  1.0000
  H   H437      1.0  0.31452  0.66729  0.37151  1.0000
  C   C562      1.0  0.47540  0.54652  0.59743  1.0000
  H   H438      1.0  0.43819  0.79741  0.43516  1.0000
  H   H439      1.0  0.41135  0.79706  0.47095  1.0000
  H   H440      1.0  0.43548  0.77528  0.50497  1.0000
  C   C563      1.0  0.26333  0.96273  0.60992  1.0000
  C   C564      1.0  0.48087  0.71760  0.37386  1.0000
  C   C565      1.0  0.13840  0.50622  0.41069  1.0000
  C   C566      1.0  0.10895  0.50946  0.48165  1.0000
  H   H441      1.0  0.39408  0.95866  0.63237  1.0000
  C   C567      1.0  0.09542  0.51683  0.52051  1.0000
  C   C568      1.0  0.31388  0.86447  0.60897  1.0000
  C   C569      1.0  0.41084  0.57524  0.46935  1.0000
  C   C570      1.0  0.39851  0.55804  0.48588  1.0000
  C   C571      1.0  0.40034  0.52792  0.48391  1.0000
  C   C572      1.0  0.23862  0.97231  0.59764  1.0000
  H   H442      1.0  0.28697  0.61730  0.44983  1.0000
  C   C573      1.0  0.47329  0.60646  0.54515  1.0000
  H   H443      1.0  0.40994  0.59854  0.47109  1.0000
  H   H444      1.0  0.38752  0.56819  0.50021  1.0000
  C   C574      1.0  0.05417  0.59412  0.62649  1.0000
  C   C575      1.0  0.46101  0.80937  0.39365  1.0000
  H   H445      1.0  0.29221  0.93050  0.35806  1.0000
  H   H446      1.0  0.30621  0.70544  0.34207  1.0000
  C   C576      1.0  0.37154  0.96760  0.63381  1.0000
  C   C577      1.0  0.41451  0.51479  0.46531  1.0000
  C   C578      1.0  0.27411  0.63803  0.41830  1.0000
  S   S75       1.0  0.05501  0.50425  0.63172  1.0000
  C   C579      1.0  0.47148  0.85576  0.37729  1.0000
  H   H447      1.0  0.04565  0.52306  0.46820  1.0000
  C   C580      1.0  0.48109  0.71843  0.42037  1.0000
  H   H448      1.0  0.40416  0.66982  0.39869  1.0000
  H   H449      1.0  0.41799  0.61768  0.40738  1.0000
  H   H450      1.0  0.23845  0.49668  0.55698  1.0000
  C   C581      1.0  0.41117  0.91167  0.56254  1.0000
  S   S76       1.0  0.01825  0.51678  0.33721  1.0000
  H   H451      1.0  0.40623  0.52762  0.59110  1.0000
  H   H452      1.0  0.44843  0.90724  0.47169  1.0000
  H   H453      1.0  0.48680  0.75407  0.50276  1.0000
  C   C582      1.0  0.48821  0.74228  0.38443  1.0000
  H   H454      1.0  0.44686  0.56342  0.51087  1.0000
  C   C583      1.0  0.29724  0.68371  0.44560  1.0000
  C   C584      1.0  0.33693  0.64996  0.41485  1.0000
  C   C585      1.0  0.34491  0.62031  0.41921  1.0000
  C   C586      1.0  0.37397  0.60871  0.41638  1.0000
  C   C587      1.0  0.39535  0.62653  0.40907  1.0000
  C   C588      1.0  0.38759  0.65592  0.40424  1.0000
  C   C589      1.0  0.35857  0.66764  0.40718  1.0000
  C   C590      1.0  0.31654  0.70458  0.44962  1.0000
  C   C591      1.0  0.31494  0.71902  0.46976  1.0000
  C   C592      1.0  0.29441  0.71248  0.48624  1.0000
  C   C593      1.0  0.27469  0.69225  0.48225  1.0000
  C   C594      1.0  0.27571  0.67828  0.46189  1.0000
  H   H455      1.0  0.43332  0.57589  0.43753  1.0000
  H   H456      1.0  0.32899  0.60596  0.42497  1.0000
  H   H457      1.0  0.37984  0.58590  0.42009  1.0000
  S   S77       1.0  0.16476  0.52458  0.42434  1.0000
  H   H458      1.0  0.32994  0.73507  0.47266  1.0000
  H   H459      1.0  0.29396  0.72289  0.50216  1.0000
  H   H460      1.0  0.25887  0.68706  0.49509  1.0000
  H   H461      1.0  0.25964  0.66336  0.45917  1.0000
  H   H462      1.0  0.10740  0.49842  0.46614  1.0000
  H   H463      1.0  0.11062  0.49683  0.59856  1.0000
  H   H464      1.0  0.17672  0.49273  0.36637  1.0000
  C   C595      1.0  0.04533  0.50285  0.45965  1.0000
  C   C596      1.0  0.25559  0.63700  0.40013  1.0000
  H   H465      1.0  0.25590  0.65271  0.38644  1.0000
  Fe  Fe40      1.0  0.40608  0.83022  0.32724  1.0000
  C   C597      1.0  0.27296  0.61703  0.43564  1.0000
  H   H466      1.0  0.36218  0.96055  0.58807  1.0000
  H   H467      1.0  0.36096  0.77540  0.51416  1.0000
  H   H468      1.0  0.22004  0.57829  0.41651  1.0000
  C   C598      1.0  0.03187  0.57574  0.62600  1.0000
  S   S78       1.0  0.46522  0.82922  0.63617  1.0000
  H   H469      1.0  0.03155  0.52428  0.42871  1.0000
  H   H470      1.0  0.44662  0.79228  0.39532  1.0000
  H   H471      1.0  0.43611  0.65675  0.59030  1.0000
  C   C599      1.0  0.46708  0.65304  0.56283  1.0000
  H   H472      1.0  0.36261  0.50436  0.44771  1.0000
  H   H473      1.0  0.02881  0.56381  0.61113  1.0000
  C   C600      1.0  0.12210  0.48556  0.58494  1.0000
  C   C601      1.0  0.46619  0.53872  0.53880  1.0000
  C   C602      1.0  0.03598  0.48387  0.51870  1.0000
  H   H474      1.0  0.47921  0.49194  0.45932  1.0000
  H   H475      1.0  0.00498  0.50210  0.49420  1.0000
  C   C603      1.0  0.21072  0.96814  0.60621  1.0000
  H   H476      1.0  0.46718  0.67456  0.37831  1.0000
  C   C604      1.0  0.47672  0.76437  0.48802  1.0000
  C   C605      1.0  0.48717  0.81808  0.53499  1.0000
  C   C606      1.0  0.47880  0.77667  0.44832  1.0000
  H   H477      1.0  0.46756  0.67522  0.41966  1.0000
  H   H478      1.0  0.47256  0.67520  0.56383  1.0000
  C   C607      1.0  0.01698  0.48353  0.55693  1.0000
  C   C608      1.0  0.47353  0.69386  0.40978  1.0000
  H   H479      1.0  0.18590  0.95092  0.63363  1.0000
  C   C609      1.0  0.32896  0.84516  0.62398  1.0000
  H   H480      1.0  0.48144  0.71820  0.43836  1.0000
  H   H481      1.0  0.47653  0.53609  0.48252  1.0000
  C   C610      1.0  0.48046  0.63500  0.54655  1.0000
  C   C611      1.0  0.47934  0.53017  0.49996  1.0000
  C   C612      1.0  0.48717  0.51605  0.54517  1.0000
  H   H482      1.0  0.48423  0.59292  0.53255  1.0000
  H   H483      1.0  0.00123  0.57352  0.31243  1.0000
  H   H484      1.0  0.19157  0.97564  0.59672  1.0000
  C   C613      1.0  0.48759  0.80689  0.40482  1.0000
  H   H485      1.0  0.47427  0.97783  0.40870  1.0000
  C   C614      1.0  0.29416  0.97651  0.35273  1.0000
  C   C615      1.0  0.48786  0.74307  0.40781  1.0000
  C   C616      1.0  0.98999  0.49639  0.54974  1.0000
  H   H486      1.0  0.48849  0.83767  0.58903  1.0000
  H   H487      1.0  0.02028  0.47885  0.57455  1.0000
  H   H488      1.0  0.03176  0.47864  0.40835  1.0000
  C   C617      1.0  0.13182  0.47844  0.41761  1.0000
  C   C618      1.0  0.21629  0.47892  0.38371  1.0000
  S   S79       1.0  0.99781  0.82661  0.95293  1.0000
  Fe  Fe41      1.0  0.45964  0.84017  0.67245  1.0000
  S   S80       1.0  0.41248  0.83075  0.67435  1.0000
  S   S81       1.0  0.28663  0.92228  0.83085  1.0000
  Fe  Fe42      1.0  0.40339  0.87802  0.66542  1.0000
  S   S82       1.0  0.37255  0.91142  0.68267  1.0000
  S   S83       1.0  0.45016  0.88770  0.66566  1.0000
  S   S84       1.0  0.06712  0.51517  0.69511  1.0000
  H   H489      1.0  0.02789  0.66644  0.65191  1.0000
  C   C619      1.0  0.38676  0.81779  0.75815  1.0000
  C   C620      1.0  0.48047  0.87072  0.78231  1.0000
  C   C621      1.0  0.32928  0.92190  0.74170  1.0000
  H   H490      1.0  0.08479  0.66502  0.70814  1.0000
  C   C622      1.0  0.02837  0.87394  0.95833  1.0000
  C   C623      1.0  0.99005  0.61902  0.87297  1.0000
  H   H491      1.0  0.34834  0.94856  0.71640  1.0000
  H   H492      1.0  0.26818  0.89364  0.67754  1.0000
  H   H493      1.0  0.99435  0.67109  0.68740  1.0000
  C   C624      1.0  0.11495  0.57246  0.71100  1.0000
  H   H494      1.0  0.32162  0.94002  0.75190  1.0000
  Fe  Fe43      1.0  0.04695  0.49193  0.66779  1.0000
  C   C625      1.0  0.04821  0.52525  0.72016  1.0000
  C   C626      1.0  0.06494  0.53105  0.73827  1.0000
  C   C627      1.0  0.05156  0.54094  0.75816  1.0000
  C   C628      1.0  0.46706  0.96000  0.67686  1.0000
  C   C629      1.0  0.43584  0.81553  0.74221  1.0000
  H   H495      1.0  0.38809  0.95881  0.76876  1.0000
  H   H496      1.0  0.08850  0.52767  0.73696  1.0000
  H   H497      1.0  0.06499  0.54557  0.77188  1.0000
  S   S85       1.0  0.30105  0.88857  0.77211  1.0000
  H   H498      1.0  0.05321  0.91069  0.96226  1.0000
  H   H499      1.0  0.03468  0.60158  0.86752  1.0000
  C   C630      1.0  0.04347  0.67635  0.66172  1.0000
  H   H500      1.0  0.37001  0.82642  0.76971  1.0000
  S   S86       1.0  0.99869  0.49057  0.66462  1.0000
  C   C631      1.0  0.35572  0.86811  0.82082  1.0000
  C   C632      1.0  0.11634  0.57946  0.73340  1.0000
  C   C633      1.0  0.22479  0.94589  0.88144  1.0000
  H   H501      1.0  0.04591  0.49707  0.81168  1.0000
  H   H502      1.0  0.35761  0.79094  0.74295  1.0000
  C   C634      1.0  0.35471  0.90357  0.70819  1.0000
  C   C635      1.0  0.34940  0.87529  0.71491  1.0000
  C   C636      1.0  0.33296  0.87058  0.73463  1.0000
  H   H503      1.0  0.35730  0.85724  0.70469  1.0000
  H   H504      1.0  0.32810  0.84887  0.73951  1.0000
  C   C637      1.0  0.40570  0.91414  0.77245  1.0000
  C   C638      1.0  0.18391  0.89960  0.85269  1.0000
  C   C639      1.0  0.19306  0.87247  0.84410  1.0000
  C   C640      1.0  0.17926  0.84814  0.85130  1.0000
  C   C641      1.0  0.15607  0.85100  0.86692  1.0000
  C   C642      1.0  0.14624  0.87835  0.87524  1.0000
  C   C643      1.0  0.16095  0.90249  0.86849  1.0000
  P   P23       1.0  0.11703  0.88166  0.89610  1.0000
  C   C644      1.0  0.09146  0.85501  0.89191  1.0000
  C   C645      1.0  0.13228  0.87692  0.92354  1.0000
  C   C646      1.0  0.01528  0.58214  0.89676  1.0000
  H   H505      1.0  0.06032  0.90438  0.87656  1.0000
  H   H506      1.0  0.39112  0.94834  0.82621  1.0000
  H   H507      1.0  0.05759  0.82413  0.85000  1.0000
  S   S87       1.0  0.26973  0.96846  0.78935  1.0000
  C   C647      1.0  0.07780  0.84148  0.91013  1.0000
  C   C648      1.0  0.05706  0.82204  0.90664  1.0000
  H   H508      1.0  0.20385  0.89550  0.73416  1.0000
  H   H509      1.0  0.32351  0.88622  0.66992  1.0000
  C   C649      1.0  0.08401  0.84857  0.87018  1.0000
  C   C650      1.0  0.09748  0.91749  0.89395  1.0000
  C   C651      1.0  0.07024  0.92209  0.88364  1.0000
  H   H510      1.0  0.09609  0.60491  0.76005  1.0000
  H   H511      1.0  0.23578  0.87305  0.76403  1.0000
  C   C652      1.0  0.40799  0.91027  0.87426  1.0000
  C   C653      1.0  0.17274  0.86219  0.94795  1.0000
  H   H512      1.0  0.19504  0.91836  0.84747  1.0000
  H   H513      1.0  0.21126  0.87024  0.83222  1.0000
  H   H514      1.0  0.18681  0.82698  0.84501  1.0000
  H   H515      1.0  0.14610  0.83180  0.87272  1.0000
  H   H516      1.0  0.15522  0.92350  0.87558  1.0000
  C   C654      1.0  0.01028  0.63081  0.70435  1.0000
  H   H517      1.0  0.47019  0.94381  0.66442  1.0000
  H   H518      1.0  0.12482  0.94813  0.84579  1.0000
  P   P24       1.0  0.04483  0.62646  0.68922  1.0000
  H   H519      1.0  0.17573  0.85994  0.91239  1.0000
  H   H520      1.0  0.08270  0.84584  0.92712  1.0000
  H   H521      1.0  0.45059  0.88944  0.88199  1.0000
  C   C655      1.0  0.07245  0.60748  0.70656  1.0000
  H   H522      1.0  0.36223  0.87173  0.78544  1.0000
  H   H523      1.0  0.09388  0.85902  0.85587  1.0000
  C   C656      1.0  0.99738  0.53007  0.84855  1.0000
  H   H524      1.0  0.34430  0.83832  0.65748  1.0000
  H   H525      1.0  0.35598  0.86514  0.85668  1.0000
  C   C657      1.0  0.05535  0.66193  0.68085  1.0000
  H   H526      1.0  0.12985  0.93795  0.91170  1.0000
  C   C658      1.0  0.17599  0.97418  0.90347  1.0000
  C   C659      1.0  0.42541  0.89170  0.73864  1.0000
  H   H527      1.0  0.40886  0.84848  0.85815  1.0000
  H   H528      1.0  0.13020  0.55552  0.70413  1.0000
  C   C660      1.0  0.10922  0.94110  0.90323  1.0000
  H   H529      1.0  0.17664  0.94346  0.73931  1.0000
  H   H530      1.0  0.03361  0.80075  0.88246  1.0000
  H   H531      1.0  0.99055  0.56714  0.92495  1.0000
  Fe  Fe44      1.0  0.14387  0.95735  0.96233  1.0000
  C   C661      1.0  0.41541  0.84968  0.82249  1.0000
  H   H532      1.0  0.43866  0.84362  0.82370  1.0000
  C   C662      1.0  0.42862  0.79524  0.72706  1.0000
  C   C663      1.0  0.43767  0.90235  0.86982  1.0000
  C   C664      1.0  0.45078  0.91138  0.84985  1.0000
  H   H533      1.0  0.39964  0.96196  0.72849  1.0000
  H   H534      1.0  0.26138  0.93784  0.73942  1.0000
  C   C665      1.0  0.41801  0.88939  0.76141  1.0000
  C   C666      1.0  0.34436  0.92674  0.72155  1.0000
  C   C667      1.0  0.40594  0.94212  0.73779  1.0000
  C   C668      1.0  0.07374  0.61413  0.72917  1.0000
  H   H535      1.0  0.28960  0.94862  0.96164  1.0000
  C   C669      1.0  0.01834  0.58683  0.66427  1.0000
  C   C670      1.0  0.01419  0.57185  0.64496  1.0000
  C   C671      1.0  0.41504  0.82690  0.75801  1.0000
  P   P25       1.0  0.29227  0.93624  0.64661  1.0000
  H   H536      1.0  0.23821  0.96561  0.95281  1.0000
  C   C672      1.0  0.00398  0.53863  0.74252  1.0000
  H   H537      1.0  0.42475  0.91948  0.70929  1.0000
  C   C673      1.0  0.41967  0.91808  0.72697  1.0000
  S   S88       1.0  0.18129  0.93705  0.94070  1.0000
  C   C674      1.0  0.40048  0.78629  0.72735  1.0000
  H   H538      1.0  0.43524  0.87315  0.72974  1.0000
  C   C675      1.0  0.32285  0.89396  0.74803  1.0000
  H   H539      1.0  0.24359  0.93480  0.87306  1.0000
  C   C676      1.0  0.28265  0.93684  0.67613  1.0000
  C   C677      1.0  0.19182  0.95056  0.91407  1.0000
  C   C678      1.0  0.26639  0.93791  0.72165  1.0000
  C   C679      1.0  0.26336  0.91327  0.70943  1.0000
  H   H540      1.0  0.13288  0.56816  0.74385  1.0000
  H   H541      1.0  0.39804  0.90342  0.88984  1.0000
  C   C680      1.0  0.32031  0.88035  0.65294  1.0000
  S   S89       1.0  0.09550  0.95649  0.95750  1.0000
  S   S90       1.0  0.33923  0.94926  0.80005  1.0000
  H   H542      1.0  0.44479  0.78703  0.71474  1.0000
  C   C681      1.0  0.36876  0.86183  0.84137  1.0000
  C   C682      1.0  0.02113  0.54544  0.76031  1.0000
  Fe  Fe45      1.0  0.29890  0.92710  0.79449  1.0000
  C   C683      1.0  0.20480  0.90622  0.74985  1.0000
  H   H543      1.0  0.45757  0.82278  0.74119  1.0000
  C   C684      1.0  0.39103  0.92658  0.85850  1.0000
  C   C685      1.0  0.46243  0.84800  0.78258  1.0000
  S   S91       1.0  0.00662  0.55987  0.78565  1.0000
  C   C686      1.0  0.43400  0.92787  0.83404  1.0000
  C   C687      1.0  0.06691  0.97312  0.89220  1.0000
  C   C688      1.0  0.05152  0.70376  0.65515  1.0000
  C   C689      1.0  0.01357  0.85209  0.96915  1.0000
  C   C690      1.0  0.09408  0.96880  0.90225  1.0000
  C   C691      1.0  0.27513  0.95825  0.97451  1.0000
  C   C692      1.0  0.27095  0.91288  0.68671  1.0000
  C   C693      1.0  0.39903  0.94018  0.76050  1.0000
  C   C694      1.0  0.03996  0.60622  0.66461  1.0000
  H   H544      1.0  0.44408  0.93437  0.81844  1.0000
  C   C695      1.0  0.04982  0.81577  0.88501  1.0000
  P   P26       1.0  0.42425  0.85494  0.77619  1.0000
  C   C696      1.0  0.40400  0.93539  0.83832  1.0000
  H   H545      1.0  0.09870  0.71319  0.69641  1.0000
  C   C697      1.0  0.14677  0.96332  0.81609  1.0000
  H   H546      1.0  0.01864  0.59106  0.72402  1.0000
  C   C698      1.0  0.37957  0.79754  0.74290  1.0000
  H   H547      1.0  0.23881  0.89795  0.79956  1.0000
  C   C699      1.0  0.05504  0.94980  0.88282  1.0000
  H   H548      1.0  0.05773  0.62997  0.73654  1.0000
  H   H549      1.0  0.39482  0.77098  0.71528  1.0000
  C   C700      1.0  0.11480  0.88486  0.94227  1.0000
  C   C701      1.0  0.16145  0.86561  0.92650  1.0000
  Fe  Fe46      1.0  0.32489  0.94781  0.83596  1.0000
  H   H550      1.0  0.21032  0.94509  0.80557  1.0000
  H   H551      1.0  0.03384  0.95311  0.87520  1.0000
  H   H552      1.0  0.25605  0.89413  0.71778  1.0000
  H   H553      1.0  0.40072  0.91338  0.79015  1.0000
  H   H554      1.0  0.07601  0.62303  0.64600  1.0000
  C   C702      1.0  0.27765  0.96196  0.71125  1.0000
  C   C703      1.0  0.01759  0.52834  0.72243  1.0000
  S   S92       1.0  0.35388  0.93573  0.86493  1.0000
  C   C704      1.0  0.08328  0.70290  0.68671  1.0000
  Fe  Fe47      1.0  0.26097  0.96568  0.82658  1.0000
  C   C705      1.0  0.06334  0.82897  0.86677  1.0000
  C   C706      1.0  0.21632  0.93659  0.90300  1.0000
  C   C707      1.0  0.02377  0.52276  0.83705  1.0000
  H   H555      1.0  0.12451  0.95153  0.76455  1.0000
  H   H556      1.0  0.43632  0.95998  0.88731  1.0000
  H   H557      1.0  0.33277  0.87582  0.82011  1.0000
  C   C708      1.0  0.02553  0.50158  0.82082  1.0000
  C   C709      1.0  0.40242  0.85592  0.80173  1.0000
  H   H558      1.0  0.02893  0.87564  0.94032  1.0000
  H   H559      1.0  0.03492  0.56834  0.90087  1.0000
  H   H560      1.0  0.46067  0.80182  0.78825  1.0000
  H   H561      1.0  0.15217  0.94162  0.81013  1.0000
  C   C710      1.0  0.22257  0.89342  0.76670  1.0000
  H   H562      1.0  0.22875  0.91836  0.91110  1.0000
  H   H563      1.0  0.04638  0.81198  0.92083  1.0000
  C   C711      1.0  0.07529  0.67548  0.69332  1.0000
  H   H564      1.0  0.09202  0.57993  0.68051  1.0000
  C   C712      1.0  0.37248  0.86540  0.80112  1.0000
  H   H565      1.0  0.48035  0.88502  0.70881  1.0000
  H   H566      1.0  0.99004  0.63378  0.85858  1.0000
  C   C713      1.0  0.18915  0.93332  0.75294  1.0000
  C   C714      1.0  0.39856  0.85249  0.84219  1.0000
  C   C715      1.0  0.09560  0.60014  0.74252  1.0000
  C   C716      1.0  0.22421  0.90740  0.78682  1.0000
  C   C717      1.0  0.09307  0.58634  0.69762  1.0000
  H   H567      1.0  0.09246  0.89393  0.94022  1.0000
  C   C718      1.0  0.00319  0.60962  0.72025  1.0000
  H   H568      1.0  0.04266  0.53413  0.84021  1.0000
  C   C719      1.0  0.20838  0.96887  0.87053  1.0000
  H   H569      1.0  0.99758  0.55678  0.64479  1.0000
  C   C720      1.0  0.43856  0.96946  0.68391  1.0000
  C   C721      1.0  0.20815  0.93419  0.79012  1.0000
  C   C722      1.0  0.19052  0.94739  0.77323  1.0000
  H   H570      1.0  0.00457  0.52318  0.70866  1.0000
  C   C723      1.0  0.01523  0.60089  0.87805  1.0000
  C   C724      1.0  0.00080  0.48755  0.81599  1.0000
  C   C725      1.0  0.13109  0.96687  0.83629  1.0000
  C   C726      1.0  0.01125  0.97563  0.96920  1.0000
  C   C727      1.0  0.05837  0.60918  0.64577  1.0000
  C   C728      1.0  0.47435  0.81959  0.78784  1.0000
  H   H571      1.0  0.22926  0.93388  0.65539  1.0000
  C   C729      1.0  0.33211  0.85309  0.64596  1.0000
  C   C730      1.0  0.04248  0.89360  0.97069  1.0000
  C   C731      1.0  0.15500  0.86987  0.96653  1.0000
  H   H572      1.0  0.08363  0.96284  0.73878  1.0000
  C   C732      1.0  0.12597  0.88104  0.96369  1.0000
  H   H573      1.0  0.07768  0.73827  0.66253  1.0000
  C   C733      1.0  0.07143  0.71703  0.66763  1.0000
  H   H574      1.0  0.99582  0.54685  0.86077  1.0000
  H   H575      1.0  0.42003  0.96030  0.67700  1.0000
  H   H576      1.0  0.19545  0.85425  0.95014  1.0000
  H   H577      1.0  0.44382  0.96775  0.78348  1.0000
  C   C734      1.0  0.28599  0.96139  0.68867  1.0000
  H   H578      1.0  0.00479  0.58296  0.67886  1.0000
  H   H579      1.0  0.47184  0.89284  0.77845  1.0000
  C   C735      1.0  0.99618  0.97796  0.94923  1.0000
  C   C736      1.0  0.24624  0.96797  0.96945  1.0000
  C   C737      1.0  0.99007  0.58140  0.91028  1.0000
  H   H580      1.0  0.48655  0.97165  0.89481  1.0000
  C   C738      1.0  0.98968  0.65449  0.69965  1.0000
  S   S93       1.0  0.48805  0.90109  0.84525  1.0000
  C   C739      1.0  0.12295  0.97181  0.75494  1.0000
  H   H581      1.0  0.46176  0.51301  0.64738  1.0000
  C   C740      1.0  0.09973  0.97820  0.74043  1.0000
  H   H582      1.0  0.83170  0.47643  0.09168  1.0000
  C   C741      1.0  0.95717  0.00053  0.07744  1.0000
  S   S94       1.0  0.52445  0.00387  0.12233  1.0000
  H   H583      1.0  0.95769  0.01759  0.00329  1.0000
  Fe  Fe48      1.0  0.52063  0.01045  0.15925  1.0000
  C   C742      1.0  0.98348  0.34468  0.11090  1.0000
  C   C743      1.0  0.89969  0.30389  0.23592  1.0000
  C   C744      1.0  0.93273  0.46148  0.12101  1.0000
  H   H584      1.0  0.75983  0.36536  0.98563  1.0000
  Fe  Fe49      1.0  0.90298  0.31988  0.14184  1.0000
  S   S95       1.0  0.92388  0.36153  0.14486  1.0000
  S   S96       1.0  0.92371  0.29113  0.11409  1.0000
  Fe  Fe50      1.0  0.86481  0.33350  0.18407  1.0000
  S   S97       1.0  0.88345  0.37528  0.18983  1.0000
  S   S98       1.0  0.82964  0.31929  0.20791  1.0000
  Fe  Fe51      1.0  0.87893  0.38171  0.15289  1.0000
  S   S99       1.0  0.85916  0.42513  0.14059  1.0000
  Fe  Fe52      1.0  0.92668  0.35108  0.18160  1.0000
  H   H585      1.0  0.55635  0.14544  0.99642  1.0000
  S   S100      1.0  0.85731  0.34130  0.14731  1.0000
  S   S101      1.0  0.90861  0.30807  0.17829  1.0000
  C   C745      1.0  0.78894  0.37127  0.16288  1.0000
  H   H586      1.0  0.50601  0.07311  0.98848  1.0000
  C   C746      1.0  0.77475  0.47092  0.22527  1.0000
  Fe  Fe53      1.0  0.88934  0.19631  0.01042  1.0000
  S   S102      1.0  0.93523  0.20039  0.99796  1.0000
  S   S103      1.0  0.86705  0.21649  0.04156  1.0000
  C   C747      1.0  0.88583  0.28070  0.00833  1.0000
  C   C748      1.0  0.55203  0.97991  0.05619  1.0000
  C   C749      1.0  0.55137  0.12368  0.00127  1.0000
  S   S104      1.0  0.89287  0.14784  0.00708  1.0000
  C   C750      1.0  0.85551  0.28109  0.01102  1.0000
  C   C751      1.0  0.97427  0.40326  0.25332  1.0000
  H   H587      1.0  0.88880  0.38422  0.23752  1.0000
  C   C752      1.0  0.94504  0.03394  0.99345  1.0000
  H   H588      1.0  0.80208  0.41299  0.24450  1.0000
  C   C753      1.0  0.78466  0.06851  0.99174  1.0000
  H   H589      1.0  0.87574  0.14733  0.06906  1.0000
  S   S105      1.0  0.74097  0.40900  0.26024  1.0000
  C   C754      1.0  0.53939  0.98351  0.26664  1.0000
  C   C755      1.0  0.64474  0.98821  0.07514  1.0000
  H   H590      1.0  0.83231  0.11832  0.00311  1.0000
  C   C756      1.0  0.55561  0.00939  0.05776  1.0000
  H   H591      1.0  0.54211  0.02198  0.06971  1.0000
  H   H592      1.0  0.79943  0.35564  0.17463  1.0000
  C   C757      1.0  0.95857  0.42263  0.17091  1.0000
  H   H593      1.0  0.94454  0.40178  0.22585  1.0000
  H   H594      1.0  0.79617  0.40746  0.18250  1.0000
  C   C758      1.0  0.80628  0.34541  0.22248  1.0000
  C   C759      1.0  0.81477  0.37255  0.22807  1.0000
  C   C760      1.0  0.76718  0.38499  0.24624  1.0000
  C   C761      1.0  0.75883  0.35803  0.24039  1.0000
  C   C762      1.0  0.77836  0.33824  0.22895  1.0000
  H   H595      1.0  0.83630  0.37828  0.22331  1.0000
  H   H596      1.0  0.73714  0.35230  0.24489  1.0000
  H   H597      1.0  0.77160  0.31739  0.22478  1.0000
  C   C763      1.0  0.90720  0.27100  0.09389  1.0000
  C   C764      1.0  0.87711  0.26843  0.09398  1.0000
  C   C765      1.0  0.86523  0.25166  0.07787  1.0000
  C   C766      1.0  0.88317  0.23745  0.06140  1.0000
  C   C767      1.0  0.91322  0.24019  0.06121  1.0000
  C   C768      1.0  0.92512  0.25680  0.07739  1.0000
  H   H598      1.0  0.86306  0.27913  0.10658  1.0000
  H   H599      1.0  0.84197  0.24965  0.07822  1.0000
  H   H600      1.0  0.92731  0.22937  0.04870  1.0000
  H   H601      1.0  0.94841  0.25859  0.07717  1.0000
  C   C769      1.0  0.82033  0.10436  0.99342  1.0000
  C   C770      1.0  0.56423  0.01351  0.23064  1.0000
  H   H602      1.0  0.50354  0.00906  0.20586  1.0000
  C   C771      1.0  0.53623  0.10464  0.09674  1.0000
  H   H603      1.0  0.81434  0.28390  0.99480  1.0000
  C   C772      1.0  0.77340  0.42125  0.15210  1.0000
  C   C773      1.0  0.55303  0.02858  0.24928  1.0000
  C   C774      1.0  0.54515  0.08815  0.11570  1.0000
  H   H604      1.0  0.86874  0.47623  0.24332  1.0000
  H   H605      1.0  0.81830  0.29038  0.30524  1.0000
  S   S106      1.0  0.60863  0.98557  0.11209  1.0000
  H   H606      1.0  0.75096  0.42697  0.12082  1.0000
  H   H607      1.0  0.77861  0.37770  0.29651  1.0000
  C   C775      1.0  0.80078  0.08642  0.00412  1.0000
  H   H608      1.0  0.96561  0.00661  0.09313  1.0000
  S   S107      1.0  0.97300  0.12007  0.00701  1.0000
  C   C776      1.0  0.67994  0.45992  0.16662  1.0000
  C   C777      1.0  0.79539  0.33301  0.30171  1.0000
  C   C778      1.0  0.79538  0.39219  0.24020  1.0000
  C   C779      1.0  0.80266  0.46949  0.11966  1.0000
  C   C780      1.0  0.98377  0.43647  0.16566  1.0000
  C   C781      1.0  0.90842  0.36616  0.30859  1.0000
  H   H609      1.0  0.55280  0.05198  0.24940  1.0000
  S   S108      1.0  0.51020  0.05515  0.17290  1.0000
  C   C782      1.0  0.78703  0.40084  0.16725  1.0000
  C   C783      1.0  0.88651  0.32420  0.25067  1.0000
  H   H610      1.0  0.94028  0.28249  0.22345  1.0000
  H   H611      1.0  0.94792  0.34216  0.27550  1.0000
  H   H612      1.0  0.95306  0.45503  0.11239  1.0000
  C   C784      1.0  0.93404  0.33139  0.26486  1.0000
  H   H613      1.0  0.91704  0.41911  0.11969  1.0000
  C   C785      1.0  0.89831  0.28424  0.98708  1.0000
  H   H614      1.0  0.89964  0.27680  0.02267  1.0000
  C   C786      1.0  0.76425  0.38196  0.12809  1.0000
  H   H615      1.0  0.88632  0.29354  0.22455  1.0000
  H   H616      1.0  0.98265  0.14392  0.10151  1.0000
  H   H617      1.0  0.79795  0.08662  0.02206  1.0000
  H   H618      1.0  0.88316  0.08106  0.99457  1.0000
  H   H619      1.0  0.86301  0.32943  0.25025  1.0000
  C   C787      1.0  0.87523  0.42383  0.28415  1.0000
  C   C788      1.0  0.88164  0.39934  0.27113  1.0000
  C   C789      1.0  0.94716  0.31124  0.24990  1.0000
  H   H620      1.0  0.57252  0.05104  0.12824  1.0000
  Fe  Fe54      1.0  0.75420  0.44153  0.28428  1.0000
  C   C790      1.0  0.56248  0.98364  0.22975  1.0000
  C   C791      1.0  0.80404  0.47606  0.22703  1.0000
  C   C792      1.0  0.91226  0.44117  0.12504  1.0000
  H   H621      1.0  0.53599  0.09371  0.13205  1.0000
  C   C793      1.0  0.56576  0.06413  0.11361  1.0000
  P   P27       1.0  0.88603  0.36389  0.28454  1.0000
  C   C794      1.0  0.85903  0.10794  0.05897  1.0000
  C   C795      1.0  0.88111  0.12597  0.06225  1.0000
  C   C796      1.0  0.90991  0.11708  0.05573  1.0000
  C   C797      1.0  0.91665  0.09032  0.04570  1.0000
  C   C798      1.0  0.89467  0.07188  0.04264  1.0000
  C   C799      1.0  0.86572  0.08098  0.04921  1.0000
  P   P28       1.0  0.90358  0.03804  0.02870  1.0000
  C   C800      1.0  0.92885  0.01331  0.04432  1.0000
  C   C801      1.0  0.87095  0.01949  0.02676  1.0000
  C   C802      1.0  0.85069  0.35230  0.29266  1.0000
  H   H622      1.0  0.97907  0.13043  0.06201  1.0000
  C   C803      1.0  0.52948  0.11097  0.99048  1.0000
  H   H623      1.0  0.86702  0.30714  0.29734  1.0000
  C   C804      1.0  0.82037  0.31323  0.30203  1.0000
  H   H624      1.0  0.81536  0.01008  0.99205  1.0000
  H   H625      1.0  0.92664  0.97844  0.02156  1.0000
  C   C805      1.0  0.85431  0.02161  0.00741  1.0000
  C   C806      1.0  0.97913  0.36690  0.22440  1.0000
  C   C807      1.0  0.93986  0.02102  0.06468  1.0000
  C   C808      1.0  0.91819  0.04734  0.00144  1.0000
  H   H626      1.0  0.84603  0.27728  0.02747  1.0000
  H   H627      1.0  0.82671  0.46615  0.17347  1.0000
  H   H628      1.0  0.50399  0.09186  0.30322  1.0000
  H   H629      1.0  0.52019  0.12324  0.09842  1.0000
  H   H630      1.0  0.56551  0.99928  0.30679  1.0000
  H   H631      1.0  0.83658  0.11524  0.06345  1.0000
  C   C809      1.0  0.72986  0.47054  0.15797  1.0000
  H   H632      1.0  0.92669  0.13171  0.05730  1.0000
  H   H633      1.0  0.93885  0.08439  0.03976  1.0000
  H   H634      1.0  0.84806  0.06782  0.04633  1.0000
  C   C810      1.0  0.93532  0.98484  0.03704  1.0000
  S   S109      1.0  0.79951  0.45486  0.28478  1.0000
  H   H635      1.0  0.80150  0.44702  0.11577  1.0000
  H   H636      1.0  0.64966  0.00867  0.08154  1.0000
  H   H637      1.0  0.57307  0.02515  0.21645  1.0000
  C   C811      1.0  0.81188  0.46811  0.18771  1.0000
  H   H638      1.0  0.67367  0.99107  0.04627  1.0000
  C   C812      1.0  0.84792  0.32281  0.29756  1.0000
  H   H639      1.0  0.82673  0.39478  0.28876  1.0000
  H   H640      1.0  0.93473  0.04256  0.07101  1.0000
  H   H641      1.0  0.71776  0.43007  0.17290  1.0000
  Fe  Fe55      1.0  0.93771  0.15234  0.99241  1.0000
  H   H642      1.0  0.95787  0.39994  0.16759  1.0000
  C   C813      1.0  0.93372  0.43822  0.18001  1.0000
  H   H643      1.0  0.53329  0.04582  0.01840  1.0000
  C   C814      1.0  0.87915  0.43046  0.23780  1.0000
  C   C815      1.0  0.76179  0.41157  0.13258  1.0000
  C   C816      1.0  0.86146  0.00336  0.04534  1.0000
  H   H644      1.0  0.88050  0.43295  0.21980  1.0000
  C   C817      1.0  0.54029  0.01371  0.26710  1.0000
  C   C818      1.0  0.88379  0.40281  0.24788  1.0000
  C   C819      1.0  0.82874  0.00764  0.00669  1.0000
  C   C820      1.0  0.77782  0.36182  0.14327  1.0000
  H   H645      1.0  0.91390  0.42771  0.18294  1.0000
  S   S110      1.0  0.68955  0.00994  0.98887  1.0000
  H   H646      1.0  0.52998  0.02601  0.28072  1.0000
  C   C821      1.0  0.49572  0.05528  0.20042  1.0000
  H   H647      1.0  0.77996  0.33886  0.13984  1.0000
  C   C822      1.0  0.93400  0.46763  0.18429  1.0000
  C   C823      1.0  0.49534  0.02946  0.21303  1.0000
  S   S111      1.0  0.75963  0.04690  0.00575  1.0000
  C   C824      1.0  0.66074  0.07127  0.01581  1.0000
  C   C825      1.0  0.67968  0.07050  0.03365  1.0000
  C   C826      1.0  0.66878  0.06742  0.05545  1.0000
  C   C827      1.0  0.63895  0.06505  0.05944  1.0000
  C   C828      1.0  0.61973  0.06554  0.04160  1.0000
  C   C829      1.0  0.63100  0.06844  0.01970  1.0000
  P   P29       1.0  0.58145  0.06024  0.04627  1.0000
  C   C830      1.0  0.56828  0.07259  0.07341  1.0000
  C   C831      1.0  0.56072  0.08010  0.02463  1.0000
  C   C832      1.0  0.56690  0.10836  0.01832  1.0000
  H   H648      1.0  0.92307  0.47502  0.28941  1.0000
  C   C833      1.0  0.96388  0.39156  0.23380  1.0000
  C   C834      1.0  0.83764  0.28495  0.99247  1.0000
  C   C835      1.0  0.53859  0.06751  0.01379  1.0000
  C   C836      1.0  0.54770  0.09693  0.07564  1.0000
  C   C837      1.0  0.87045  0.45138  0.27409  1.0000
  H   H649      1.0  0.75572  0.37460  0.11285  1.0000
  C   C838      1.0  0.90352  0.33770  0.26559  1.0000
  C   C839      1.0  0.57717  0.05641  0.09259  1.0000
  C   C840      1.0  0.57683  0.02209  0.04442  1.0000
  C   C841      1.0  0.59361  0.00503  0.02896  1.0000
  H   H650      1.0  0.96250  0.42212  0.26060  1.0000
  S   S112      1.0  0.96977  0.35160  0.19922  1.0000
  H   H651      1.0  0.93400  0.46776  0.24909  1.0000
  C   C842      1.0  0.83588  0.98943  0.04451  1.0000
  H   H652      1.0  0.66938  0.07342  0.99891  1.0000
  H   H653      1.0  0.70290  0.07192  0.03053  1.0000
  H   H654      1.0  0.68357  0.06648  0.06926  1.0000
  H   H655      1.0  0.63131  0.06240  0.07647  1.0000
  H   H656      1.0  0.61696  0.06811  0.00556  1.0000
  H   H657      1.0  0.58382  0.11847  0.02657  1.0000
  H   H658      1.0  0.66481  0.44512  0.17329  1.0000
  C   C843      1.0  0.70998  0.45143  0.16631  1.0000
  C   C844      1.0  0.76374  0.46532  0.20453  1.0000
  H   H659      1.0  0.76053  0.47140  0.23996  1.0000
  H   H660      1.0  0.54010  0.10975  0.06122  1.0000
  H   H661      1.0  0.79926  0.98154  0.02468  1.0000
  C   C845      1.0  0.88534  0.44972  0.13548  1.0000
  C   C846      1.0  0.93001  0.29752  0.23543  1.0000
  H   H662      1.0  0.59255  0.03734  0.09119  1.0000
  H   H663      1.0  0.61038  0.01400  0.01869  1.0000
  C   C847      1.0  0.87235  0.45472  0.25093  1.0000
  H   H664      1.0  0.86039  0.03446  0.99302  1.0000
  C   C848      1.0  0.90344  0.06970  0.98852  1.0000
  C   C849      1.0  0.93290  0.38210  0.30693  1.0000
  P   P30       1.0  0.76861  0.45936  0.15819  1.0000
  S   S113      1.0  0.56353  0.98548  0.16637  1.0000
  H   H665      1.0  0.93831  0.39314  0.29143  1.0000
  H   H666      1.0  0.80823  0.33962  0.97717  1.0000
  H   H667      1.0  0.77394  0.32560  0.30461  1.0000
  C   C850      1.0  0.82256  0.47470  0.20822  1.0000
  C   C851      1.0  0.78221  0.46449  0.18550  1.0000
  C   C852      1.0  0.52306  0.08293  0.99677  1.0000
  C   C853      1.0  0.79800  0.36240  0.29718  1.0000
  Fe  Fe56      1.0  0.73841  0.01148  0.98855  1.0000
  H   H668      1.0  0.97072  0.30682  0.24908  1.0000
  H   H669      1.0  0.86484  0.47011  0.28430  1.0000
  H   H670      1.0  0.92188  0.28274  0.98483  1.0000
  H   H671      1.0  0.87313  0.42145  0.30206  1.0000
  H   H672      1.0  0.87352  0.00196  0.06065  1.0000
  C   C854      1.0  0.82549  0.37204  0.29270  1.0000
  C   C855      1.0  0.81952  0.99161  0.02518  1.0000
  H   H673      1.0  0.74096  0.46165  0.20356  1.0000
  H   H674      1.0  0.97503  0.37822  0.08566  1.0000
  H   H675      1.0  0.97474  0.32807  0.10141  1.0000
  C   C856      1.0  0.98351  0.37297  0.10211  1.0000
  C   C857      1.0  0.98431  0.46572  0.17092  1.0000
  H   H676      1.0  0.51744  0.12289  0.97727  1.0000
  H   H677      1.0  0.95797  0.37138  0.35959  1.0000
  H   H678      1.0  0.78532  0.43136  0.53320  1.0000
  C   C858      1.0  0.49692  0.33407  0.60172  1.0000
  H   H679      1.0  0.91427  0.34372  0.36309  1.0000
  C   C859      1.0  0.91917  0.41961  0.59083  1.0000
  H   H680      1.0  0.73695  0.45277  0.54683  1.0000
  H   H681      1.0  0.54742  0.27796  0.58846  1.0000
  H   H682      1.0  0.56083  0.47262  0.38395  1.0000
  H   H683      1.0  0.92421  0.41152  0.57436  1.0000
  C   C860      1.0  0.52951  0.37850  0.50072  1.0000
  C   C861      1.0  0.54682  0.36342  0.48454  1.0000
  C   C862      1.0  0.53619  0.34003  0.47385  1.0000
  C   C863      1.0  0.81996  0.47802  0.56338  1.0000
  H   H684      1.0  0.89494  0.47394  0.39529  1.0000
  H   H685      1.0  0.67304  0.42002  0.63710  1.0000
  H   H686      1.0  0.56816  0.37005  0.48000  1.0000
  H   H687      1.0  0.54950  0.32870  0.46121  1.0000
  H   H688      1.0  0.52603  0.10217  0.55728  1.0000
  C   C864      1.0  0.52925  0.29592  0.54042  1.0000
  C   C865      1.0  0.50362  0.10224  0.55213  1.0000
  H   H689      1.0  0.53810  0.29730  0.33907  1.0000
  H   H690      1.0  0.50542  0.26418  0.40160  1.0000
  C   C866      1.0  0.51528  0.02815  0.62487  1.0000
  H   H691      1.0  0.55975  0.30302  0.51337  1.0000
  C   C867      1.0  0.82000  0.41880  0.55599  1.0000
  C   C868      1.0  0.52410  0.30494  0.40269  1.0000
  S   S114      1.0  0.68217  0.45394  0.52514  1.0000
  H   H692      1.0  0.57761  0.30501  0.61232  1.0000
  H   H693      1.0  0.90489  0.30450  0.56339  1.0000
  C   C869      1.0  0.50796  0.14994  0.41590  1.0000
  H   H694      1.0  0.74174  0.47627  0.50960  1.0000
  C   C870      1.0  0.94418  0.36981  0.34541  1.0000
  H   H695      1.0  0.81953  0.39587  0.55318  1.0000
  H   H696      1.0  0.50520  0.41904  0.46586  1.0000
  C   C871      1.0  0.49476  0.22942  0.58649  1.0000
  C   C872      1.0  0.49516  0.06310  0.33094  1.0000
  H   H697      1.0  0.51406  0.25940  0.36080  1.0000
  H   H698      1.0  0.88031  0.36681  0.62652  1.0000
  H   H699      1.0  0.79367  0.45016  0.37763  1.0000
  H   H700      1.0  0.53590  0.31368  0.54974  1.0000
  C   C873      1.0  0.52659  0.97838  0.31610  1.0000
  H   H701      1.0  0.50039  0.18405  0.59632  1.0000
  H   H702      1.0  0.73494  0.38406  0.37602  1.0000
  Fe  Fe57      1.0  0.57770  0.43515  0.49990  1.0000
  C   C874      1.0  0.74804  0.47803  0.49210  1.0000
  H   H703      1.0  0.93603  0.44658  0.34531  1.0000
  C   C875      1.0  0.83923  0.42821  0.57143  1.0000
  C   C876      1.0  0.91963  0.35420  0.34734  1.0000
  C   C877      1.0  0.77502  0.44040  0.38491  1.0000
  S   S115      1.0  0.54088  0.40940  0.51351  1.0000
  H   H704      1.0  0.57261  0.01677  0.34439  1.0000
  S   S116      1.0  0.56923  0.46477  0.46992  1.0000
  H   H705      1.0  0.50493  0.05014  0.62388  1.0000
  C   C878      1.0  0.50528  0.99891  0.42727  1.0000
  C   C879      1.0  0.72019  0.45880  0.55918  1.0000
  H   H706      1.0  0.56706  0.44493  0.33765  1.0000
  P   P31       1.0  0.86303  0.40183  0.58677  1.0000
  C   C880      1.0  0.85908  0.45174  0.40898  1.0000
  S   S117      1.0  0.49487  0.30371  0.46373  1.0000
  C   C881      1.0  0.80062  0.43885  0.54462  1.0000
  H   H707      1.0  0.91804  0.32144  0.52514  1.0000
  S   S118      1.0  0.62374  0.41977  0.48921  1.0000
  H   H708      1.0  0.52751  0.02734  0.59007  1.0000
  H   H709      1.0  0.95297  0.44786  0.63378  1.0000
  Fe  Fe58      1.0  0.61653  0.45186  0.46043  1.0000
  H   H710      1.0  0.77881  0.40624  0.36126  1.0000
  C   C882      1.0  0.76644  0.41555  0.37536  1.0000
  H   H711      1.0  0.96309  0.43083  0.59536  1.0000
  C   C883      1.0  0.83937  0.45803  0.57484  1.0000
  C   C884      1.0  0.90740  0.33664  0.53684  1.0000
  H   H712      1.0  0.88272  0.34048  0.33093  1.0000
  C   C885      1.0  0.49749  0.09029  0.32069  1.0000
  H   H713      1.0  0.88349  0.40814  0.54053  1.0000
  H   H714      1.0  0.51136  0.07137  0.42637  1.0000
  H   H715      1.0  0.50275  0.23647  0.50392  1.0000
  C   C886      1.0  0.53406  0.29955  0.35684  1.0000
  H   H716      1.0  0.90730  0.37332  0.51385  1.0000
  C   C887      1.0  0.77725  0.47202  0.48519  1.0000
  C   C888      1.0  0.53800  0.29795  0.59576  1.0000
  C   C889      1.0  0.55461  0.00400  0.34152  1.0000
  C   C890      1.0  0.91374  0.45635  0.34446  1.0000
  C   C891      1.0  0.90131  0.36584  0.53048  1.0000
  H   H717      1.0  0.67861  0.44025  0.35249  1.0000
  C   C892      1.0  0.65826  0.43809  0.38537  1.0000
  C   C893      1.0  0.89995  0.32709  0.55837  1.0000
  Fe  Fe59      1.0  0.79473  0.45017  0.32181  1.0000
  H   H718      1.0  0.79933  0.39832  0.59509  1.0000
  C   C894      1.0  0.50126  0.12445  0.40611  1.0000
  C   C895      1.0  0.94133  0.43046  0.60268  1.0000
  C   C896      1.0  0.50054  0.40412  0.45320  1.0000
  H   H719      1.0  0.51648  0.43398  0.34793  1.0000
  H   H720      1.0  0.81938  0.43496  0.42077  1.0000
  C   C897      1.0  0.89110  0.41878  0.60054  1.0000
  C   C898      1.0  0.52824  0.01533  0.60585  1.0000
  C   C899      1.0  0.79570  0.37234  0.62486  1.0000
  H   H721      1.0  0.52047  0.30652  0.42053  1.0000
  H   H722      1.0  0.51093  0.22675  0.57311  1.0000
  C   C900      1.0  0.69066  0.46096  0.55315  1.0000
  H   H723      1.0  0.86384  0.42987  0.62956  1.0000
  C   C901      1.0  0.93568  0.44021  0.62430  1.0000
  H   H724      1.0  0.70694  0.40538  0.40847  1.0000
  C   C902      1.0  0.84213  0.38355  0.60797  1.0000
  H   H725      1.0  0.65141  0.41669  0.38324  1.0000
  C   C903      1.0  0.65119  0.45248  0.40534  1.0000
  C   C904      1.0  0.48923  0.20517  0.59984  1.0000
  C   C905      1.0  0.81043  0.35687  0.64220  1.0000
  H   H726      1.0  0.87187  0.43086  0.41013  1.0000
  C   C906      1.0  0.50895  0.30857  0.59157  1.0000
  H   H727      1.0  0.72237  0.44801  0.42602  1.0000
  C   C907      1.0  0.50198  0.36930  0.50661  1.0000
  C   C908      1.0  0.49344  0.45620  0.41122  1.0000
  H   H728      1.0  0.55652  0.35068  0.62943  1.0000
  S   S119      1.0  0.83297  0.42885  0.34091  1.0000
  C   C909      1.0  0.67395  0.45125  0.36800  1.0000
  C   C910      1.0  0.70667  0.47152  0.59739  1.0000
  C   C911      1.0  0.51315  0.97993  0.35551  1.0000
  C   C912      1.0  0.88628  0.34667  0.57354  1.0000
  Fe  Fe60      1.0  0.63790  0.45736  0.50799  1.0000
  C   C913      1.0  0.54282  0.29002  0.51972  1.0000
  C   C914      1.0  0.53357  0.26834  0.50668  1.0000
  C   C915      1.0  0.52063  0.27812  0.36907  1.0000
  S   S120      1.0  0.62984  0.43543  0.42592  1.0000
  C   C916      1.0  0.95078  0.38376  0.32520  1.0000
  C   C917      1.0  0.73513  0.43937  0.41200  1.0000
  C   C918      1.0  0.50817  0.33164  0.47903  1.0000
  C   C919      1.0  0.88768  0.38548  0.54561  1.0000
  C   C920      1.0  0.72623  0.41489  0.40207  1.0000
  H   H729      1.0  0.51084  0.45196  0.39890  1.0000
  H   H730      1.0  0.79383  0.46589  0.49739  1.0000
  H   H731      1.0  0.52988  0.15658  0.41430  1.0000
  C   C921      1.0  0.84093  0.35463  0.64249  1.0000
  H   H732      1.0  0.54329  0.26458  0.49025  1.0000
  H   H733      1.0  0.89501  0.41541  0.34418  1.0000
  H   H734      1.0  0.88096  0.33878  0.59015  1.0000
  H   H735      1.0  0.96974  0.39597  0.32364  1.0000
  C   C922      1.0  0.51409  0.34924  0.61527  1.0000
  C   C923      1.0  0.51562  0.02534  0.43212  1.0000
  C   C924      1.0  0.66909  0.46834  0.56944  1.0000
  C   C925      1.0  0.49656  0.10739  0.52976  1.0000
  S   S121      1.0  0.75083  0.43267  0.32130  1.0000
  C   C926      1.0  0.81141  0.38573  0.60784  1.0000
  C   C927      1.0  0.53688  0.32701  0.39046  1.0000
  C   C928      1.0  0.54229  0.32386  0.36747  1.0000
  P   P32       1.0  0.54739  0.35832  0.40450  1.0000
  C   C929      1.0  0.51765  0.37338  0.42246  1.0000
  C   C930      1.0  0.57962  0.34797  0.42085  1.0000
  C   C931      1.0  0.59546  0.36928  0.42959  1.0000
  C   C932      1.0  0.61987  0.36142  0.44264  1.0000
  C   C933      1.0  0.62879  0.33221  0.44712  1.0000
  C   C934      1.0  0.61346  0.31078  0.43834  1.0000
  C   C935      1.0  0.58910  0.31856  0.42519  1.0000
  C   C936      1.0  0.52261  0.39425  0.43804  1.0000
  C   C937      1.0  0.49128  0.34607  0.49577  1.0000
  H   H736      1.0  0.49982  0.04373  0.32129  1.0000
  H   H737      1.0  0.75104  0.46246  0.58541  1.0000
  C   C938      1.0  0.51576  0.28078  0.39202  1.0000
  C   C939      1.0  0.55402  0.38636  0.38387  1.0000
  C   C940      1.0  0.53024  0.40147  0.37299  1.0000
  C   C941      1.0  0.53490  0.42257  0.35641  1.0000
  C   C942      1.0  0.56334  0.42868  0.35055  1.0000
  C   C943      1.0  0.58713  0.41363  0.36120  1.0000
  C   C944      1.0  0.58258  0.39232  0.37763  1.0000
  C   C945      1.0  0.88537  0.42985  0.62187  1.0000
  H   H738      1.0  0.53323  0.02584  0.44370  1.0000
  C   C946      1.0  0.87975  0.37598  0.56720  1.0000
  C   C947      1.0  0.85672  0.36794  0.62551  1.0000
  H   H739      1.0  0.55285  0.34005  0.35768  1.0000
  H   H740      1.0  0.58936  0.39206  0.42609  1.0000
  H   H741      1.0  0.63196  0.37811  0.44919  1.0000
  H   H742      1.0  0.64765  0.32625  0.45732  1.0000
  H   H743      1.0  0.62041  0.28809  0.44178  1.0000
  H   H744      1.0  0.57775  0.30142  0.41873  1.0000
  H   H745      1.0  0.54371  0.40233  0.43921  1.0000
  C   C948      1.0  0.89056  0.43873  0.34390  1.0000
  C   C949      1.0  0.87210  0.47599  0.40063  1.0000
  C   C950      1.0  0.74192  0.40292  0.38380  1.0000
  C   C951      1.0  0.75999  0.45208  0.40377  1.0000
  H   H746      1.0  0.50812  0.39662  0.37714  1.0000
  C   C952      1.0  0.90177  0.35237  0.32901  1.0000
  H   H747      1.0  0.77206  0.37459  0.62483  1.0000
  H   H748      1.0  0.60921  0.41831  0.35660  1.0000
  H   H749      1.0  0.60146  0.38049  0.38518  1.0000
  C   C953      1.0  0.86163  0.45123  0.34246  1.0000
  C   C954      1.0  0.72822  0.46421  0.58108  1.0000
  S   S122      1.0  0.80352  0.46236  0.62576  1.0000
  H   H750      1.0  0.51355  0.11137  0.51751  1.0000
  H   H751      1.0  0.50482  0.36903  0.62293  1.0000
  C   C955      1.0  0.50663  0.27973  0.54839  1.0000
  C   C956      1.0  0.49789  0.47296  0.42952  1.0000
  C   C957      1.0  0.51066  0.25261  0.51430  1.0000
  C   C958      1.0  0.55511  0.31317  0.60932  1.0000
  C   C959      1.0  0.53600  0.99685  0.35922  1.0000
  H   H752      1.0  0.51816  0.11166  0.39681  1.0000
  C   C960      1.0  0.80045  0.46847  0.54844  1.0000
  H   H753      1.0  0.80774  0.46861  0.45757  1.0000
  H   H754      1.0  0.85392  0.46597  0.58665  1.0000
  H   H755      1.0  0.71987  0.38889  0.63615  1.0000
  C   C961      1.0  0.78505  0.47356  0.46252  1.0000
  C   C962      1.0  0.54320  0.33887  0.61899  1.0000
  C   C963      1.0  0.90770  0.43998  0.63386  1.0000
  C   C964      1.0  0.54154  0.98690  0.60716  1.0000
  C   C965      1.0  0.55024  0.99441  0.32009  1.0000
  H   H756      1.0  0.49113  0.18728  0.43456  1.0000
  H   H757      1.0  0.64628  0.47002  0.56512  1.0000
  C   C966      1.0  0.50316  0.05121  0.42217  1.0000
  C   C967      1.0  0.48982  0.11544  0.33260  1.0000
  H   H758      1.0  0.53940  0.00422  0.37581  1.0000
  S   S123      1.0  0.59236  0.47018  0.52110  1.0000
  C   C968      1.0  0.82932  0.45417  0.41496  1.0000
  H   H759      1.0  0.49033  0.13658  0.32439  1.0000
  C   C969      1.0  0.49711  0.25844  0.53500  1.0000
  C   C970      1.0  0.67709  0.47339  0.59145  1.0000
  C   C971      1.0  0.48937  0.36434  0.42128  1.0000
  H   H760      1.0  0.51488  0.97892  0.43507  1.0000
  H   H761      1.0  0.57824  0.47568  0.42221  1.0000
  S   S124      1.0  0.71543  0.47772  0.62544  1.0000
  H   H762      1.0  0.63045  0.02490  0.97520  1.0000
  C   C972      1.0  0.68498  0.01764  0.86148  1.0000
  C   C973      1.0  0.90366  0.44740  0.85437  1.0000
  H   H763      1.0  0.86157  0.45450  0.71459  1.0000
  C   C974      1.0  0.98293  0.17711  0.89413  1.0000
  Fe  Fe61      1.0  0.93757  0.35348  0.78810  1.0000
  S   S125      1.0  0.90319  0.32263  0.78424  1.0000
  H   H764      1.0  0.50547  0.01532  0.87687  1.0000
  Fe  Fe62      1.0  0.90695  0.38110  0.82865  1.0000
  S   S126      1.0  0.86983  0.35326  0.82785  1.0000
  Fe  Fe63      1.0  0.90390  0.31634  0.82177  1.0000
  S   S127      1.0  0.89965  0.27234  0.83928  1.0000
  Fe  Fe64      1.0  0.87176  0.36190  0.79088  1.0000
  S   S128      1.0  0.82907  0.37312  0.77346  1.0000
  S   S129      1.0  0.94113  0.34361  0.82493  1.0000
  S   S130      1.0  0.90600  0.39327  0.79224  1.0000
  H   H765      1.0  0.96229  0.25336  0.84446  1.0000
  C   C975      1.0  0.86601  0.34838  0.89055  1.0000
  Fe  Fe65      1.0  0.69588  0.99517  0.95350  1.0000
  C   C976      1.0  0.72496  0.41797  0.68710  1.0000
  C   C977      1.0  0.50192  0.04364  0.76286  1.0000
  S   S131      1.0  0.92262  0.15749  0.95708  1.0000
  H   H766      1.0  0.58870  0.06048  0.96569  1.0000
  Fe  Fe66      1.0  0.91611  0.20538  0.96353  1.0000
  S   S132      1.0  0.93061  0.24238  0.94102  1.0000
  H   H767      1.0  0.82455  0.29188  0.89797  1.0000
  C   C978      1.0  0.81183  0.40321  0.71073  1.0000
  C   C979      1.0  0.71368  0.40140  0.65075  1.0000
  H   H768      1.0  0.70118  0.46786  0.80456  1.0000
  C   C980      1.0  0.80792  0.08645  0.95786  1.0000
  S   S133      1.0  0.74419  0.00049  0.95245  1.0000
  H   H769      1.0  0.77626  0.05481  0.95883  1.0000
  H   H770      1.0  0.81035  0.08661  0.93988  1.0000
  C   C981      1.0  0.83340  0.38283  0.74508  1.0000
  C   C982      1.0  0.86112  0.38152  0.73477  1.0000
  C   C983      1.0  0.86410  0.39080  0.71239  1.0000
  H   H771      1.0  0.88025  0.37352  0.74404  1.0000
  H   H772      1.0  0.88555  0.38981  0.70444  1.0000
  C   C984      1.0  0.90723  0.26446  0.86782  1.0000
  C   C985      1.0  0.90629  0.23595  0.87644  1.0000
  C   C986      1.0  0.91290  0.22888  0.89890  1.0000
  C   C987      1.0  0.92057  0.25030  0.91296  1.0000
  C   C988      1.0  0.92146  0.27877  0.90432  1.0000
  C   C989      1.0  0.91463  0.28584  0.88194  1.0000
  H   H773      1.0  0.90066  0.21920  0.86564  1.0000
  H   H774      1.0  0.91249  0.20681  0.90526  1.0000
  H   H775      1.0  0.92740  0.29549  0.91502  1.0000
  H   H776      1.0  0.91505  0.30786  0.87555  1.0000
  P   P33       1.0  0.68940  0.45971  0.71072  1.0000
  C   C990      1.0  0.94013  0.44521  0.75144  1.0000
  H   H777      1.0  0.85962  0.25378  0.91526  1.0000
  C   C991      1.0  0.74553  0.42072  0.76884  1.0000
  C   C992      1.0  0.95520  0.37169  0.72785  1.0000
  C   C993      1.0  0.95576  0.38387  0.70609  1.0000
  C   C994      1.0  0.80203  0.21035  0.94603  1.0000
  H   H778      1.0  0.93663  0.36068  0.73374  1.0000
  H   H779      1.0  0.93762  0.38209  0.69527  1.0000
  H   H780      1.0  0.61502  0.02986  0.89878  1.0000
  C   C995      1.0  0.90169  0.46128  0.83326  1.0000
  H   H781      1.0  0.70838  0.39805  0.77861  1.0000
  C   C996      1.0  0.52598  0.03693  0.74856  1.0000
  C   C997      1.0  0.76185  0.34841  0.97349  1.0000
  H   H782      1.0  0.68181  0.05798  0.79168  1.0000
  C   C998      1.0  0.89753  0.99626  0.95266  1.0000
  C   C999      1.0  0.88047  0.28853  0.96854  1.0000
  H   H783      1.0  0.54493  0.02374  0.75471  1.0000
  C   C1000     1.0  0.55834  0.99814  0.95576  1.0000
  H   H784      1.0  0.88317  0.37184  0.91675  1.0000
  H   H785      1.0  0.87917  0.03925  0.94260  1.0000
  H   H786      1.0  0.81999  0.17442  0.92641  1.0000
  C   C1001     1.0  0.59580  0.99778  0.71774  1.0000
  H   H787      1.0  0.85662  0.45215  0.78594  1.0000
  H   H788      1.0  0.78727  0.39205  0.74029  1.0000
  H   H789      1.0  0.74896  0.46779  0.72452  1.0000
  C   C1002     1.0  0.75666  0.44073  0.75378  1.0000
  H   H790      1.0  0.85233  0.34374  0.65644  1.0000
  H   H791      1.0  0.93297  0.42680  0.74316  1.0000
  H   H792      1.0  0.87566  0.36113  0.87735  1.0000
  C   C1003     1.0  0.98268  0.19991  0.90879  1.0000
  H   H793      1.0  0.67751  0.42013  0.74852  1.0000
  S   S134      1.0  0.66258  0.01478  0.92835  1.0000
  C   C1004     1.0  0.78859  0.06837  0.96856  1.0000
  Fe  Fe67      1.0  0.87730  0.15605  0.97238  1.0000
  C   C1005     1.0  0.74582  0.47789  0.80048  1.0000
  C   C1006     1.0  0.67187  0.01907  0.84067  1.0000
  C   C1007     1.0  0.76718  0.30485  0.94200  1.0000
  H   H794      1.0  0.50398  0.00440  0.70727  1.0000
  H   H795      1.0  0.79830  0.34725  0.65576  1.0000
  C   C1008     1.0  0.64722  0.99471  0.90771  1.0000
  H   H796      1.0  0.97490  0.19710  0.92587  1.0000
  H   H797      1.0  0.85629  0.20262  0.90645  1.0000
  S   S135      1.0  0.84680  0.12784  0.95565  1.0000
  S   S136      1.0  0.84394  0.41480  0.67285  1.0000
  H   H798      1.0  0.96487  0.35948  0.92146  1.0000
  H   H799      1.0  0.75347  0.38790  0.66806  1.0000
  C   C1009     1.0  0.83954  0.40232  0.70053  1.0000
  H   H800      1.0  0.84640  0.32093  0.86808  1.0000
  H   H801      1.0  0.76900  0.28836  0.92950  1.0000
  C   C1010     1.0  0.85000  0.28928  0.97112  1.0000
  H   H802      1.0  0.65543  0.03680  0.83708  1.0000
  H   H803      1.0  0.86206  0.34246  0.94706  1.0000
  C   C1011     1.0  0.70817  0.99667  0.76489  1.0000
  H   H804      1.0  0.97774  0.03295  0.96700  1.0000
  C   C1012     1.0  0.80355  0.23952  0.95086  1.0000
  H   H805      1.0  0.96998  0.41878  0.77216  1.0000
  C   C1013     1.0  0.52586  0.04809  0.72646  1.0000
  C   C1014     1.0  0.82073  0.19720  0.92978  1.0000
  C   C1015     1.0  0.83750  0.30905  0.90239  1.0000
  C   C1016     1.0  0.96113  0.44070  0.76793  1.0000
  C   C1017     1.0  0.67998  0.99778  0.82489  1.0000
  H   H806      1.0  0.50489  0.02281  0.65968  1.0000
  C   C1018     1.0  0.62396  0.00802  0.89510  1.0000
  H   H807      1.0  0.90453  0.44861  0.81841  1.0000
  C   C1019     1.0  0.87041  0.35428  0.91281  1.0000
  H   H808      1.0  0.82817  0.02622  0.94310  1.0000
  Fe  Fe68      1.0  0.81593  0.45494  0.66166  1.0000
  H   H809      1.0  0.75407  0.45858  0.80973  1.0000
  C   C1020     1.0  0.84586  0.00998  0.94746  1.0000
  C   C1021     1.0  0.84119  0.21309  0.91854  1.0000
  C   C1022     1.0  0.83047  0.44793  0.85312  1.0000
  H   H810      1.0  0.71906  0.07859  0.76714  1.0000
  S   S137      1.0  0.91026  0.40950  0.85804  1.0000
  C   C1023     1.0  0.73307  0.03799  0.75176  1.0000
  P   P34       1.0  0.66372  0.99972  0.79770  1.0000
  C   C1024     1.0  0.84289  0.24217  0.92346  1.0000
  C   C1025     1.0  0.70656  0.99526  0.86662  1.0000
  P   P35       1.0  0.82728  0.29262  0.94698  1.0000
  H   H811      1.0  0.57478  0.00178  0.66390  1.0000
  C   C1026     1.0  0.82357  0.25585  0.93921  1.0000
  C   C1027     1.0  0.80935  0.43468  0.81187  1.0000
  C   C1028     1.0  0.81620  0.41260  0.82777  1.0000
  C   C1029     1.0  0.82688  0.41918  0.84838  1.0000
  H   H812      1.0  0.61047  0.02030  0.68822  1.0000
  H   H813      1.0  0.81397  0.39027  0.82376  1.0000
  H   H814      1.0  0.83313  0.40194  0.86045  1.0000
  C   C1030     1.0  0.80874  0.39268  0.73277  1.0000
  C   C1031     1.0  0.94154  0.06450  0.95992  1.0000
  C   C1032     1.0  0.84266  0.31420  0.92481  1.0000
  C   C1033     1.0  0.89990  0.46398  0.87348  1.0000
  C   C1034     1.0  0.73714  0.34133  0.96257  1.0000
  C   C1035     1.0  0.71587  0.05576  0.76638  1.0000
  H   H815      1.0  0.75947  0.40998  0.78151  1.0000
  C   C1036     1.0  0.82371  0.10469  0.97017  1.0000
  S   S138      1.0  0.98011  0.35564  0.76832  1.0000
  H   H816      1.0  0.78706  0.19757  0.95534  1.0000
  C   C1037     1.0  0.59530  0.00571  0.69510  1.0000
  H   H817      1.0  0.77922  0.44535  0.75483  1.0000
  H   H818      1.0  0.91293  0.47685  0.73232  1.0000
  C   C1038     1.0  0.69849  0.43590  0.68771  1.0000
  C   C1039     1.0  0.61254  0.99345  0.87750  1.0000
  H   H819      1.0  0.59475  0.00397  0.86789  1.0000
  H   H820      1.0  0.94752  0.26447  0.80577  1.0000
  H   H821      1.0  0.67807  0.03357  0.87389  1.0000
  H   H822      1.0  0.74021  0.41759  0.70052  1.0000
  C   C1040     1.0  0.62944  0.02236  0.79725  1.0000
  C   C1041     1.0  0.62168  0.03979  0.77834  1.0000
  C   C1042     1.0  0.59419  0.05564  0.77743  1.0000
  C   C1043     1.0  0.57427  0.05411  0.79532  1.0000
  C   C1044     1.0  0.58168  0.03655  0.81405  1.0000
  C   C1045     1.0  0.60903  0.02047  0.81492  1.0000
  H   H823      1.0  0.89057  0.29041  0.95214  1.0000
  C   C1046     1.0  0.57486  0.99520  0.68134  1.0000
  C   C1047     1.0  0.51490  0.01239  0.64508  1.0000
  H   H824      1.0  0.54468  0.04317  0.71558  1.0000
  C   C1048     1.0  0.97608  0.31504  0.87739  1.0000
  H   H825      1.0  0.90119  0.45340  0.88980  1.0000
  C   C1049     1.0  0.61007  0.01737  0.97032  1.0000
  H   H826      1.0  0.90349  0.09540  0.95803  1.0000
  C   C1050     1.0  0.73983  0.31965  0.94675  1.0000
  C   C1051     1.0  0.96450  0.33850  0.89000  1.0000
  C   C1052     1.0  0.85860  0.33743  0.92990  1.0000
  H   H827      1.0  0.87964  0.43452  0.75105  1.0000
  H   H828      1.0  0.59616  0.41527  0.72010  1.0000
  H   H829      1.0  0.63649  0.04067  0.76407  1.0000
  H   H830      1.0  0.58795  0.06864  0.76267  1.0000
  H   H831      1.0  0.55272  0.06588  0.79438  1.0000
  H   H832      1.0  0.56575  0.03453  0.82752  1.0000
  H   H833      1.0  0.61394  0.00584  0.82903  1.0000
  H   H834      1.0  0.95091  0.07166  0.94419  1.0000
  S   S139      1.0  0.50236  0.03184  0.79118  1.0000
  C   C1053     1.0  0.97694  0.26394  0.83315  1.0000
  H   H835      1.0  0.74952  0.04706  0.74113  1.0000
  H   H836      1.0  0.79283  0.41144  0.70147  1.0000
  C   C1054     1.0  0.84946  0.32584  0.88535  1.0000
  C   C1055     1.0  0.69474  0.04406  0.78020  1.0000
  C   C1056     1.0  0.87466  0.01724  0.94710  1.0000
  C   C1057     1.0  0.67948  0.43594  0.66977  1.0000
  H   H837      1.0  0.91948  0.00265  0.95238  1.0000
  C   C1058     1.0  0.97139  0.46439  0.77816  1.0000
  C   C1059     1.0  0.69048  0.01453  0.77932  1.0000
  C   C1060     1.0  0.92890  0.47338  0.74532  1.0000
  H   H838      1.0  0.94755  0.35398  0.88315  1.0000
  C   C1061     1.0  0.71682  0.41382  0.76706  1.0000
  C   C1062     1.0  0.73941  0.45330  0.73657  1.0000
  H   H839      1.0  0.80226  0.42901  0.79566  1.0000
  H   H840      1.0  0.53826  0.99104  0.94979  1.0000
  H   H841      1.0  0.96770  0.31260  0.86102  1.0000
  H   H842      1.0  0.64543  0.98103  0.75486  1.0000
  C   C1063     1.0  0.79196  0.31139  0.95329  1.0000
  C   C1064     1.0  0.73256  0.40090  0.66866  1.0000
  C   C1065     1.0  0.86139  0.45112  0.75049  1.0000
  H   H843      1.0  0.61127  0.00624  0.72847  1.0000
  C   C1066     1.0  0.63671  0.43478  0.71588  1.0000
  C   C1067     1.0  0.85105  0.46217  0.72998  1.0000
  C   C1068     1.0  0.81263  0.46368  0.81654  1.0000
  C   C1069     1.0  0.72927  0.00845  0.75107  1.0000
  C   C1070     1.0  0.71062  0.44611  0.73442  1.0000
  H   H844      1.0  0.72074  0.31433  0.93813  1.0000
  H   H845      1.0  0.64873  0.41486  0.71042  1.0000
  H   H846      1.0  0.74285  0.99460  0.73994  1.0000
  C   C1071     1.0  0.69939  0.42644  0.74992  1.0000
  Fe  Fe69      1.0  0.52464  0.98736  0.80001  1.0000
  C   C1072     1.0  0.60694  0.43492  0.72141  1.0000
  C   C1073     1.0  0.65086  0.46015  0.71753  1.0000
  C   C1074     1.0  0.68710  0.41879  0.65137  1.0000
  H   H847      1.0  0.65929  0.45009  0.66955  1.0000
  C   C1075     1.0  0.97422  0.34156  0.91157  1.0000
  C   C1076     1.0  0.52740  0.98353  0.64640  1.0000
  S   S140      1.0  0.50139  0.07719  0.68993  1.0000
  C   C1077     1.0  0.91495  0.07801  0.96779  1.0000
  H   H848      1.0  0.54261  0.04345  0.95285  1.0000
  C   C1078     1.0  0.97913  0.37282  0.74158  1.0000
  H   H849      1.0  0.97551  0.15660  0.89992  1.0000
  H   H850      1.0  0.71612  0.99389  0.88300  1.0000
  H   H851      1.0  0.71593  0.35274  0.96628  1.0000
  C   C1079     1.0  0.78923  0.33366  0.96876  1.0000
  H   H852      1.0  0.83953  0.45290  0.86886  1.0000
  H   H853      1.0  0.97428  0.43996  0.83847  1.0000
  C   C1080     1.0  0.95657  0.04252  0.97276  1.0000
  H   H854      1.0  0.97943  0.29044  0.77966  1.0000
  C   C1081     1.0  0.82362  0.47013  0.83723  1.0000
  C   C1082     1.0  0.84785  0.46093  0.77031  1.0000
  C   C1083     1.0  0.59110  0.46034  0.72864  1.0000
  C   C1084     1.0  0.56067  0.02786  0.95751  1.0000
  H   H855      1.0  0.78965  0.24905  0.96406  1.0000
  S   S141      1.0  0.77180  0.47168  0.67528  1.0000
  H   H856      1.0  0.97634  0.39320  0.85869  1.0000
  H   H857      1.0  0.56803  0.46044  0.73291  1.0000
  C   C1085     1.0  0.50107  0.06464  0.71809  1.0000
  C   C1086     1.0  0.83980  0.98192  0.95388  1.0000
  C   C1087     1.0  0.58656  0.03747  0.96479  1.0000
  C   C1088     1.0  0.97983  0.39793  0.69807  1.0000
  C   C1089     1.0  0.96846  0.27023  0.81120  1.0000
  H   H858      1.0  0.90338  0.44730  0.65071  1.0000
  S   S142      1.0  0.98025  0.41113  0.67011  1.0000
  C   C1090     1.0  0.60784  0.98761  0.96870  1.0000
  C   C1091     1.0  0.98744  0.42175  0.83146  1.0000
  C   C1092     1.0  0.57594  0.97928  0.72660  1.0000
  C   C1093     1.0  0.98643  0.28479  0.79649  1.0000
  S   S143      1.0  0.86975  0.20449  0.97642  1.0000
  Fe  Fe70      1.0  0.53764  0.94692  0.17094  1.0000
  S   S144      1.0  0.54674  0.91709  0.20122  1.0000
  S   S145      1.0  0.54400  0.93479  0.13491  1.0000
  Fe  Fe71      1.0  0.77755  0.49969  0.28882  1.0000
  C   C1094     1.0  0.81029  0.52654  0.13046  1.0000
  S   S146      1.0  0.79785  0.53875  0.27398  1.0000
  H   H859      1.0  0.80418  0.65215  0.11815  1.0000
  C   C1095     1.0  0.81826  0.66901  0.12112  1.0000
  C   C1096     1.0  0.89185  0.63193  0.22387  1.0000
  Fe  Fe72      1.0  0.93194  0.55655  0.13947  1.0000
  S   S147      1.0  0.95382  0.59777  0.13765  1.0000
  H   H860      1.0  0.90953  0.52407  0.30318  1.0000
  Fe  Fe73      1.0  0.87840  0.58294  0.16447  1.0000
  S   S148      1.0  0.89603  0.62645  0.16483  1.0000
  S   S149      1.0  0.83200  0.57634  0.17560  1.0000
  Fe  Fe74      1.0  0.90958  0.61945  0.12887  1.0000
  S   S150      1.0  0.89506  0.65263  0.10145  1.0000
  Fe  Fe75      1.0  0.93875  0.60088  0.17368  1.0000
  S   S151      1.0  0.88885  0.57770  0.12801  1.0000
  S   S152      1.0  0.91994  0.55805  0.17600  1.0000
  S   S153      1.0  0.94830  0.79740  0.00287  1.0000
  Fe  Fe76      1.0  0.94688  0.74931  0.99932  1.0000
  S   S154      1.0  0.96652  0.71674  0.02540  1.0000
  C   C1097     1.0  0.95820  0.57695  0.29874  1.0000
  H   H861      1.0  0.96316  0.94114  0.00163  1.0000
  C   C1098     1.0  0.56440  0.91795  0.28627  1.0000
  H   H862      1.0  0.53655  0.96999  0.06724  1.0000
  H   H863      1.0  0.49394  0.91265  0.30424  1.0000
  C   C1099     1.0  0.91548  0.66924  0.08000  1.0000
  C   C1100     1.0  0.90046  0.68793  0.06431  1.0000
  C   C1101     1.0  0.91571  0.70218  0.04723  1.0000
  C   C1102     1.0  0.94622  0.69796  0.04575  1.0000
  C   C1103     1.0  0.96125  0.67909  0.06133  1.0000
  C   C1104     1.0  0.94598  0.66479  0.07840  1.0000
  H   H864      1.0  0.87688  0.69146  0.06542  1.0000
  H   H865      1.0  0.90398  0.71675  0.03543  1.0000
  H   H866      1.0  0.81312  0.80956  0.00828  1.0000
  H   H867      1.0  0.95779  0.65047  0.09035  1.0000
  C   C1105     1.0  0.80788  0.54223  0.24548  1.0000
  C   C1106     1.0  0.83742  0.54343  0.23921  1.0000
  C   C1107     1.0  0.84535  0.55262  0.21750  1.0000
  C   C1108     1.0  0.82370  0.56075  0.20195  1.0000
  C   C1109     1.0  0.79434  0.55802  0.20787  1.0000
  C   C1110     1.0  0.78643  0.54889  0.22956  1.0000
  H   H868      1.0  0.85410  0.53844  0.25142  1.0000
  H   H869      1.0  0.86802  0.55467  0.21308  1.0000
  H   H870      1.0  0.77751  0.56409  0.19588  1.0000
  H   H871      1.0  0.76360  0.54836  0.23426  1.0000
  H   H872      1.0  0.84946  0.72595  0.03237  1.0000
  H   H873      1.0  0.61859  0.91688  0.99397  1.0000
  H   H874      1.0  0.78880  0.73170  0.97905  1.0000
  H   H875      1.0  0.86657  0.84160  0.15084  1.0000
  C   C1111     1.0  0.63361  0.93461  0.05926  1.0000
  H   H876      1.0  0.89475  0.52006  0.14427  1.0000
  H   H877      1.0  0.54242  0.88619  0.24338  1.0000
  H   H878      1.0  0.81833  0.83755  0.16965  1.0000
  H   H879      1.0  0.60406  0.93223  0.08788  1.0000
  H   H880      1.0  0.78361  0.51921  0.15952  1.0000
  C   C1112     1.0  0.49810  0.87452  0.24675  1.0000
  C   C1113     1.0  0.52120  0.88763  0.23586  1.0000
  H   H881      1.0  0.84688  0.72572  0.09436  1.0000
  C   C1114     1.0  0.92507  0.51307  0.24006  1.0000
  C   C1115     1.0  0.79802  0.77293  0.99205  1.0000
  C   C1116     1.0  0.83483  0.73899  0.02134  1.0000
  H   H882      1.0  0.95954  0.50425  0.18274  1.0000
  H   H883      1.0  0.92939  0.51004  0.22245  1.0000
  H   H884      1.0  0.83823  0.52713  0.10113  1.0000
  C   C1117     1.0  0.92005  0.87955  0.01634  1.0000
  C   C1118     1.0  0.56909  0.96306  0.04094  1.0000
  H   H885      1.0  0.50167  0.86264  0.26236  1.0000
  H   H886      1.0  0.96363  0.74188  0.07719  1.0000
  H   H887      1.0  0.79798  0.78987  0.17278  1.0000
  C   C1119     1.0  0.65549  0.89418  0.97748  1.0000
  H   H888      1.0  0.49011  0.93486  0.25638  1.0000
  C   C1120     1.0  0.83250  0.76923  0.02224  1.0000
  C   C1121     1.0  0.91448  0.73629  0.17201  1.0000
  C   C1122     1.0  0.90905  0.72214  0.15238  1.0000
  C   C1123     1.0  0.92405  0.69485  0.14839  1.0000
  P   P36       1.0  0.88211  0.73778  0.13287  1.0000
  C   C1124     1.0  0.85688  0.71107  0.12818  1.0000
  C   C1125     1.0  0.83198  0.66958  0.14155  1.0000
  C   C1126     1.0  0.85109  0.69060  0.14514  1.0000
  C   C1127     1.0  0.89912  0.74944  0.10695  1.0000
  C   C1128     1.0  0.88326  0.76900  0.09229  1.0000
  C   C1129     1.0  0.89629  0.77859  0.07241  1.0000
  C   C1130     1.0  0.92530  0.76892  0.06709  1.0000
  C   C1131     1.0  0.94133  0.74983  0.08167  1.0000
  C   C1132     1.0  0.92831  0.73996  0.10144  1.0000
  C   C1133     1.0  0.68911  0.50664  0.15015  1.0000
  H   H889      1.0  0.49528  0.90256  0.14186  1.0000
  H   H890      1.0  0.95519  0.66058  0.16063  1.0000
  H   H891      1.0  0.90324  0.75727  0.17565  1.0000
  H   H892      1.0  0.92017  0.68350  0.13345  1.0000
  H   H893      1.0  0.82845  0.65314  0.15436  1.0000
  H   H894      1.0  0.86175  0.69043  0.16100  1.0000
  H   H895      1.0  0.86075  0.77673  0.09616  1.0000
  H   H896      1.0  0.88396  0.79337  0.06098  1.0000
  H   H897      1.0  0.93529  0.77571  0.05146  1.0000
  C   C1134     1.0  0.85767  0.82078  0.15220  1.0000
  S   S155      1.0  0.66979  0.93763  0.02224  1.0000
  S   S156      1.0  0.49428  0.97280  0.16639  1.0000
  H   H898      1.0  0.52109  0.85437  0.15124  1.0000
  C   C1135     1.0  0.65317  0.95119  0.04728  1.0000
  C   C1136     1.0  0.82387  0.51464  0.11131  1.0000
  H   H899      1.0  0.56722  0.93998  0.04034  1.0000
  C   C1137     1.0  0.89976  0.49831  0.13857  1.0000
  P   P37       1.0  0.52116  0.96461  0.28888  1.0000
  C   C1138     1.0  0.83460  0.76706  0.15559  1.0000
  C   C1139     1.0  0.91351  0.52126  0.28549  1.0000
  H   H900      1.0  0.96543  0.65968  0.29378  1.0000
  C   C1140     1.0  0.91265  0.92158  0.99119  1.0000
  C   C1141     1.0  0.49755  0.85796  0.15346  1.0000
  H   H901      1.0  0.82527  0.74650  0.15713  1.0000
  S   S157      1.0  0.74706  0.96531  0.00165  1.0000
  C   C1142     1.0  0.83052  0.81850  0.16281  1.0000
  C   C1143     1.0  0.86164  0.63407  0.22099  1.0000
  H   H902      1.0  0.60334  0.96247  0.01573  1.0000
  C   C1144     1.0  0.84260  0.71061  0.10783  1.0000
  H   H903      1.0  0.89393  0.88094  0.04661  1.0000
  C   C1145     1.0  0.57492  0.88864  0.28838  1.0000
  C   C1146     1.0  0.93532  0.59561  0.28973  1.0000
  H   H904      1.0  0.54730  0.94591  0.24588  1.0000
  P   P38       1.0  0.90246  0.58141  0.28081  1.0000
  H   H905      1.0  0.73391  0.51340  0.14332  1.0000
  H   H906      1.0  0.91537  0.55890  0.23584  1.0000
  C   C1147     1.0  0.94892  0.69579  0.18334  1.0000
  H   H907      1.0  0.54599  0.86327  0.01070  1.0000
  S   S158      1.0  0.96893  0.61615  0.19932  1.0000
  C   C1148     1.0  0.75847  0.82606  0.98742  1.0000
  C   C1149     1.0  0.89965  0.89265  0.03147  1.0000
  H   H908      1.0  0.96404  0.55700  0.21888  1.0000
  C   C1150     1.0  0.85577  0.60637  0.25547  1.0000
  C   C1151     1.0  0.92762  0.48935  0.25504  1.0000
  C   C1152     1.0  0.88616  0.60371  0.25830  1.0000
  C   C1153     1.0  0.51661  0.90625  0.29969  1.0000
  H   H909      1.0  0.90600  0.64139  0.21151  1.0000
  H   H910      1.0  0.94114  0.72468  0.11206  1.0000
  S   S159      1.0  0.90048  0.75362  0.98816  1.0000
  H   H911      1.0  0.96546  0.61870  0.99892  1.0000
  H   H912      1.0  0.74779  0.80005  0.01659  1.0000
  C   C1154     1.0  0.54968  0.96878  0.24748  1.0000
  C   C1155     1.0  0.86179  0.76923  0.14472  1.0000
  H   H913      1.0  0.81329  0.68871  0.08832  1.0000
  C   C1156     1.0  0.96339  0.97220  0.07009  1.0000
  C   C1157     1.0  0.81904  0.79164  0.16455  1.0000
  C   C1158     1.0  0.92134  0.49341  0.27770  1.0000
  S   S160      1.0  0.86920  0.83275  0.00621  1.0000
  C   C1159     1.0  0.93432  0.72309  0.18743  1.0000
  H   H914      1.0  0.79398  0.91486  0.99788  1.0000
  C   C1160     1.0  0.95256  0.96438  0.04984  1.0000
  C   C1161     1.0  0.90411  0.61653  0.24226  1.0000
  H   H915      1.0  0.93014  0.85782  0.01983  1.0000
  S   S161      1.0  0.73185  0.48706  0.28594  1.0000
  H   H916      1.0  0.98487  0.67575  0.06032  1.0000
  C   C1162     1.0  0.94394  0.68181  0.16375  1.0000
  H   H917      1.0  0.95671  0.55379  0.30036  1.0000
  C   C1163     1.0  0.98745  0.59482  0.22072  1.0000
  H   H918      1.0  0.84139  0.59591  0.26705  1.0000
  C   C1164     1.0  0.82782  0.87933  0.00138  1.0000
  C   C1165     1.0  0.91127  0.54527  0.27059  1.0000
  H   H919      1.0  0.49271  0.81434  0.16537  1.0000
  C   C1166     1.0  0.55633  0.86817  0.29614  1.0000
  C   C1167     1.0  0.84363  0.62133  0.23680  1.0000
  C   C1168     1.0  0.88611  0.92042  0.02674  1.0000
  H   H920      1.0  0.81232  0.48134  0.24291  1.0000
  C   C1169     1.0  0.51703  0.90218  0.21512  1.0000
  C   C1170     1.0  0.87332  0.79624  0.14325  1.0000
  C   C1171     1.0  0.52729  0.87704  0.30204  1.0000
  C   C1172     1.0  0.95940  0.48132  0.17990  1.0000
  C   C1173     1.0  0.58952  0.97572  0.02710  1.0000
  H   H921      1.0  0.85224  0.64492  0.20623  1.0000
  C   C1174     1.0  0.84745  0.85908  0.99038  1.0000
  C   C1175     1.0  0.80051  0.74251  0.99118  1.0000
  C   C1176     1.0  0.81416  0.78612  0.00768  1.0000
  H   H922      1.0  0.62934  0.91372  0.05324  1.0000
  H   H923      1.0  0.96398  0.68525  0.19537  1.0000
  H   H924      1.0  0.85313  0.54721  0.29037  1.0000
  H   H925      1.0  0.82679  0.87913  0.01941  1.0000
  Fe  Fe77      1.0  0.90319  0.80183  0.98883  1.0000
  H   H926      1.0  0.82032  0.62207  0.23419  1.0000
  C   C1177     1.0  0.82339  0.68963  0.10433  1.0000
  H   H927      1.0  0.92771  0.61381  0.24349  1.0000
  C   C1178     1.0  0.91704  0.54092  0.24779  1.0000
  C   C1179     1.0  0.89270  0.93496  0.00675  1.0000
  S   S162      1.0  0.95248  0.51541  0.12460  1.0000
  C   C1180     1.0  0.52295  0.90498  0.01730  1.0000
  C   C1181     1.0  0.61913  0.94509  0.07883  1.0000
  C   C1182     1.0  0.79296  0.50995  0.14426  1.0000
  H   H928      1.0  0.89439  0.79833  0.13512  1.0000
  H   H929      1.0  0.92015  0.64053  0.28215  1.0000
  H   H930      1.0  0.81408  0.54828  0.13509  1.0000
  C   C1183     1.0  0.93783  0.62562  0.28846  1.0000
  H   H931      1.0  0.50368  0.94903  0.01996  1.0000
  H   H932      1.0  0.93821  0.73389  0.20265  1.0000
  C   C1184     1.0  0.53636  0.94503  0.99349  1.0000
  H   H933      1.0  0.95732  0.94239  0.04415  1.0000
  H   H934      1.0  0.68106  0.52808  0.14397  1.0000
  C   C1185     1.0  0.73211  0.84483  0.02047  1.0000
  H   H935      1.0  0.87006  0.93043  0.03836  1.0000
  C   C1186     1.0  0.98067  0.56688  0.22748  1.0000
  C   C1187     1.0  0.48962  0.90364  0.20544  1.0000
  C   C1188     1.0  0.56011  0.89662  0.98821  1.0000
  C   C1189     1.0  0.54327  0.88610  0.00587  1.0000
  C   C1190     1.0  0.95704  0.62791  0.98328  1.0000
  C   C1191     1.0  0.95183  0.65803  0.98049  1.0000
  C   C1192     1.0  0.53497  0.92685  0.29138  1.0000
  H   H936      1.0  0.56435  0.84542  0.29746  1.0000
  H   H937      1.0  0.94203  0.88302  0.98458  1.0000
  C   C1193     1.0  0.62834  0.91070  0.97798  1.0000
  C   C1194     1.0  0.92665  0.49001  0.12814  1.0000
  C   C1195     1.0  0.80919  0.89961  0.98920  1.0000
  C   C1196     1.0  0.81883  0.72564  0.00582  1.0000
  C   C1197     1.0  0.74631  0.82157  0.00886  1.0000
  H   H938      1.0  0.66639  0.88797  0.99294  1.0000
  Fe  Fe78      1.0  0.50195  0.96373  0.13010  1.0000
  Fe  Fe79      1.0  0.69859  0.96305  0.99895  1.0000
  H   H939      1.0  0.51003  0.89686  0.03109  1.0000
  C   C1198     1.0  0.73004  0.87278  0.01085  1.0000
  H   H940      1.0  0.95606  0.67207  0.99393  1.0000
  C   C1199     1.0  0.51936  0.93438  0.01101  1.0000
  H   H941      1.0  0.59741  0.88178  0.28375  1.0000
  H   H942      1.0  0.74130  0.89922  0.98242  1.0000
  H   H943      1.0  0.88197  0.95647  0.00348  1.0000
  H   H944      1.0  0.97677  0.95634  0.08001  1.0000
  H   H945      1.0  0.57915  0.93356  0.28043  1.0000
  H   H946      1.0  0.84553  0.77973  0.03374  1.0000
  C   C1200     1.0  0.74226  0.87746  0.98968  1.0000
  C   C1201     1.0  0.96335  0.63661  0.29525  1.0000
  C   C1202     1.0  0.92647  0.89384  0.99623  1.0000
  H   H947      1.0  0.71924  0.89092  0.01988  1.0000
  H   H948      1.0  0.98181  0.48427  0.22380  1.0000
  C   C1203     1.0  0.55713  0.92628  0.98208  1.0000
  H   H949      1.0  0.72285  0.84130  0.03701  1.0000
  C   C1204     1.0  0.98348  0.58808  0.30578  1.0000
  H   H950      1.0  0.71302  0.79160  0.98275  1.0000
  C   C1205     1.0  0.82006  0.48614  0.10592  1.0000
  H   H951      1.0  0.51280  0.86122  0.30799  1.0000
  C   C1206     1.0  0.75653  0.85431  0.97802  1.0000
  H   H952      1.0  0.82110  0.70221  0.00489  1.0000
  H   H953      1.0  0.57547  0.88159  0.97933  1.0000
  H   H954      1.0  0.53337  0.96791  0.98916  1.0000
  H   H955      1.0  0.57021  0.97202  0.21501  1.0000
  H   H956      1.0  0.64623  0.49414  0.15891  1.0000
  H   H957      1.0  0.85826  0.48536  0.14970  1.0000
  C   C1207     1.0  0.71919  0.49821  0.14984  1.0000
  S   S163      1.0  0.98623  0.48760  0.29556  1.0000
  C   C1208     1.0  0.97165  0.95196  0.98700  1.0000
  C   C1209     1.0  0.78885  0.48128  0.13892  1.0000
  C   C1210     1.0  0.87684  0.58026  0.30413  1.0000
  C   C1211     1.0  0.85470  0.56148  0.30410  1.0000
  C   C1212     1.0  0.62470  0.97197  0.08687  1.0000
  C   C1213     1.0  0.66950  0.48753  0.15855  1.0000
  Fe  Fe80      1.0  0.56608  0.97584  0.12983  1.0000
  H   H958      1.0  0.91427  0.47994  0.19032  1.0000
  H   H959      1.0  0.84512  0.47910  0.20929  1.0000
  C   C1214     1.0  0.98624  0.61780  0.30380  1.0000
  C   C1215     1.0  0.65859  0.97814  0.05526  1.0000
  C   C1216     1.0  0.87904  0.47841  0.14190  1.0000
  H   H960      1.0  0.82835  0.97743  0.05897  1.0000
  C   C1217     1.0  0.59285  0.54259  0.40230  1.0000
  H   H961      1.0  0.78494  0.48405  0.54013  1.0000
  S   S164      1.0  0.84395  0.52820  0.60232  1.0000
  H   H962      1.0  0.66023  0.47895  0.60392  1.0000
  C   C1218     1.0  0.66686  0.60541  0.35147  1.0000
  C   C1219     1.0  0.63531  0.61634  0.38376  1.0000
  H   H963      1.0  0.82065  0.57790  0.35369  1.0000
  S   S165      1.0  0.77613  0.49606  0.32623  1.0000
  H   H964      1.0  0.89573  0.61256  0.32304  1.0000
  Fe  Fe81      1.0  0.58684  0.49879  0.49020  1.0000
  C   C1220     1.0  0.75653  0.51651  0.40526  1.0000
  S   S166      1.0  0.56703  0.54481  0.49657  1.0000
  C   C1221     1.0  0.62034  0.56619  0.45549  1.0000
  H   H965      1.0  0.54698  0.58601  0.39908  1.0000
  C   C1222     1.0  0.59071  0.51911  0.41743  1.0000
  H   H966      1.0  0.62119  0.76366  0.43433  1.0000
  H   H967      1.0  0.58873  0.79857  0.45640  1.0000
  H   H968      1.0  0.87122  0.63798  0.61394  1.0000
  H   H969      1.0  0.76058  0.54088  0.43504  1.0000
  H   H970      1.0  0.70397  0.49013  0.48183  1.0000
  C   C1223     1.0  0.90785  0.61249  0.62917  1.0000
  C   C1224     1.0  0.56530  0.64525  0.43924  1.0000
  H   H971      1.0  0.50838  0.62298  0.41156  1.0000
  H   H972      1.0  0.64345  0.54368  0.37441  1.0000
  C   C1225     1.0  0.65295  0.62559  0.36606  1.0000
  C   C1226     1.0  0.72667  0.48603  0.47639  1.0000
  H   H973      1.0  0.62829  0.56057  0.49063  1.0000
  C   C1227     1.0  0.55569  0.75134  0.41310  1.0000
  C   C1228     1.0  0.53686  0.64471  0.43176  1.0000
  H   H974      1.0  0.97237  0.50143  0.56181  1.0000
  C   C1229     1.0  0.52704  0.55884  0.46294  1.0000
  H   H975      1.0  0.53539  0.80351  0.45084  1.0000
  S   S167      1.0  0.93594  0.50934  0.34664  1.0000
  H   H976      1.0  0.83373  0.49130  0.34150  1.0000
  H   H977      1.0  0.51944  0.81106  0.56053  1.0000
  C   C1230     1.0  0.89781  0.51303  0.62127  1.0000
  H   H978      1.0  0.51227  0.87080  0.38616  1.0000
  C   C1231     1.0  0.81225  0.48088  0.41236  1.0000
  H   H979      1.0  0.88640  0.50176  0.63429  1.0000
  H   H980      1.0  0.68290  0.51459  0.39265  1.0000
  C   C1232     1.0  0.66329  0.57596  0.35463  1.0000
  C   C1233     1.0  0.53715  0.77097  0.42560  1.0000
  C   C1234     1.0  0.52474  0.59044  0.49436  1.0000
  C   C1235     1.0  0.53755  0.56570  0.48360  1.0000
  H   H981      1.0  0.54698  0.73806  0.40086  1.0000
  H   H982      1.0  0.53299  0.59603  0.51022  1.0000
  H   H983      1.0  0.53697  0.54003  0.45438  1.0000
  C   C1236     1.0  0.73360  0.56977  0.38621  1.0000
  H   H984      1.0  0.87440  0.52227  0.34404  1.0000
  H   H985      1.0  0.80477  0.57915  0.61803  1.0000
  H   H986      1.0  0.71753  0.49410  0.44178  1.0000
  H   H987      1.0  0.81720  0.54645  0.32133  1.0000
  H   H988      1.0  0.51946  0.66017  0.43785  1.0000
  C   C1237     1.0  0.50448  0.50097  0.52897  1.0000
  P   P39       1.0  0.60953  0.57443  0.41017  1.0000
  C   C1238     1.0  0.64572  0.56666  0.37228  1.0000
  C   C1239     1.0  0.50066  0.50813  0.50639  1.0000
  C   C1240     1.0  0.92752  0.54194  0.58745  1.0000
  C   C1241     1.0  0.89712  0.54186  0.58695  1.0000
  C   C1242     1.0  0.88216  0.52738  0.60380  1.0000
  H   H989      1.0  0.93887  0.55316  0.57431  1.0000
  H   H990      1.0  0.88514  0.55306  0.57346  1.0000
  C   C1243     1.0  0.63809  0.56060  0.47397  1.0000
  H   H991      1.0  0.49597  0.57150  0.43719  1.0000
  H   H992      1.0  0.49900  0.97374  0.36916  1.0000
  C   C1244     1.0  0.92841  0.51328  0.62186  1.0000
  C   C1245     1.0  0.63126  0.58681  0.38684  1.0000
  H   H993      1.0  0.73104  0.54615  0.35605  1.0000
  H   H994      1.0  0.58370  0.55877  0.36868  1.0000
  C   C1246     1.0  0.53062  0.62363  0.41695  1.0000
  H   H995      1.0  0.94676  0.62007  0.57120  1.0000
  C   C1247     1.0  0.73718  0.54497  0.37340  1.0000
  C   C1248     1.0  0.68065  0.55357  0.44949  1.0000
  C   C1249     1.0  0.58237  0.54089  0.38063  1.0000
  H   H996      1.0  0.49042  0.94184  0.56919  1.0000
  C   C1250     1.0  0.57949  0.78538  0.44432  1.0000
  C   C1251     1.0  0.66823  0.55419  0.47099  1.0000
  C   C1252     1.0  0.63267  0.56597  0.43383  1.0000
  H   H997      1.0  0.65550  0.49114  0.42344  1.0000
  C   C1253     1.0  0.74190  0.56814  0.40847  1.0000
  H   H998      1.0  0.60008  0.73357  0.40658  1.0000
  H   H999      1.0  0.57001  0.66138  0.45096  1.0000
  C   C1254     1.0  0.83431  0.56094  0.32175  1.0000
  C   C1255     1.0  0.54156  0.97118  0.62745  1.0000
  C   C1256     1.0  0.58744  0.62444  0.43215  1.0000
  C   C1257     1.0  0.50382  0.57670  0.45326  1.0000
  C   C1258     1.0  0.58121  0.60263  0.41774  1.0000
  C   C1259     1.0  0.58588  0.74873  0.41628  1.0000
  H   H1000     1.0  0.86027  0.61076  0.35446  1.0000
  H   H1001     1.0  0.49174  0.62704  0.49332  1.0000
  H   H1002     1.0  0.50607  0.92474  0.64063  1.0000
  H   H1003     1.0  0.52678  0.82808  0.41029  1.0000
  H   H1004     1.0  0.94044  0.50250  0.63549  1.0000
  H   H1005     1.0  0.89586  0.64230  0.57711  1.0000
  S   S168      1.0  0.77573  0.52713  0.64106  1.0000
  Fe  Fe82      1.0  0.76061  0.48267  0.63926  1.0000
  C   C1260     1.0  0.87869  0.59810  0.32243  1.0000
  C   C1261     1.0  0.75359  0.54167  0.41793  1.0000
  H   H1006     1.0  0.68183  0.54931  0.48537  1.0000
  H   H1007     1.0  0.65580  0.64842  0.36361  1.0000
  C   C1262     1.0  0.67608  0.49320  0.39061  1.0000
  H   H1008     1.0  0.72459  0.59021  0.37878  1.0000
  S   S169      1.0  0.98135  0.52889  0.60475  1.0000
  H   H1009     1.0  0.73951  0.58744  0.41834  1.0000
  C   C1263     1.0  0.74849  0.51840  0.38290  1.0000
  C   C1264     1.0  0.85590  0.48143  0.34220  1.0000
  H   H1010     1.0  0.59694  0.57057  0.45817  1.0000
  C   C1265     1.0  0.49784  0.82086  0.55631  1.0000
  C   C1266     1.0  0.50848  0.97073  0.33407  1.0000
  H   H1011     1.0  0.50042  0.80590  0.52267  1.0000
  Fe  Fe83      1.0  0.73223  0.47921  0.32328  1.0000
  H   H1012     1.0  0.97279  0.59322  0.60227  1.0000
  Fe  Fe84      1.0  0.81953  0.50610  0.62987  1.0000
  H   H1013     1.0  0.56334  0.51439  0.35717  1.0000
  H   H1014     1.0  0.51468  0.49697  0.49395  1.0000
  H   H1015     1.0  0.49631  0.64329  0.53493  1.0000
  C   C1267     1.0  0.94326  0.52767  0.60486  1.0000
  H   H1016     1.0  0.55246  0.94941  0.62819  1.0000
  C   C1268     1.0  0.82564  0.50525  0.40418  1.0000
  C   C1269     1.0  0.49794  0.85364  0.38841  1.0000
  H   H1017     1.0  0.81969  0.50098  0.56645  1.0000
  H   H1018     1.0  0.67415  0.56018  0.34340  1.0000
  C   C1270     1.0  0.95076  0.60338  0.60494  1.0000
  C   C1271     1.0  0.93604  0.61841  0.58741  1.0000
  C   C1272     1.0  0.90736  0.63081  0.59074  1.0000
  H   H1019     1.0  0.68043  0.61250  0.33770  1.0000
  C   C1273     1.0  0.93675  0.60032  0.62572  1.0000
  C   C1274     1.0  0.89338  0.62808  0.61158  1.0000
  C   C1275     1.0  0.59778  0.76570  0.43190  1.0000
  S   S170      1.0  0.63350  0.48831  0.47825  1.0000
  H   H1020     1.0  0.86558  0.52132  0.39143  1.0000
  C   C1276     1.0  0.83627  0.57869  0.33991  1.0000
  H   H1021     1.0  0.49375  0.76081  0.37428  1.0000
  C   C1277     1.0  0.50132  0.60800  0.48486  1.0000
  H   H1022     1.0  0.50049  0.53781  0.62711  1.0000
  H   H1023     1.0  0.94843  0.58798  0.63883  1.0000
  C   C1278     1.0  0.85854  0.59719  0.34030  1.0000
  H   H1024     1.0  0.62487  0.63227  0.39492  1.0000
  H   H1025     1.0  0.85690  0.58527  0.62132  1.0000
  C   C1279     1.0  0.66061  0.47994  0.40809  1.0000
  H   H1026     1.0  0.60927  0.62498  0.43838  1.0000
  C   C1280     1.0  0.87892  0.49898  0.34364  1.0000
  C   C1281     1.0  0.85546  0.50276  0.39841  1.0000
  C   C1282     1.0  0.57893  0.49413  0.41077  1.0000
  H   H1027     1.0  0.70396  0.54841  0.44726  1.0000
  S   S171      1.0  0.69690  0.49859  0.34743  1.0000
  H   H1028     1.0  0.67310  0.55874  0.41445  1.0000
  C   C1283     1.0  0.66300  0.55943  0.43094  1.0000
  C   C1284     1.0  0.57068  0.51582  0.37406  1.0000
  H   H1029     1.0  0.59864  0.51964  0.43421  1.0000
  C   C1285     1.0  0.55262  0.60257  0.41001  1.0000
  H   H1030     1.0  0.81311  0.52601  0.40157  1.0000
  H   H1031     1.0  0.55152  0.97692  0.59241  1.0000
  P   P40       1.0  0.49811  0.77458  0.42163  1.0000
  H   H1032     1.0  0.51431  0.87205  0.63605  1.0000
  C   C1286     1.0  0.81232  0.58843  0.63293  1.0000
  H   H1033     1.0  0.51861  0.48192  0.43128  1.0000
  C   C1287     1.0  0.50604  0.82931  0.40212  1.0000
  H   H1034     1.0  0.51408  0.75338  0.46689  1.0000
  C   C1288     1.0  0.54930  0.78807  0.44117  1.0000
  H   H1035     1.0  0.96487  0.51303  0.52163  1.0000
  H   H1036     1.0  0.52121  0.48396  0.53386  1.0000
  H   H1037     1.0  0.89771  0.67026  0.64127  1.0000
  C   C1289     1.0  0.84195  0.59215  0.63480  1.0000
  H   H1038     1.0  0.49244  0.55749  0.58883  1.0000
  C   C1290     1.0  0.49087  0.60133  0.46421  1.0000
  P   P41       1.0  0.77301  0.48277  0.41713  1.0000
  C   C1291     1.0  0.90784  0.48655  0.34455  1.0000
  C   C1292     1.0  0.98584  0.50295  0.52710  1.0000
  H   H1039     1.0  0.49080  0.95741  0.33149  1.0000
  C   C1293     1.0  0.73445  0.48800  0.45375  1.0000
  H   H1040     1.0  0.75093  0.49938  0.37274  1.0000
  Fe  Fe85      1.0  0.97962  0.49171  0.33252  1.0000
  C   C1294     1.0  0.56914  0.49237  0.38911  1.0000
  C   C1295     1.0  0.49213  0.76417  0.46762  1.0000
  C   C1296     1.0  0.68242  0.47913  0.37037  1.0000
  C   C1297     1.0  0.76364  0.48131  0.44658  1.0000
  H   H1041     1.0  0.49056  0.51005  0.56251  1.0000
  H   H1042     1.0  0.94021  0.60366  0.68609  1.0000
  H   H1043     1.0  0.78779  0.61042  0.68414  1.0000
  S   S172      1.0  0.56607  0.90650  0.75087  1.0000
  H   H1044     1.0  0.88365  0.87210  0.91294  1.0000
  C   C1298     1.0  0.92673  0.56244  0.93196  1.0000
  C   C1299     1.0  0.90001  0.90260  0.93464  1.0000
  H   H1045     1.0  0.96480  0.56151  0.70630  1.0000
  H   H1046     1.0  0.95625  0.58661  0.96827  1.0000
  S   S173      1.0  0.55907  0.91112  0.81611  1.0000
  C   C1300     1.0  0.73578  0.74009  0.93429  1.0000
  C   C1301     1.0  0.86767  0.61297  0.87781  1.0000
  H   H1047     1.0  0.95317  0.73111  0.90320  1.0000
  S   S174      1.0  0.94470  0.62458  0.78418  1.0000
  Fe  Fe86      1.0  0.90693  0.57290  0.82413  1.0000
  S   S175      1.0  0.88654  0.61789  0.81533  1.0000
  S   S176      1.0  0.88412  0.54606  0.84978  1.0000
  Fe  Fe87      1.0  0.90172  0.60585  0.78056  1.0000
  S   S177      1.0  0.87588  0.61557  0.74917  1.0000
  Fe  Fe88      1.0  0.93122  0.63208  0.82010  1.0000
  S   S178      1.0  0.94516  0.67174  0.83738  1.0000
  S   S179      1.0  0.91897  0.56005  0.78917  1.0000
  C   C1302     1.0  0.95549  0.87736  0.92227  1.0000
  H   H1048     1.0  0.92841  0.66194  0.92723  1.0000
  C   C1303     1.0  0.54225  0.88348  0.73930  1.0000
  Fe  Fe89      1.0  0.79099  0.51463  0.67565  1.0000
  S   S180      1.0  0.78238  0.54446  0.70498  1.0000
  H   H1049     1.0  0.50814  0.91713  0.73088  1.0000
  H   H1050     1.0  0.79149  0.57768  0.84210  1.0000
  C   C1304     1.0  0.94938  0.70456  0.87449  1.0000
  H   H1051     1.0  0.70364  0.54040  0.65681  1.0000
  P   P42       1.0  0.80386  0.49168  0.79542  1.0000
  H   H1052     1.0  0.93436  0.63738  0.73503  1.0000
  Fe  Fe90      1.0  0.91963  0.75653  0.95316  1.0000
  C   C1305     1.0  0.82971  0.87952  0.95491  1.0000
  S   S181      1.0  0.89687  0.73103  0.92776  1.0000
  C   C1306     1.0  0.94625  0.55871  0.69618  1.0000
  C   C1307     1.0  0.97422  0.49573  0.82717  1.0000
  S   S182      1.0  0.91853  0.80537  0.95318  1.0000
  H   H1053     1.0  0.73229  0.95728  0.85481  1.0000
  H   H1054     1.0  0.81884  0.49125  0.71338  1.0000
  C   C1308     1.0  0.93210  0.58263  0.68479  1.0000
  H   H1055     1.0  0.97096  0.70790  0.86789  1.0000
  H   H1056     1.0  0.97218  0.90551  0.94527  1.0000
  C   C1309     1.0  0.53432  0.92519  0.66895  1.0000
  C   C1310     1.0  0.85147  0.59141  0.73983  1.0000
  C   C1311     1.0  0.82172  0.59623  0.74554  1.0000
  C   C1312     1.0  0.80115  0.58091  0.73521  1.0000
  C   C1313     1.0  0.80988  0.56105  0.71861  1.0000
  C   C1314     1.0  0.83971  0.55572  0.71308  1.0000
  C   C1315     1.0  0.86044  0.57088  0.72368  1.0000
  H   H1057     1.0  0.81442  0.61252  0.75751  1.0000
  H   H1058     1.0  0.77819  0.58524  0.73959  1.0000
  H   H1059     1.0  0.84674  0.54047  0.70032  1.0000
  H   H1060     1.0  0.88330  0.56741  0.71882  1.0000
  C   C1316     1.0  0.93176  0.68710  0.86296  1.0000
  C   C1317     1.0  0.93934  0.71779  0.89453  1.0000
  C   C1318     1.0  0.91125  0.71418  0.90302  1.0000
  C   C1319     1.0  0.89366  0.69669  0.89150  1.0000
  C   C1320     1.0  0.90393  0.68296  0.87174  1.0000
  H   H1061     1.0  0.87185  0.69392  0.89783  1.0000
  H   H1062     1.0  0.89006  0.66975  0.86303  1.0000
  H   H1063     1.0  0.62664  0.97257  0.97274  1.0000
  H   H1064     1.0  0.86380  0.84429  0.95844  1.0000
  S   S183      1.0  0.52826  0.97205  0.83602  1.0000
  P   P43       1.0  0.89015  0.60988  0.65634  1.0000
  C   C1321     1.0  0.55456  0.97687  0.69025  1.0000
  H   H1065     1.0  0.88045  0.63627  0.93792  1.0000
  Fe  Fe91      1.0  0.75001  0.95418  0.96554  1.0000
  C   C1322     1.0  0.89366  0.49411  0.87166  1.0000
  C   C1323     1.0  0.89219  0.50816  0.85073  1.0000
  C   C1324     1.0  0.70335  0.53367  0.67427  1.0000
  C   C1325     1.0  0.71037  0.55255  0.69054  1.0000
  H   H1066     1.0  0.89543  0.71588  0.66139  1.0000
  H   H1067     1.0  0.89007  0.50664  0.88656  1.0000
  H   H1068     1.0  0.89464  0.50254  0.81518  1.0000
  C   C1326     1.0  0.85106  0.63914  0.91071  1.0000
  H   H1069     1.0  0.57238  0.84548  0.74451  1.0000
  C   C1327     1.0  0.83225  0.61041  0.67188  1.0000
  H   H1070     1.0  0.57628  0.97286  0.74406  1.0000
  Fe  Fe92      1.0  0.96095  0.57927  0.79491  1.0000
  C   C1328     1.0  0.55373  0.90786  0.68268  1.0000
  C   C1329     1.0  0.84623  0.63078  0.88908  1.0000
  H   H1071     1.0  0.94785  0.51260  0.70304  1.0000
  H   H1072     1.0  0.76644  0.85895  0.96198  1.0000
  H   H1073     1.0  0.51174  0.89388  0.90976  1.0000
  H   H1074     1.0  0.93766  0.69346  0.95797  1.0000
  S   S184      1.0  0.95060  0.58783  0.83112  1.0000
  C   C1330     1.0  0.89196  0.64322  0.67092  1.0000
  H   H1075     1.0  0.85704  0.93980  0.96557  1.0000
  H   H1076     1.0  0.83028  0.87921  0.93690  1.0000
  H   H1077     1.0  0.65693  0.93050  0.88112  1.0000
  C   C1331     1.0  0.80302  0.56766  0.82794  1.0000
  S   S185      1.0  0.78524  0.92288  0.94981  1.0000
  H   H1078     1.0  0.94688  0.67540  0.70733  1.0000
  C   C1332     1.0  0.88820  0.64339  0.69416  1.0000
  C   C1333     1.0  0.88633  0.66945  0.70546  1.0000
  C   C1334     1.0  0.88894  0.69558  0.69367  1.0000
  C   C1335     1.0  0.89350  0.69561  0.67056  1.0000
  C   C1336     1.0  0.89487  0.66957  0.65918  1.0000
  C   C1337     1.0  0.55194  0.85408  0.73726  1.0000
  C   C1338     1.0  0.89834  0.55154  0.66993  1.0000
  H   H1079     1.0  0.83942  0.61805  0.68743  1.0000
  H   H1080     1.0  0.54695  0.84162  0.66151  1.0000
  H   H1081     1.0  0.79430  0.50843  0.74792  1.0000
  C   C1339     1.0  0.93601  0.65213  0.94290  1.0000
  H   H1082     1.0  0.77888  0.75362  0.93683  1.0000
  H   H1083     1.0  0.88266  0.66929  0.72339  1.0000
  H   H1084     1.0  0.88735  0.71576  0.70248  1.0000
  C   C1340     1.0  0.69675  0.50566  0.68039  1.0000
  H   H1085     1.0  0.90535  0.50624  0.67965  1.0000
  C   C1341     1.0  0.54411  0.86497  0.66314  1.0000
  C   C1342     1.0  0.84528  0.80104  0.92859  1.0000
  C   C1343     1.0  0.83269  0.81758  0.91087  1.0000
  C   C1344     1.0  0.80314  0.82797  0.91208  1.0000
  C   C1345     1.0  0.78616  0.82165  0.93097  1.0000
  H   H1086     1.0  0.69142  0.49156  0.66748  1.0000
  C   C1346     1.0  0.95150  0.60982  0.96594  1.0000
  H   H1087     1.0  0.64249  0.89738  0.80817  1.0000
  H   H1088     1.0  0.91033  0.58976  0.87906  1.0000
  C   C1347     1.0  0.52058  0.91199  0.65185  1.0000
  H   H1089     1.0  0.93574  0.49335  0.91306  1.0000
  C   C1348     1.0  0.65423  0.94102  0.80318  1.0000
  H   H1090     1.0  0.95187  0.52278  0.85200  1.0000
  S   S186      1.0  0.57122  0.97178  0.79105  1.0000
  H   H1091     1.0  0.98044  0.54153  0.74417  1.0000
  H   H1092     1.0  0.95748  0.96900  0.93244  1.0000
  C   C1349     1.0  0.91516  0.50570  0.94449  1.0000
  P   P44       1.0  0.93268  0.59905  0.92320  1.0000
  S   S187      1.0  0.49247  0.82303  0.69821  1.0000
  H   H1093     1.0  0.92983  0.51889  0.75100  1.0000
  C   C1350     1.0  0.64416  0.91529  0.79629  1.0000
  C   C1351     1.0  0.92481  0.91260  0.94392  1.0000
  H   H1094     1.0  0.86370  0.60587  0.86126  1.0000
  C   C1352     1.0  0.63481  0.48560  0.72485  1.0000
  C   C1353     1.0  0.82859  0.79536  0.94777  1.0000
  H   H1095     1.0  0.52479  0.92295  0.87634  1.0000
  H   H1096     1.0  0.86800  0.79232  0.92741  1.0000
  H   H1097     1.0  0.84581  0.82202  0.89613  1.0000
  H   H1098     1.0  0.79331  0.84068  0.89829  1.0000
  H   H1099     1.0  0.76306  0.82900  0.93129  1.0000
  H   H1100     1.0  0.91068  0.48379  0.94931  1.0000
  H   H1101     1.0  0.88591  0.62335  0.70350  1.0000
  H   H1102     1.0  0.69082  0.73050  0.93541  1.0000
  H   H1103     1.0  0.97698  0.86701  0.91795  1.0000
  H   H1104     1.0  0.58300  0.96716  0.91469  1.0000
  C   C1354     1.0  0.50407  0.81397  0.79241  1.0000
  C   C1355     1.0  0.84866  0.85960  0.96709  1.0000
  C   C1356     1.0  0.89174  0.96774  0.95870  1.0000
  Fe  Fe93      1.0  0.57358  0.95351  0.82640  1.0000
  C   C1357     1.0  0.95983  0.49262  0.77209  1.0000
  C   C1358     1.0  0.93070  0.86752  0.91329  1.0000
  H   H1105     1.0  0.97067  0.59564  0.74360  1.0000
  H   H1106     1.0  0.78219  0.52829  0.83176  1.0000
  H   H1107     1.0  0.64516  0.50544  0.72630  1.0000
  H   H1108     1.0  0.66021  0.94238  0.82036  1.0000
  C   C1359     1.0  0.90615  0.52870  0.95840  1.0000
  C   C1360     1.0  0.52543  0.88205  0.64901  1.0000
  H   H1109     1.0  0.87826  0.91138  0.93935  1.0000
  C   C1361     1.0  0.91161  0.55704  0.95206  1.0000
  C   C1362     1.0  0.94014  0.62182  0.94583  1.0000
  C   C1363     1.0  0.81331  0.52638  0.80400  1.0000
  H   H1110     1.0  0.56008  0.95964  0.87896  1.0000
  H   H1111     1.0  0.52404  0.88248  0.78624  1.0000
  H   H1112     1.0  0.53450  0.90079  0.94580  1.0000
  C   C1364     1.0  0.93849  0.49706  0.75582  1.0000
  C   C1365     1.0  0.89618  0.49179  0.83143  1.0000
  C   C1366     1.0  0.62456  0.96550  0.87223  1.0000
  C   C1367     1.0  0.83354  0.54156  0.79165  1.0000
  C   C1368     1.0  0.83814  0.56973  0.79734  1.0000
  C   C1369     1.0  0.82285  0.58282  0.81539  1.0000
  C   C1370     1.0  0.51578  0.89441  0.72959  1.0000
  C   C1371     1.0  0.89419  0.60397  0.88795  1.0000
  C   C1372     1.0  0.87745  0.62998  0.92099  1.0000
  C   C1373     1.0  0.96252  0.65694  0.71081  1.0000
  C   C1374     1.0  0.69901  0.76133  0.96009  1.0000
  H   H1113     1.0  0.82789  0.49196  0.84103  1.0000
  C   C1375     1.0  0.72274  0.52815  0.77763  1.0000
  C   C1376     1.0  0.75294  0.52274  0.78012  1.0000
  S   S188      1.0  0.50540  0.94756  0.78889  1.0000
  C   C1377     1.0  0.60503  0.48566  0.73035  1.0000
  H   H1114     1.0  0.53957  0.95530  0.72032  1.0000
  C   C1378     1.0  0.65508  0.96493  0.78833  1.0000
  C   C1379     1.0  0.76482  0.49739  0.79137  1.0000
  C   C1380     1.0  0.82692  0.48285  0.72929  1.0000
  H   H1115     1.0  0.54365  0.81316  0.72388  1.0000
  H   H1116     1.0  0.84542  0.53207  0.77742  1.0000
  H   H1117     1.0  0.85344  0.58151  0.78759  1.0000
  H   H1118     1.0  0.82640  0.60468  0.81970  1.0000
  H   H1119     1.0  0.70482  0.50850  0.73645  1.0000
  C   C1381     1.0  0.93496  0.53934  0.91777  1.0000
  C   C1382     1.0  0.79269  0.59555  0.65053  1.0000
  C   C1383     1.0  0.64577  0.96262  0.76641  1.0000
  H   H1120     1.0  0.71389  0.54783  0.76900  1.0000
  H   H1121     1.0  0.76703  0.53857  0.77345  1.0000
  C   C1384     1.0  0.93662  0.53120  0.69440  1.0000
  H   H1122     1.0  0.90377  0.57473  0.96271  1.0000
  H   H1123     1.0  0.83908  0.78252  0.96122  1.0000
  C   C1385     1.0  0.94147  0.67011  0.96026  1.0000
  H   H1124     1.0  0.69045  0.87450  0.95678  1.0000
  H   H1125     1.0  0.57280  0.86466  0.69088  1.0000
  C   C1386     1.0  0.96874  0.96743  0.94813  1.0000
  C   C1387     1.0  0.96453  0.59920  0.90501  1.0000
  C   C1388     1.0  0.63494  0.91319  0.77449  1.0000
  H   H1126     1.0  0.94570  0.63278  0.88237  1.0000
  S   S189      1.0  0.70217  0.94811  0.96353  1.0000
  S   S190      1.0  0.83582  0.49703  0.66441  1.0000
  C   C1389     1.0  0.49998  0.87619  0.71702  1.0000
  H   H1127     1.0  0.68069  0.51244  0.78427  1.0000
  H   H1128     1.0  0.71651  0.57390  0.68574  1.0000
  C   C1390     1.0  0.63586  0.93679  0.75951  1.0000
  H   H1129     1.0  0.94512  0.54320  0.90159  1.0000
  Fe  Fe94      1.0  0.96375  0.79807  0.96717  1.0000
  C   C1391     1.0  0.49111  0.97231  0.68513  1.0000
  C   C1392     1.0  0.95554  0.63563  0.72649  1.0000
  S   S191      1.0  0.61245  0.94643  0.84959  1.0000
  C   C1393     1.0  0.75662  0.75597  0.94348  1.0000
  C   C1394     1.0  0.71049  0.54348  0.71297  1.0000
  C   C1395     1.0  0.70418  0.51534  0.71909  1.0000
  C   C1396     1.0  0.69780  0.49600  0.70278  1.0000
  P   P45       1.0  0.92112  0.93981  0.96515  1.0000
  H   H1130     1.0  0.93300  0.84963  0.90198  1.0000
  C   C1397     1.0  0.90296  0.88014  0.91948  1.0000
  H   H1131     1.0  0.71681  0.55793  0.72542  1.0000
  Fe  Fe95      1.0  0.51367  0.93066  0.82380  1.0000
  C   C1398     1.0  0.74882  0.77467  0.96111  1.0000
  C   C1399     1.0  0.90785  0.57926  0.67173  1.0000
  H   H1132     1.0  0.82585  0.63792  0.88106  1.0000
  H   H1133     1.0  0.51327  0.79203  0.79624  1.0000
  C   C1400     1.0  0.97594  0.61205  0.73127  1.0000
  C   C1401     1.0  0.91268  0.52762  0.68125  1.0000
  C   C1402     1.0  0.64749  0.95209  0.88508  1.0000
  C   C1403     1.0  0.79806  0.53963  0.82216  1.0000
  Fe  Fe96      1.0  0.55197  0.93097  0.78200  1.0000
  C   C1404     1.0  0.89956  0.61295  0.90944  1.0000
  C   C1405     1.0  0.53570  0.83578  0.72545  1.0000
  C   C1406     1.0  0.92943  0.51105  0.92414  1.0000
  C   C1407     1.0  0.97258  0.51659  0.84356  1.0000
  P   P46       1.0  0.52732  0.96395  0.67289  1.0000
  H   H1134     1.0  0.83443  0.65286  0.91953  1.0000
  H   H1135     1.0  0.76987  0.59194  0.64930  1.0000
  C   C1408     1.0  0.52198  0.83670  0.79189  1.0000
  H   H1136     1.0  0.62781  0.93527  0.74281  1.0000
  C   C1409     1.0  0.81299  0.49248  0.74906  1.0000
  C   C1410     1.0  0.79884  0.80575  0.94917  1.0000
  C   C1411     1.0  0.95262  0.89948  0.93772  1.0000
  C   C1412     1.0  0.51013  0.84682  0.71472  1.0000
  H   H1137     1.0  0.56480  0.91697  0.69603  1.0000
  P   P47       1.0  0.57844  0.93947  0.95879  1.0000
  C   C1413     1.0  0.61425  0.91937  0.95803  1.0000
  C   C1414     1.0  0.56025  0.93480  0.93303  1.0000
  C   C1415     1.0  0.56707  0.95145  0.91400  1.0000
  C   C1416     1.0  0.55417  0.94726  0.89371  1.0000
  C   C1417     1.0  0.53434  0.92647  0.89221  1.0000
  C   C1418     1.0  0.52711  0.91003  0.91111  1.0000
  C   C1419     1.0  0.54006  0.91408  0.93148  1.0000
  S   S192      1.0  0.96620  0.74935  0.96430  1.0000
  H   H1138     1.0  0.96799  0.51123  0.77942  1.0000
  C   C1420     1.0  0.66907  0.88664  0.95710  1.0000
  C   C1421     1.0  0.65553  0.89571  0.93718  1.0000
  C   C1422     1.0  0.62823  0.91195  0.93760  1.0000
  H   H1139     1.0  0.61836  0.91876  0.92191  1.0000
  C   C1423     1.0  0.65861  0.96647  0.90285  1.0000
  H   H1140     1.0  0.62624  0.89356  0.76936  1.0000
  H   H1141     1.0  0.67655  0.95603  0.91236  1.0000
  C   C1424     1.0  0.86251  0.96107  0.95984  1.0000
  C   C1425     1.0  0.80273  0.60618  0.67009  1.0000
  C   C1426     1.0  0.70698  0.74276  0.94259  1.0000
  H   H1142     1.0  0.54506  0.83251  0.79523  1.0000
  C   C1427     1.0  0.82305  0.48123  0.76977  1.0000
  C   C1428     1.0  0.51012  0.86499  0.78690  1.0000
  C   C1429     1.0  0.55518  0.96916  0.71302  1.0000
  P   P48       1.0  0.77597  0.79539  0.97250  1.0000
  H   H1143     1.0  0.70989  0.95998  0.81772  1.0000
  C   C1430     1.0  0.70409  0.50829  0.78628  1.0000
  C   C1431     1.0  0.71981  0.77725  0.96933  1.0000
  C   C1432     1.0  0.95602  0.95469  0.96711  1.0000
  C   C1433     1.0  0.80974  0.89944  0.96589  1.0000
  C   C1434     1.0  0.55858  0.87794  0.67973  1.0000
  C   C1435     1.0  0.85205  0.60398  0.65406  1.0000
  H   H1144     1.0  0.66634  0.89054  0.92134  1.0000
  H   H1145     1.0  0.87997  0.54828  0.65969  1.0000
  H   H1146     1.0  0.74199  0.72577  0.92068  1.0000
  C   C1436     1.0  0.96482  0.61828  0.88643  1.0000
  H   H1147     1.0  0.59275  0.50540  0.73591  1.0000
  H   H1148     1.0  0.89463  0.52462  0.97400  1.0000
  C   C1437     1.0  0.58186  0.97776  0.96145  1.0000
  C   C1438     1.0  0.71548  0.97456  0.85078  1.0000
  H   H1149     1.0  0.81739  0.97635  0.95451  1.0000
  H   H1150     1.0  0.67665  0.76347  0.96648  1.0000
  C   C1439     1.0  0.71562  0.48320  0.79772  1.0000
  H   H1151     1.0  0.95476  0.48583  0.82319  1.0000
  C   C1440     1.0  0.70253  0.97602  0.82989  1.0000
  H   H1152     1.0  0.70597  0.97364  0.76444  1.0000
