data_image0
_chemical_formula_structural       HCPCH2PHCHS2HCSC10HCH4CHCH5CH3PC2FeCHC6HPCH7C2HSHC9HCHC3HPHC2H2SH2C3FeH2CH2CHCH2CH2CH2CH4C3H2C5HCH2C2H3C2HCHC3H2CHC2HC5H5C2FeHC2HC2SC2HCHC5H4CHC3H3C4H2CHCH2SCHC2SHCH2SCH2CSC8HC3HCSC4H2CHSHFeHCFeHCHS3FeS2FeS2FeS2FeSFeS3C6H4C6H4SHCH3CHC2HC4H2C8H6C6HPC8HCH2C7H3CH5CHCHCSCHCHCHSHCSHFeC7HCHC2HCHCH2CSHCH4CHCH3CSHC3FeHCH3FeC2FeC2HCH2C3HCSFeH3C3H8CH2CHC2HC2FePC3PH5CPCSHCFeS2H2SCH2SCHCFeS2HCH2CHFeC2SC2HC4HC8H4C3FeH2C5H2C6H4C4HC2HC3PCH2CSC7H2C2H2SCH5C5H3C2HC5HC2H2CSCH5C4SHC3H2CPCHCFeHPC6H2CPH4CH2SH3C4P2C2SH4C3FeCHCH6C2HC2HC3H2C5HCHCH3C4HCHCHC2H2CHC2HC2H4C2H2C3FeS2FeS2FeSFeS3H2SCFeS2FeS2FeS2FeSFeS2HC7HCH3CHC3HC2H2C3HC5HC2HCHC6H5C5H3CH6PC2H3C2Fe2HC3HCFeCH2C6PC18H20C2H2C2HCHC8H2CHC3HCHCH7CHCHC4HPC7SHCHC4H2C2H5CHSC3H2C2HC4HC3H5C2HCHCH2PC4HC3HC2H2CHCHC2H2C3SC7HCHPSHC3HC2H3CH3PH3CH2C7HC7HCH2C5H3C3H3CHCH2CHCH4CHCHC5HC3HCSH2CHCHCH2CH3C2H3CH2CH2C3HCH3CHCHFeS2FeS2FeSFeCS2H2PHCFeS2FeS2FeSFeSCFeSCFeS2FeSFeSHCH5C5H2CH3SC7H6CH3CHCHC6H4C6H5C2H2C4PC2H3C2HC2HC2SCHC4HC2H2C2HC2H3C2SH3CHC3PC8H3C7H10C2H2SC2H2CH4C3SHC4H2C4PC19H19CSC5HC7HCH2C5H3C3SHCHCHCHC2H3FeH2CHSC3HC2H4FeS2FeS2FeHFeS3FeS2FeSHFeSCPSC3FeS2HC4HC2H2PHCHC4H4C2HSC3HC7H4C6H4CHC4SH2C6PC18H22CHC2H3C2HCHC4HC2HFeC2FeCH3CSHC3H4C2HC3H2PCHCFeH2CH2CHC2HC4H3C4H2C2H2C3HC3H2CH3C2HCHSH2CH2C3SC2H3C5HC4HCH3C2H2SC4HCH2SC2H2C2HCHC2H2C3H6CPH2C3HC2H4C2HCSC3HCHCHC5H3CH2CH2C3H3CFeH3PC2H2C7H2C3H3C3H2CH4C2HC5H2CHC3HCSH3CPFeSCHCPHC2HC3HC2H2CHPH2C5H2C2HC3HCHCH3CH3CH2C2H3C8FeS2FeSCFeCFeS3FeS2CH2SCHS2CSHFeSHFeSCSH3SC7H4CFeHPHCHC5H4C7H2SHCHC4H4CHC6PC10HC7H11CH9CH3C2S2C3SH2C2FeCH4PHCHC3H3C3H2C6HC4H2CHC6H2C4H3C4H2C2HC2HSH2FeC6H2SCHCHC2HC2H3C3SH2C2HFeH3C3HC3HC2H2CFeSC3HCSFeH2CHC2HCHCH5C2H3C2H2PHCH2CH2C3HCHCH3CH6C3HC5HCH2C3H3C2HCH3C2H2CH4C2HC3HCHC9HSFeCH2CHC2HC3SHC2H2CHC2SCHCH2SHCH4C2HC2PC15H2C2PH6CH3C3H7SCSCH2CHCHC4SFeSHFeSCSFeS2FeSHFeSFeS3C6H4CH2SFeC6H2CHCH3Fe2CSH5C5H2CSH3C2H2CHCHCFeC6H2CHCSC2H2PH6CHC8HCH3CH2C2H2SC5H2C5FeCPHSCH3SC3HFeH2CHCHCHCH6CHCHFeHCHPC2HC2HC2SC5HPCH2PC4HC2H3C2HC2HC2HC4H2CH3C6HC3H2CH2C2HCH2C3HCHFeSC2HC2H2SCHC3SC3H3CH2C2HFeSFeSFeSFeC2H2FeSHFeSHFeSFeS2CSC3H4CH2CH3C2HC6H7CHSC2H2C6H2CHCHC2HC2HCH3C5H3C7PC9HC8H6SCH4SH3CH4CHC2PC8SHC2HC3HCSC3H6C4H2CHC2SCHCHCPC2H3CHCHC2SCH3CHCS2H3CSCHC9HCH4C2HC2H5C4H4SC
_chemical_formula_sum              "H1152 C1440 P48 S192 Fe96"
_cell_length_a       47.1444
_cell_length_b       44.7802
_cell_length_c       59.6747
_cell_angle_alpha    84.3135
_cell_angle_beta     90.0712
_cell_angle_gamma    89.5729

_space_group_name_H-M_alt    "P 1"
_space_group_IT_number       1

loop_
  _space_group_symop_operation_xyz
  'x, y, z'

loop_
  _atom_site_type_symbol
  _atom_site_label
  _atom_site_symmetry_multiplicity
  _atom_site_fract_x
  _atom_site_fract_y
  _atom_site_fract_z
  _atom_site_occupancy
  H   H1        1.0  0.40287  0.06658  0.17658  1.0000
  C   C1        1.0  0.20410  0.36372  0.26698  1.0000
  P   P1        1.0  0.02637  0.99543  0.00389  1.0000
  C   C2        1.0  0.99390  0.20426  0.18833  1.0000
  H   H2        1.0  0.03227  0.17536  0.02131  1.0000
  H   H3        1.0  0.36398  0.04845  0.27219  1.0000
  P   P2        1.0  0.11329  0.47202  0.20537  1.0000
  H   H4        1.0  0.45468  0.02874  0.25204  1.0000
  C   C3        1.0  0.06550  0.46036  0.26250  1.0000
  H   H5        1.0  0.42239  0.01894  0.28354  1.0000
  S   S1        1.0  0.02830  0.31204  0.25496  1.0000
  S   S2        1.0  0.00641  0.34652  0.19224  1.0000
  H   H6        1.0  0.08011  0.00867  0.02512  1.0000
  C   C4        1.0  0.07181  0.43408  0.19177  1.0000
  S   S3        1.0  0.13676  0.39325  0.26198  1.0000
  C   C5        1.0  0.20554  0.47452  0.23068  1.0000
  C   C6        1.0  0.01146  0.18693  0.13765  1.0000
  C   C7        1.0  0.99483  0.13665  0.13369  1.0000
  C   C8        1.0  0.33580  0.32846  0.26524  1.0000
  C   C9        1.0  0.05789  0.33531  0.25707  1.0000
  C   C10       1.0  0.07102  0.33701  0.27802  1.0000
  C   C11       1.0  0.09437  0.35596  0.27997  1.0000
  C   C12       1.0  0.10568  0.37190  0.26072  1.0000
  C   C13       1.0  0.09297  0.36952  0.23977  1.0000
  C   C14       1.0  0.06876  0.35189  0.23798  1.0000
  H   H7        1.0  0.44938  0.21171  0.12682  1.0000
  C   C15       1.0  0.46876  0.10993  0.15265  1.0000
  H   H8        1.0  0.10177  0.38160  0.22492  1.0000
  H   H9        1.0  0.05891  0.35059  0.22174  1.0000
  H   H10       1.0  0.38622  0.20153  0.23718  1.0000
  H   H11       1.0  0.24200  0.42777  0.26897  1.0000
  C   C16       1.0  0.00420  0.15820  0.14752  1.0000
  H   H12       1.0  0.10417  0.35746  0.29620  1.0000
  C   C17       1.0  0.38289  0.03956  0.24074  1.0000
  H   H13       1.0  0.01887  0.08319  0.17477  1.0000
  H   H14       1.0  0.05677  0.45040  0.19703  1.0000
  H   H15       1.0  0.22716  0.47707  0.23629  1.0000
  H   H16       1.0  0.14553  0.32392  0.27903  1.0000
  H   H17       1.0  0.01621  0.24906  0.22764  1.0000
  C   C18       1.0  0.31616  0.05781  0.17929  1.0000
  H   H18       1.0  0.12999  0.00214  0.01431  1.0000
  H   H19       1.0  0.34585  0.09910  0.13477  1.0000
  H   H20       1.0  0.18737  0.48264  0.26262  1.0000
  P   P3        1.0  0.38531  0.12927  0.16375  1.0000
  C   C19       1.0  0.09278  0.12033  0.17676  1.0000
  C   C20       1.0  0.01135  0.38999  0.28044  1.0000
  Fe  Fe1       1.0  0.45591  0.12238  0.28570  1.0000
  C   C21       1.0  0.01688  0.40843  0.26067  1.0000
  H   H21       1.0  0.98974  0.11408  0.14074  1.0000
  C   C22       1.0  0.41146  0.15782  0.19805  1.0000
  C   C23       1.0  0.38690  0.27885  0.28654  1.0000
  C   C24       1.0  0.01263  0.17991  0.19292  1.0000
  C   C25       1.0  0.37338  0.18359  0.09448  1.0000
  C   C26       1.0  0.41840  0.08840  0.24695  1.0000
  C   C27       1.0  0.02213  0.08699  0.99980  1.0000
  H   H22       1.0  0.06216  0.05236  0.17320  1.0000
  P   P4        1.0  0.20293  0.30910  0.29443  1.0000
  C   C28       1.0  0.04138  0.12467  0.17789  1.0000
  H   H23       1.0  0.11535  0.30594  0.24944  1.0000
  H   H24       1.0  0.00795  0.02119  0.04561  1.0000
  H   H25       1.0  0.41409  0.24816  0.27071  1.0000
  H   H26       1.0  0.44103  0.14809  0.14671  1.0000
  H   H27       1.0  0.21318  0.26549  0.26093  1.0000
  H   H28       1.0  0.29856  0.38532  0.23627  1.0000
  H   H29       1.0  0.43967  0.21216  0.16771  1.0000
  C   C29       1.0  0.15385  0.30721  0.26878  1.0000
  C   C30       1.0  0.36655  0.19672  0.11409  1.0000
  H   H30       1.0  0.29934  0.27272  0.27836  1.0000
  S   S4        1.0  0.44079  0.11900  0.25019  1.0000
  H   H31       1.0  0.01184  0.44616  0.15424  1.0000
  C   C31       1.0  0.02141  0.03336  0.01107  1.0000
  C   C32       1.0  0.36997  0.18040  0.13518  1.0000
  C   C33       1.0  0.36085  0.16614  0.19343  1.0000
  C   C34       1.0  0.38371  0.15413  0.09592  1.0000
  C   C35       1.0  0.38615  0.15308  0.18651  1.0000
  C   C36       1.0  0.01162  0.09257  0.02090  1.0000
  C   C37       1.0  0.18160  0.29611  0.27220  1.0000
  C   C38       1.0  0.41145  0.17571  0.21598  1.0000
  C   C39       1.0  0.10111  0.43854  0.19387  1.0000
  H   H32       1.0  0.39522  0.29843  0.27664  1.0000
  C   C40       1.0  0.08237  0.45513  0.24405  1.0000
  H   H33       1.0  0.05566  0.99028  0.10079  1.0000
  C   C41       1.0  0.13674  0.29713  0.25198  1.0000
  C   C42       1.0  0.41867  0.10961  0.16230  1.0000
  C   C43       1.0  0.44963  0.00578  0.25786  1.0000
  H   H34       1.0  0.98146  0.24824  0.19647  1.0000
  P   P5        1.0  0.00970  0.14760  0.17720  1.0000
  H   H35       1.0  0.30985  0.06012  0.14345  1.0000
  C   C44       1.0  0.03936  0.09373  0.17599  1.0000
  C   C45       1.0  0.03287  0.20482  0.22359  1.0000
  H   H36       1.0  0.18743  0.35513  0.25701  1.0000
  H   H37       1.0  0.21724  0.46789  0.19665  1.0000
  S   S5        1.0  0.36055  0.00912  0.23703  1.0000
  H   H38       1.0  0.03369  0.40258  0.24949  1.0000
  H   H39       1.0  0.32794  0.05940  0.21402  1.0000
  C   C46       1.0  0.01173  0.03918  0.03249  1.0000
  C   C47       1.0  0.33145  0.06869  0.19678  1.0000
  C   C48       1.0  0.35201  0.09073  0.19203  1.0000
  Fe  Fe2       1.0  0.99688  0.32904  0.22795  1.0000
  H   H40       1.0  0.47770  0.99045  0.18346  1.0000
  H   H41       1.0  0.04486  0.16059  0.21602  1.0000
  C   C49       1.0  0.99246  0.02675  0.10753  1.0000
  H   H42       1.0  0.11348  0.13067  0.17662  1.0000
  H   H43       1.0  0.03129  0.03896  0.08999  1.0000
  C   C50       1.0  0.32134  0.06908  0.15700  1.0000
  H   H44       1.0  0.39599  0.09077  0.27815  1.0000
  C   C51       1.0  0.00025  0.43397  0.25497  1.0000
  H   H45       1.0  0.32393  0.37598  0.30563  1.0000
  H   H46       1.0  0.04605  0.22892  0.01962  1.0000
  C   C52       1.0  0.23505  0.40494  0.27340  1.0000
  H   H47       1.0  0.43628  0.08049  0.21496  1.0000
  H   H48       1.0  0.35851  0.21956  0.11294  1.0000
  C   C53       1.0  0.06826  0.13797  0.17773  1.0000
  H   H49       1.0  0.07027  0.16203  0.17790  1.0000
  H   H50       1.0  0.01314  0.21672  0.10705  1.0000
  C   C54       1.0  0.39774  0.25048  0.28316  1.0000
  H   H51       1.0  0.34098  0.16207  0.18515  1.0000
  H   H52       1.0  0.99593  0.17848  0.08291  1.0000
  H   H53       1.0  0.47574  0.19336  0.19573  1.0000
  H   H54       1.0  0.30078  0.04014  0.18299  1.0000
  C   C55       1.0  0.35736  0.10222  0.16967  1.0000
  C   C56       1.0  0.02785  0.19035  0.00630  1.0000
  C   C57       1.0  0.99856  0.17280  0.10086  1.0000
  H   H55       1.0  0.10956  0.07580  0.17433  1.0000
  H   H56       1.0  0.37061  0.19619  0.07814  1.0000
  C   C58       1.0  0.02028  0.02145  0.10025  1.0000
  C   C59       1.0  0.32407  0.36727  0.28929  1.0000
  C   C60       1.0  0.39810  0.07915  0.26320  1.0000
  C   C61       1.0  0.42106  0.07923  0.17023  1.0000
  C   C62       1.0  0.21391  0.39274  0.26075  1.0000
  H   H57       1.0  0.09064  0.43281  0.24272  1.0000
  C   C63       1.0  0.40349  0.04849  0.22472  1.0000
  H   H58       1.0  0.40609  0.03614  0.21020  1.0000
  H   H59       1.0  0.02603  0.10539  0.98705  1.0000
  C   C64       1.0  0.44264  0.12482  0.15328  1.0000
  C   C65       1.0  0.09059  0.08943  0.17542  1.0000
  H   H60       1.0  0.39520  0.11491  0.11778  1.0000
  H   H61       1.0  0.43109  0.14695  0.19397  1.0000
  H   H62       1.0  0.16782  0.46514  0.18340  1.0000
  C   C66       1.0  0.42069  0.07335  0.22754  1.0000
  C   C67       1.0  0.08927  0.47880  0.22783  1.0000
  H   H63       1.0  0.18283  0.24803  0.23127  1.0000
  C   C68       1.0  0.34187  0.09120  0.15216  1.0000
  H   H64       1.0  0.03588  0.26320  0.98525  1.0000
  C   C69       1.0  0.38715  0.13777  0.11696  1.0000
  C   C70       1.0  0.03146  0.17988  0.21120  1.0000
  C   C71       1.0  0.06389  0.07618  0.17491  1.0000
  H   H65       1.0  0.13383  0.26813  0.22543  1.0000
  H   H66       1.0  0.04757  0.20493  0.23754  1.0000
  C   C72       1.0  0.99551  0.22922  0.20059  1.0000
  H   H67       1.0  0.44899  0.04152  0.17717  1.0000
  C   C73       1.0  0.98934  0.39709  0.29483  1.0000
  C   C74       1.0  0.00824  0.19429  0.11445  1.0000
  H   H68       1.0  0.36426  0.09809  0.20583  1.0000
  C   C75       1.0  0.12007  0.41693  0.18698  1.0000
  C   C76       1.0  0.10976  0.39136  0.17801  1.0000
  C   C77       1.0  0.08053  0.38708  0.17609  1.0000
  C   C78       1.0  0.06159  0.40845  0.18301  1.0000
  C   C79       1.0  0.38018  0.15072  0.13676  1.0000
  H   H69       1.0  0.14266  0.41928  0.18894  1.0000
  H   H70       1.0  0.12441  0.37456  0.17296  1.0000
  H   H71       1.0  0.07249  0.36708  0.16951  1.0000
  H   H72       1.0  0.03889  0.40520  0.18176  1.0000
  H   H73       1.0  0.38900  0.14387  0.08073  1.0000
  C   C80       1.0  0.30925  0.37253  0.25022  1.0000
  C   C81       1.0  0.31062  0.38383  0.27117  1.0000
  Fe  Fe3       1.0  0.14293  0.41611  0.29360  1.0000
  H   H74       1.0  0.32057  0.33600  0.23104  1.0000
  C   C82       1.0  0.02723  0.05751  0.99496  1.0000
  C   C83       1.0  0.00666  0.06869  0.03728  1.0000
  H   H75       1.0  0.36465  0.19109  0.15009  1.0000
  C   C84       1.0  0.37997  0.05519  0.25983  1.0000
  C   C85       1.0  0.25738  0.28874  0.28559  1.0000
  S   S6        1.0  0.44129  0.00216  0.14250  1.0000
  C   C86       1.0  0.36091  0.18384  0.21147  1.0000
  C   C87       1.0  0.18314  0.47738  0.24561  1.0000
  H   H76       1.0  0.03509  0.05339  0.97850  1.0000
  C   C88       1.0  0.08484  0.00060  0.00900  1.0000
  H   H77       1.0  0.20425  0.40611  0.24657  1.0000
  C   C89       1.0  0.19993  0.46933  0.20840  1.0000
  C   C90       1.0  0.14719  0.27585  0.23845  1.0000
  C   C91       1.0  0.17480  0.26460  0.24175  1.0000
  C   C92       1.0  0.33742  0.33974  0.28637  1.0000
  C   C93       1.0  0.36667  0.28213  0.30344  1.0000
  H   H78       1.0  0.30121  0.40547  0.27343  1.0000
  H   H79       1.0  0.06267  0.32417  0.29283  1.0000
  H   H80       1.0  0.34124  0.19331  0.21704  1.0000
  H   H81       1.0  0.98572  0.46468  0.09206  1.0000
  C   C94       1.0  0.17189  0.46732  0.20103  1.0000
  H   H82       1.0  0.01961  0.20377  0.14771  1.0000
  C   C95       1.0  0.46536  0.20372  0.13910  1.0000
  C   C96       1.0  0.45992  0.20405  0.16211  1.0000
  C   C97       1.0  0.38622  0.18858  0.22277  1.0000
  H   H83       1.0  0.06096  0.44216  0.27532  1.0000
  H   H84       1.0  0.26217  0.39781  0.30252  1.0000
  H   H85       1.0  0.25714  0.30546  0.27115  1.0000
  C   C98       1.0  0.44732  0.06472  0.17027  1.0000
  C   C99       1.0  0.03559  0.22050  0.00536  1.0000
  C   C100      1.0  0.01510  0.22963  0.21813  1.0000
  C   C101      1.0  0.01243  0.46623  0.16287  1.0000
  H   H86       1.0  0.02377  0.36978  0.28417  1.0000
  H   H87       1.0  0.00446  0.44810  0.23957  1.0000
  C   C102      1.0  0.32167  0.34476  0.24730  1.0000
  H   H88       1.0  0.43087  0.17836  0.22533  1.0000
  C   C103      1.0  0.14923  0.46957  0.21605  1.0000
  H   H89       1.0  0.00722  0.11533  0.02461  1.0000
  H   H90       1.0  0.98537  0.12700  0.09988  1.0000
  S   S7        1.0  0.47579  0.16418  0.29643  1.0000
  C   C104      1.0  0.99227  0.14390  0.11045  1.0000
  H   H91       1.0  0.39806  0.20333  0.29497  1.0000
  C   C105      1.0  0.38864  0.22517  0.29674  1.0000
  C   C106      1.0  0.24626  0.38816  0.29238  1.0000
  S   S8        1.0  0.36482  0.99790  0.17160  1.0000
  H   H92       1.0  0.00467  0.10225  0.21597  1.0000
  C   C107      1.0  0.11321  0.99744  0.00278  1.0000
  H   H93       1.0  0.99567  0.41202  0.10730  1.0000
  H   H94       1.0  0.13826  0.47769  0.25029  1.0000
  S   S9        1.0  0.18416  0.43779  0.30134  1.0000
  C   C108      1.0  0.00015  0.46629  0.18419  1.0000
  H   H95       1.0  0.99867  0.07297  0.05372  1.0000
  H   H96       1.0  0.34521  0.30710  0.26246  1.0000
  C   C109      1.0  0.19199  0.27464  0.25859  1.0000
  S   S10       1.0  0.11621  0.45651  0.29829  1.0000
  C   C110      1.0  0.28130  0.27026  0.28959  1.0000
  C   C111      1.0  0.03420  0.99384  0.10637  1.0000
  C   C112      1.0  0.48048  0.19354  0.17795  1.0000
  C   C113      1.0  0.21516  0.34675  0.28611  1.0000
  C   C114      1.0  0.43088  0.00004  0.27584  1.0000
  C   C115      1.0  0.23388  0.28551  0.30007  1.0000
  C   C116      1.0  0.47108  0.07984  0.16116  1.0000
  C   C117      1.0  0.23651  0.35916  0.29865  1.0000
  H   H97       1.0  0.09029  0.48139  0.15906  1.0000
  C   C118      1.0  0.47798  0.00631  0.14809  1.0000
  C   C119      1.0  0.15513  0.47467  0.23844  1.0000
  C   C120      1.0  0.98382  0.10623  0.20860  1.0000
  H   H98       1.0  0.00812  0.15620  0.98895  1.0000
  C   C121      1.0  0.01425  0.17954  0.98793  1.0000
  S   S11       1.0  0.98183  0.43514  0.19755  1.0000
  C   C122      1.0  0.06289  0.99262  0.99486  1.0000
  C   C123      1.0  0.02982  0.23982  0.98601  1.0000
  C   C124      1.0  0.00220  0.98769  0.98161  1.0000
  C   C125      1.0  0.11992  0.98730  0.98203  1.0000
  H   H99       1.0  0.98181  0.03171  0.97785  1.0000
  H   H100      1.0  0.47505  0.98667  0.23279  1.0000
  C   C126      1.0  0.34850  0.99849  0.30689  1.0000
  H   H101      1.0  0.99251  0.30864  0.33536  1.0000
  S   S12       1.0  0.42943  0.11422  0.31669  1.0000
  H   H102      1.0  0.45889  0.38032  0.32612  1.0000
  Fe  Fe4       1.0  0.42696  0.43816  0.62239  1.0000
  H   H103      1.0  0.23354  0.39502  0.52462  1.0000
  C   C127      1.0  0.06246  0.32055  0.34450  1.0000
  Fe  Fe5       1.0  0.17672  0.41983  0.33724  1.0000
  H   H104      1.0  0.08155  0.30857  0.35023  1.0000
  C   C128      1.0  0.04431  0.45938  0.34884  1.0000
  H   H105      1.0  0.39124  0.23307  0.36491  1.0000
  S   S13       1.0  0.07122  0.43158  0.35243  1.0000
  S   S14       1.0  0.38765  0.36965  0.60096  1.0000
  S   S15       1.0  0.38365  0.44246  0.60635  1.0000
  Fe  Fe6       1.0  0.40133  0.41275  0.58138  1.0000
  S   S16       1.0  0.39427  0.43077  0.54483  1.0000
  S   S17       1.0  0.44522  0.41119  0.59622  1.0000
  Fe  Fe7       1.0  0.42784  0.34907  0.39237  1.0000
  S   S18       1.0  0.38137  0.34338  0.39978  1.0000
  S   S19       1.0  0.45764  0.31423  0.37926  1.0000
  Fe  Fe8       1.0  0.42881  0.41352  0.40651  1.0000
  S   S20       1.0  0.38224  0.41227  0.41476  1.0000
  S   S21       1.0  0.45070  0.45690  0.41361  1.0000
  Fe  Fe9       1.0  0.39103  0.36601  0.43105  1.0000
  S   S22       1.0  0.37418  0.34889  0.46538  1.0000
  Fe  Fe10      1.0  0.37616  0.39033  0.38286  1.0000
  S   S23       1.0  0.34384  0.40749  0.35592  1.0000
  S   S24       1.0  0.43789  0.36834  0.42505  1.0000
  S   S25       1.0  0.42236  0.39491  0.37335  1.0000
  C   C129      1.0  0.38805  0.40739  0.52323  1.0000
  C   C130      1.0  0.38636  0.37620  0.52760  1.0000
  C   C131      1.0  0.38195  0.35839  0.50976  1.0000
  C   C132      1.0  0.38011  0.37158  0.48744  1.0000
  C   C133      1.0  0.38182  0.40277  0.48311  1.0000
  C   C134      1.0  0.38521  0.42061  0.50099  1.0000
  H   H106      1.0  0.38850  0.36578  0.54467  1.0000
  H   H107      1.0  0.38046  0.33426  0.51319  1.0000
  H   H108      1.0  0.38010  0.41315  0.46602  1.0000
  H   H109      1.0  0.38632  0.44474  0.49751  1.0000
  C   C135      1.0  0.24660  0.39868  0.35929  1.0000
  C   C136      1.0  0.26394  0.38014  0.37411  1.0000
  C   C137      1.0  0.29370  0.38295  0.37362  1.0000
  C   C138      1.0  0.30648  0.40393  0.35796  1.0000
  C   C139      1.0  0.28917  0.42227  0.34303  1.0000
  C   C140      1.0  0.25937  0.41993  0.34386  1.0000
  H   H110      1.0  0.25430  0.36355  0.38609  1.0000
  H   H111      1.0  0.30682  0.36866  0.38512  1.0000
  H   H112      1.0  0.29886  0.43863  0.33090  1.0000
  H   H113      1.0  0.29395  0.32160  0.31475  1.0000
  S   S26       1.0  0.15191  0.46048  0.34570  1.0000
  H   H114      1.0  0.47235  0.07743  0.62593  1.0000
  C   C141      1.0  0.43934  0.36886  0.32294  1.0000
  H   H115      1.0  0.24340  0.46240  0.46346  1.0000
  H   H116      1.0  0.98996  0.42958  0.38625  1.0000
  H   H117      1.0  0.00771  0.39593  0.35942  1.0000
  C   C142      1.0  0.18857  0.47659  0.56165  1.0000
  H   H118      1.0  0.19428  0.43161  0.39598  1.0000
  C   C143      1.0  0.43346  0.22361  0.35357  1.0000
  C   C144      1.0  0.46126  0.23430  0.35171  1.0000
  H   H119      1.0  0.36122  0.24194  0.61193  1.0000
  C   C145      1.0  0.44762  0.27943  0.36951  1.0000
  C   C146      1.0  0.41979  0.26881  0.37128  1.0000
  C   C147      1.0  0.41276  0.24116  0.36326  1.0000
  C   C148      1.0  0.29718  0.30668  0.37148  1.0000
  H   H120      1.0  0.35764  0.48052  0.45025  1.0000
  H   H121      1.0  0.40385  0.28166  0.37917  1.0000
  C   C149      1.0  0.28943  0.44009  0.57659  1.0000
  C   C150      1.0  0.27692  0.41948  0.59286  1.0000
  C   C151      1.0  0.28853  0.39074  0.59762  1.0000
  C   C152      1.0  0.31278  0.38236  0.58632  1.0000
  C   C153      1.0  0.32555  0.40276  0.57029  1.0000
  C   C154      1.0  0.31407  0.43156  0.56549  1.0000
  C   C155      1.0  0.46825  0.26203  0.35963  1.0000
  C   C156      1.0  0.98571  0.40292  0.35834  1.0000
  H   H122      1.0  0.25875  0.42563  0.60249  1.0000
  H   H123      1.0  0.27939  0.37538  0.61080  1.0000
  H   H124      1.0  0.32211  0.36034  0.59046  1.0000
  H   H125      1.0  0.34472  0.39646  0.56189  1.0000
  H   H126      1.0  0.27475  0.44948  0.52883  1.0000
  H   H127      1.0  0.08319  0.36343  0.33905  1.0000
  C   C157      1.0  0.34771  0.04766  0.32063  1.0000
  C   C158      1.0  0.01216  0.32086  0.33605  1.0000
  C   C159      1.0  0.27865  0.38724  0.52520  1.0000
  C   C160      1.0  0.30345  0.38714  0.51243  1.0000
  C   C161      1.0  0.30248  0.39541  0.48923  1.0000
  C   C162      1.0  0.27687  0.40496  0.47869  1.0000
  H   H128      1.0  0.47743  0.22109  0.34434  1.0000
  P   P6        1.0  0.27541  0.41194  0.44836  1.0000
  C   C163      1.0  0.30307  0.43619  0.43635  1.0000
  C   C164      1.0  0.27957  0.37503  0.43922  1.0000
  C   C165      1.0  0.30686  0.36383  0.43546  1.0000
  C   C166      1.0  0.31076  0.33370  0.43190  1.0000
  C   C167      1.0  0.28749  0.31461  0.43182  1.0000
  C   C168      1.0  0.26020  0.32567  0.43525  1.0000
  C   C169      1.0  0.25626  0.35567  0.43927  1.0000
  C   C170      1.0  0.30505  0.44138  0.41282  1.0000
  H   H129      1.0  0.22526  0.47782  0.54048  1.0000
  C   C171      1.0  0.38833  0.33891  0.31592  1.0000
  H   H130      1.0  0.41347  0.29835  0.32441  1.0000
  H   H131      1.0  0.32491  0.44724  0.55349  1.0000
  C   C172      1.0  0.24284  0.43042  0.43854  1.0000
  C   C173      1.0  0.28554  0.48363  0.50253  1.0000
  C   C174      1.0  0.41332  0.32263  0.32189  1.0000
  C   C175      1.0  0.23249  0.45499  0.44907  1.0000
  C   C176      1.0  0.30339  0.31736  0.33126  1.0000
  C   C177      1.0  0.22909  0.42240  0.41915  1.0000
  C   C178      1.0  0.41448  0.38527  0.31781  1.0000
  H   H132      1.0  0.27934  0.38028  0.54312  1.0000
  H   H133      1.0  0.32338  0.37988  0.52035  1.0000
  H   H134      1.0  0.32163  0.39351  0.47942  1.0000
  C   C179      1.0  0.18075  0.30809  0.31922  1.0000
  H   H135      1.0  0.32535  0.37794  0.43620  1.0000
  H   H136      1.0  0.33205  0.32501  0.42998  1.0000
  H   H137      1.0  0.29072  0.29114  0.42948  1.0000
  H   H138      1.0  0.24217  0.31080  0.43543  1.0000
  H   H139      1.0  0.23517  0.36352  0.44299  1.0000
  C   C180      1.0  0.23483  0.26384  0.31876  1.0000
  H   H140      1.0  0.04029  0.39071  0.32531  1.0000
  C   C181      1.0  0.34969  0.30985  0.63127  1.0000
  H   H141      1.0  0.29075  0.43039  0.40208  1.0000
  C   C182      1.0  0.45869  0.42913  0.50058  1.0000
  S   S27       1.0  0.13731  0.39492  0.32878  1.0000
  C   C183      1.0  0.43608  0.27836  0.62448  1.0000
  H   H142      1.0  0.23151  0.40938  0.48371  1.0000
  C   C184      1.0  0.32193  0.45078  0.44983  1.0000
  H   H143      1.0  0.23730  0.40459  0.40998  1.0000
  C   C185      1.0  0.06348  0.35137  0.33810  1.0000
  H   H144      1.0  0.24629  0.43450  0.33250  1.0000
  S   S28       1.0  0.45803  0.03927  0.34735  1.0000
  H   H145      1.0  0.12937  0.26512  0.34641  1.0000
  C   C186      1.0  0.03682  0.30528  0.34342  1.0000
  S   S29       1.0  0.42345  0.18863  0.34413  1.0000
  H   H146      1.0  0.15915  0.26739  0.31236  1.0000
  Fe  Fe11      1.0  0.46640  0.08616  0.33074  1.0000
  C   C187      1.0  0.01307  0.35185  0.32949  1.0000
  C   C188      1.0  0.25190  0.40426  0.49157  1.0000
  C   C189      1.0  0.39180  0.01984  0.31984  1.0000
  C   C190      1.0  0.14451  0.28310  0.34315  1.0000
  C   C191      1.0  0.14711  0.30489  0.35822  1.0000
  C   C192      1.0  0.16658  0.32808  0.35396  1.0000
  C   C193      1.0  0.18333  0.32974  0.33455  1.0000
  H   H147      1.0  0.25947  0.22880  0.33721  1.0000
  C   C194      1.0  0.99738  0.47463  0.33421  1.0000
  H   H148      1.0  0.33562  0.30028  0.39098  1.0000
  C   C195      1.0  0.33301  0.31616  0.33398  1.0000
  C   C196      1.0  0.34260  0.47001  0.43983  1.0000
  H   H149      1.0  0.36268  0.20861  0.32472  1.0000
  C   C197      1.0  0.33354  0.02422  0.31167  1.0000
  H   H150      1.0  0.42114  0.29065  0.61323  1.0000
  C   C198      1.0  0.36009  0.25894  0.62362  1.0000
  H   H151      1.0  0.28333  0.30342  0.38593  1.0000
  H   H152      1.0  0.26277  0.31443  0.34791  1.0000
  C   C199      1.0  0.43483  0.24676  0.62809  1.0000
  S   S30       1.0  0.44842  0.47930  0.63435  1.0000
  H   H153      1.0  0.45570  0.47994  0.53920  1.0000
  C   C200      1.0  0.28558  0.31291  0.34999  1.0000
  H   H154      1.0  0.34227  0.33229  0.62570  1.0000
  H   H155      1.0  0.13399  0.30395  0.37318  1.0000
  H   H156      1.0  0.16848  0.34517  0.36554  1.0000
  H   H157      1.0  0.19784  0.34823  0.33155  1.0000
  C   C201      1.0  0.16137  0.28456  0.32380  1.0000
  H   H158      1.0  0.02383  0.44096  0.32100  1.0000
  C   C202      1.0  0.34449  0.31014  0.35564  1.0000
  H   H159      1.0  0.24074  0.47591  0.61189  1.0000
  H   H160      1.0  0.41897  0.23487  0.61944  1.0000
  H   H161      1.0  0.33622  0.06767  0.32423  1.0000
  C   C203      1.0  0.25287  0.39569  0.51477  1.0000
  S   S31       1.0  0.20922  0.39453  0.36077  1.0000
  H   H162      1.0  0.43958  0.43640  0.50852  1.0000
  C   C204      1.0  0.19415  0.46179  0.42192  1.0000
  C   C205      1.0  0.34440  0.47502  0.41637  1.0000
  C   C206      1.0  0.38908  0.37042  0.31444  1.0000
  Fe  Fe12      1.0  0.43008  0.37040  0.61825  1.0000
  H   H163      1.0  0.34440  0.29340  0.59884  1.0000
  C   C207      1.0  0.03899  0.36689  0.33042  1.0000
  H   H164      1.0  0.43962  0.42933  0.46766  1.0000
  H   H165      1.0  0.33246  0.47741  0.58991  1.0000
  H   H166      1.0  0.36726  0.30898  0.35804  1.0000
  Fe  Fe13      1.0  0.45184  0.15409  0.32886  1.0000
  C   C208      1.0  0.32566  0.46064  0.40288  1.0000
  C   C209      1.0  0.20807  0.47042  0.44091  1.0000
  Fe  Fe14      1.0  0.11319  0.43711  0.33418  1.0000
  C   C210      1.0  0.02233  0.45722  0.33316  1.0000
  C   C211      1.0  0.45734  0.29377  0.63483  1.0000
  H   H167      1.0  0.46445  0.13233  0.62570  1.0000
  C   C212      1.0  0.25883  0.24551  0.32277  1.0000
  H   H168      1.0  0.03600  0.28135  0.34825  1.0000
  H   H169      1.0  0.38807  0.06356  0.33154  1.0000
  C   C213      1.0  0.32661  0.30516  0.37430  1.0000
  C   C214      1.0  0.35758  0.25648  0.31694  1.0000
  C   C215      1.0  0.20474  0.43789  0.41101  1.0000
  H   H170      1.0  0.05785  0.48108  0.37755  1.0000
  C   C216      1.0  0.37686  0.04546  0.32469  1.0000
  S   S32       1.0  0.46187  0.33316  0.62945  1.0000
  Fe  Fe15      1.0  0.37273  0.39954  0.62710  1.0000
  H   H171      1.0  0.21714  0.26094  0.33029  1.0000
  H   H172      1.0  0.17537  0.47384  0.41540  1.0000
  H   H173      1.0  0.41440  0.01859  0.32284  1.0000
  C   C217      1.0  0.45877  0.42520  0.47763  1.0000
  C   C218      1.0  0.04151  0.47986  0.36495  1.0000
  C   C219      1.0  0.35072  0.28791  0.61623  1.0000
  H   H174      1.0  0.41773  0.48118  0.56736  1.0000
  H   H175      1.0  0.32752  0.46374  0.38467  1.0000
  H   H176      1.0  0.24516  0.34676  0.31362  1.0000
  H   H177      1.0  0.45780  0.32483  0.32977  1.0000
  H   H178      1.0  0.32110  0.44729  0.46797  1.0000
  H   H179      1.0  0.34303  0.25820  0.33074  1.0000
  H   H180      1.0  0.41470  0.40954  0.31710  1.0000
  H   H181      1.0  0.15564  0.47521  0.58687  1.0000
  C   C220      1.0  0.23704  0.47714  0.57567  1.0000
  H   H182      1.0  0.37022  0.38385  0.31114  1.0000
  H   H183      1.0  0.32320  0.45129  0.63471  1.0000
  C   C221      1.0  0.43871  0.33758  0.32502  1.0000
  H   H184      1.0  0.30038  0.23412  0.31116  1.0000
  C   C222      1.0  0.37780  0.99596  0.31117  1.0000
  C   C223      1.0  0.36852  0.22817  0.31353  1.0000
  H   H185      1.0  0.28409  0.46867  0.48943  1.0000
  C   C224      1.0  0.28036  0.47276  0.52490  1.0000
  C   C225      1.0  0.21784  0.47724  0.55763  1.0000
  Fe  Fe16      1.0  0.15658  0.47672  0.30888  1.0000
  P   P7        1.0  0.35608  0.31938  0.30976  1.0000
  C   C226      1.0  0.17828  0.47574  0.58367  1.0000
  C   C227      1.0  0.19724  0.47553  0.60167  1.0000
  C   C228      1.0  0.22644  0.47621  0.59769  1.0000
  P   P8        1.0  0.27497  0.47764  0.57089  1.0000
  H   H186      1.0  0.17380  0.47670  0.54772  1.0000
  H   H187      1.0  0.18939  0.47476  0.61882  1.0000
  H   H188      1.0  0.31104  0.02611  0.30814  1.0000
  H   H189      1.0  0.28208  0.48477  0.64051  1.0000
  H   H190      1.0  0.46416  0.98662  0.32313  1.0000
  C   C229      1.0  0.28197  0.24860  0.30813  1.0000
  P   P9        1.0  0.98142  0.37221  0.31976  1.0000
  C   C230      1.0  0.28121  0.00027  0.89201  1.0000
  S   S33       1.0  0.18632  0.45301  0.71784  1.0000
  H   H191      1.0  0.37283  0.13966  0.71771  1.0000
  C   C231      1.0  0.35324  0.18294  0.72023  1.0000
  Fe  Fe17      1.0  0.14510  0.43021  0.71151  1.0000
  S   S34       1.0  0.13845  0.38204  0.72563  1.0000
  S   S35       1.0  0.14758  0.44177  0.67394  1.0000
  H   H192      1.0  0.41228  0.21395  0.67933  1.0000
  H   H193      1.0  0.10709  0.39925  0.65377  1.0000
  S   S36       1.0  0.05280  0.32925  0.80157  1.0000
  C   C232      1.0  0.27925  0.01322  0.86963  1.0000
  H   H194      1.0  0.40081  0.12147  0.83848  1.0000
  H   H195      1.0  0.33713  0.17411  0.73194  1.0000
  S   S37       1.0  0.46807  0.17694  0.71110  1.0000
  C   C233      1.0  0.05157  0.01058  0.79623  1.0000
  H   H196      1.0  0.33209  0.06137  0.77681  1.0000
  C   C234      1.0  0.37550  0.22532  0.69859  1.0000
  Fe  Fe18      1.0  0.45702  0.12869  0.72074  1.0000
  S   S38       1.0  0.42337  0.11739  0.74697  1.0000
  S   S39       1.0  0.45856  0.11519  0.68549  1.0000
  H   H197      1.0  0.40972  0.15971  0.69094  1.0000
  C   C235      1.0  0.99165  0.45921  0.84985  1.0000
  H   H198      1.0  0.16648  0.48023  0.79053  1.0000
  H   H199      1.0  0.33867  0.22836  0.72006  1.0000
  C   C236      1.0  0.18115  0.44110  0.77595  1.0000
  H   H200      1.0  0.07397  0.11895  0.93583  1.0000
  Fe  Fe19      1.0  0.00777  0.34319  0.80859  1.0000
  C   C237      1.0  0.30763  0.30560  0.71436  1.0000
  C   C238      1.0  0.43273  0.26037  0.70903  1.0000
  S   S40       1.0  0.22673  0.47454  0.65918  1.0000
  C   C239      1.0  0.15415  0.45701  0.85754  1.0000
  C   C240      1.0  0.31522  0.99213  0.80136  1.0000
  H   H201      1.0  0.47775  0.12591  0.77345  1.0000
  C   C241      1.0  0.35834  0.30304  0.65360  1.0000
  C   C242      1.0  0.01065  0.22338  0.88179  1.0000
  C   C243      1.0  0.05468  0.02560  0.74945  1.0000
  C   C244      1.0  0.99587  0.37169  0.71812  1.0000
  H   H202      1.0  0.32244  0.07447  0.81500  1.0000
  C   C245      1.0  0.35426  0.21375  0.71345  1.0000
  C   C246      1.0  0.39547  0.20554  0.69057  1.0000
  C   C247      1.0  0.41278  0.07965  0.74982  1.0000
  C   C248      1.0  0.41432  0.06231  0.73162  1.0000
  C   C249      1.0  0.40535  0.03233  0.73414  1.0000
  C   C250      1.0  0.39565  0.01928  0.75503  1.0000
  C   C251      1.0  0.39472  0.03647  0.77336  1.0000
  C   C252      1.0  0.40261  0.06679  0.77061  1.0000
  H   H203      1.0  0.42210  0.07208  0.71553  1.0000
  H   H204      1.0  0.38263  0.06915  0.84400  1.0000
  H   H205      1.0  0.38730  0.02665  0.78952  1.0000
  H   H206      1.0  0.40154  0.08009  0.78477  1.0000
  C   C253      1.0  0.48060  0.06087  0.77710  1.0000
  C   C254      1.0  0.45032  0.31571  0.68817  1.0000
  C   C255      1.0  0.00325  0.32884  0.74592  1.0000
  Fe  Fe20      1.0  0.18677  0.46771  0.68085  1.0000
  H   H207      1.0  0.02043  0.18191  0.90128  1.0000
  H   H208      1.0  0.28550  0.30853  0.70963  1.0000
  C   C256      1.0  0.03823  0.40473  0.68903  1.0000
  C   C257      1.0  0.27849  0.40038  0.66132  1.0000
  C   C258      1.0  0.30999  0.99928  0.82328  1.0000
  C   C259      1.0  0.44242  0.10801  0.82828  1.0000
  C   C260      1.0  0.99295  0.20996  0.91969  1.0000
  H   H209      1.0  0.41402  0.02669  0.83710  1.0000
  H   H210      1.0  0.98815  0.44999  0.77824  1.0000
  C   C261      1.0  0.11345  0.36943  0.74649  1.0000
  C   C262      1.0  0.11532  0.33942  0.75543  1.0000
  C   C263      1.0  0.09653  0.32786  0.77218  1.0000
  C   C264      1.0  0.07496  0.34580  0.77990  1.0000
  C   C265      1.0  0.07268  0.37596  0.77090  1.0000
  C   C266      1.0  0.09218  0.38786  0.75434  1.0000
  H   H211      1.0  0.13168  0.32504  0.74956  1.0000
  H   H212      1.0  0.09862  0.30468  0.77909  1.0000
  H   H213      1.0  0.05609  0.39006  0.77674  1.0000
  H   H214      1.0  0.09088  0.41111  0.74766  1.0000
  C   C267      1.0  0.37324  0.16348  0.71215  1.0000
  C   C268      1.0  0.32566  0.28868  0.70187  1.0000
  C   C269      1.0  0.39418  0.17477  0.69718  1.0000
  C   C270      1.0  0.37939  0.99494  0.88167  1.0000
  H   H215      1.0  0.40633  0.01919  0.71993  1.0000
  C   C271      1.0  0.15658  0.39487  0.78734  1.0000
  C   C272      1.0  0.17729  0.41049  0.77431  1.0000
  H   H216      1.0  0.27740  0.37678  0.66719  1.0000
  C   C273      1.0  0.99971  0.00583  0.90144  1.0000
  C   C274      1.0  0.14202  0.44108  0.80238  1.0000
  C   C275      1.0  0.13926  0.40996  0.80161  1.0000
  P   P10       1.0  0.11941  0.46197  0.81969  1.0000
  C   C276      1.0  0.09128  0.44004  0.83336  1.0000
  H   H217      1.0  0.02779  0.36893  0.74428  1.0000
  H   H218      1.0  0.32789  0.00883  0.76782  1.0000
  C   C277      1.0  0.46020  0.27049  0.71263  1.0000
  S   S41       1.0  0.45187  0.19068  0.64656  1.0000
  C   C278      1.0  0.36758  0.27389  0.66128  1.0000
  C   C279      1.0  0.00220  0.46635  0.87056  1.0000
  C   C280      1.0  0.08408  0.44311  0.85587  1.0000
  C   C281      1.0  0.06162  0.42671  0.86606  1.0000
  C   C282      1.0  0.04602  0.40745  0.85382  1.0000
  C   C283      1.0  0.05263  0.40490  0.83129  1.0000
  C   C284      1.0  0.07465  0.42173  0.82093  1.0000
  H   H219      1.0  0.15357  0.37114  0.78603  1.0000
  H   H220      1.0  0.19010  0.39892  0.76275  1.0000
  C   C285      1.0  0.46899  0.29819  0.70223  1.0000
  C   C286      1.0  0.00338  0.44794  0.76487  1.0000
  H   H221      1.0  0.05003  0.16736  0.94030  1.0000
  H   H222      1.0  0.98822  0.47415  0.81446  1.0000
  S   S42       1.0  0.98925  0.38765  0.79596  1.0000
  C   C287      1.0  0.01572  0.42977  0.72908  1.0000
  H   H223      1.0  0.05579  0.42950  0.88328  1.0000
  H   H224      1.0  0.02829  0.39514  0.86161  1.0000
  H   H225      1.0  0.04061  0.38997  0.82179  1.0000
  H   H226      1.0  0.07876  0.42039  0.80321  1.0000
  H   H227      1.0  0.04762  0.05863  0.79792  1.0000
  C   C288      1.0  0.26026  0.11397  0.86418  1.0000
  C   C289      1.0  0.26838  0.08390  0.86390  1.0000
  C   C290      1.0  0.47478  0.24593  0.65353  1.0000
  C   C291      1.0  0.45397  0.23042  0.64278  1.0000
  C   C292      1.0  0.25521  0.00760  0.85678  1.0000
  H   H228      1.0  0.45723  0.33685  0.67966  1.0000
  H   H229      1.0  0.23867  0.11957  0.86852  1.0000
  H   H230      1.0  0.25273  0.06672  0.86812  1.0000
  C   C293      1.0  0.32302  0.01454  0.78464  1.0000
  C   C294      1.0  0.99630  0.43203  0.74665  1.0000
  H   H231      1.0  0.25330  0.01718  0.83946  1.0000
  C   C295      1.0  0.41445  0.10277  0.83542  1.0000
  C   C296      1.0  0.40416  0.07345  0.83850  1.0000
  C   C297      1.0  0.42179  0.04944  0.83448  1.0000
  C   C298      1.0  0.44961  0.05458  0.82718  1.0000
  C   C299      1.0  0.04942  0.45859  0.74858  1.0000
  H   H232      1.0  0.42629  0.23913  0.71769  1.0000
  C   C300      1.0  0.05491  0.98806  0.78160  1.0000
  C   C301      1.0  0.29632  0.07637  0.85830  1.0000
  H   H233      1.0  0.29955  0.00405  0.90225  1.0000
  H   H234      1.0  0.35503  0.32638  0.75282  1.0000
  C   C302      1.0  0.08779  0.40060  0.66344  1.0000
  S   S43       1.0  0.99218  0.34466  0.84417  1.0000
  C   C303      1.0  0.31822  0.31921  0.73269  1.0000
  H   H235      1.0  0.05017  0.07146  0.75701  1.0000
  H   H236      1.0  0.34770  0.01127  0.68921  1.0000
  H   H237      1.0  0.23617  0.41026  0.67292  1.0000
  H   H238      1.0  0.38710  0.29672  0.73090  1.0000
  H   H239      1.0  0.07029  0.46791  0.74943  1.0000
  C   C304      1.0  0.03518  0.09379  0.93668  1.0000
  C   C305      1.0  0.00924  0.20306  0.90115  1.0000
  C   C306      1.0  0.14253  0.47654  0.84002  1.0000
  C   C307      1.0  0.28094  0.46117  0.64625  1.0000
  S   S44       1.0  0.11730  0.46932  0.71787  1.0000
  H   H240      1.0  0.34121  0.07025  0.88905  1.0000
  C   C308      1.0  0.35178  0.04943  0.88639  1.0000
  C   C309      1.0  0.32013  0.05142  0.81165  1.0000
  C   C310      1.0  0.31587  0.09954  0.85293  1.0000
  H   H241      1.0  0.46290  0.03564  0.82405  1.0000
  H   H242      1.0  0.12379  0.39711  0.81173  1.0000
  C   C311      1.0  0.35381  0.99029  0.68285  1.0000
  P   P11       1.0  0.30689  0.03747  0.85747  1.0000
  C   C312      1.0  0.01056  0.35764  0.73678  1.0000
  H   H243      1.0  0.18120  0.45282  0.88683  1.0000
  C   C313      1.0  0.41403  0.27754  0.69446  1.0000
  Fe  Fe21      1.0  0.12223  0.48272  0.68088  1.0000
  H   H244      1.0  0.41297  0.01140  0.90138  1.0000
  P   P12       1.0  0.00690  0.40836  0.70602  1.0000
  C   C314      1.0  0.32542  0.04417  0.78976  1.0000
  C   C315      1.0  0.35456  0.28556  0.70748  1.0000
  C   C316      1.0  0.31244  0.02899  0.82869  1.0000
  C   C317      1.0  0.23354  0.98926  0.86616  1.0000
  C   C318      1.0  0.46017  0.08390  0.82395  1.0000
  C   C319      1.0  0.33949  0.02888  0.87295  1.0000
  H   H245      1.0  0.07165  0.43937  0.64300  1.0000
  H   H246      1.0  0.99640  0.26608  0.86560  1.0000
  C   C320      1.0  0.11848  0.99342  0.86910  1.0000
  P   P13       1.0  0.37809  0.26523  0.69043  1.0000
  H   H247      1.0  0.03592  0.47230  0.78057  1.0000
  H   H248      1.0  0.33749  0.09439  0.84853  1.0000
  H   H249      1.0  0.01221  0.24447  0.95280  1.0000
  H   H250      1.0  0.02279  0.21784  0.86735  1.0000
  C   C321      1.0  0.37821  0.04316  0.89661  1.0000
  H   H251      1.0  0.35754  0.32064  0.66484  1.0000
  H   H252      1.0  0.99308  0.09708  0.86344  1.0000
  S   S45       1.0  0.41448  0.39760  0.64552  1.0000
  H   H253      1.0  0.04154  0.01402  0.91406  1.0000
  H   H254      1.0  0.45888  0.06506  0.78158  1.0000
  H   H255      1.0  0.05763  0.44235  0.71673  1.0000
  C   C322      1.0  0.39222  0.01613  0.89392  1.0000
  C   C323      1.0  0.25510  0.41932  0.66466  1.0000
  C   C324      1.0  0.02794  0.99789  0.90713  1.0000
  C   C325      1.0  0.05152  0.04815  0.76387  1.0000
  P   P14       1.0  0.05027  0.00058  0.82633  1.0000
  P   P15       1.0  0.99061  0.18417  0.94495  1.0000
  C   C326      1.0  0.25615  0.44986  0.65702  1.0000
  C   C327      1.0  0.03746  0.14728  0.93975  1.0000
  S   S46       1.0  0.33176  0.38689  0.64600  1.0000
  H   H256      1.0  0.09519  0.45870  0.86542  1.0000
  H   H257      1.0  0.99337  0.07468  0.93872  1.0000
  H   H258      1.0  0.37581  0.22938  0.65114  1.0000
  H   H259      1.0  0.06955  0.05820  0.83976  1.0000
  C   C328      1.0  0.42303  0.30539  0.68416  1.0000
  C   C329      1.0  0.27987  0.13680  0.85883  1.0000
  C   C330      1.0  0.00319  0.02853  0.84448  1.0000
  Fe  Fe22      1.0  0.47284  0.16305  0.67625  1.0000
  C   C331      1.0  0.05109  0.11992  0.93727  1.0000
  H   H260      1.0  0.98332  0.39792  0.66224  1.0000
  C   C332      1.0  0.34683  0.31572  0.73865  1.0000
  H   H261      1.0  0.38798  0.05928  0.90654  1.0000
  H   H262      1.0  0.01490  0.31827  0.76031  1.0000
  H   H263      1.0  0.47473  0.25670  0.72337  1.0000
  H   H264      1.0  0.09957  0.36396  0.68790  1.0000
  H   H265      1.0  0.02851  0.44367  0.66555  1.0000
  H   H266      1.0  0.30428  0.33264  0.74216  1.0000
  C   C333      1.0  0.35301  0.00114  0.87146  1.0000
  C   C334      1.0  0.30316  0.41173  0.65038  1.0000
  H   H267      1.0  0.04564  0.07254  0.93475  1.0000
  C   C335      1.0  0.05878  0.38256  0.69532  1.0000
  C   C336      1.0  0.04320  0.42536  0.67016  1.0000
  H   H268      1.0  0.47312  0.44559  0.68102  1.0000
  C   C337      1.0  0.99687  0.47895  0.83048  1.0000
  C   C338      1.0  0.30767  0.12958  0.85321  1.0000
  C   C339      1.0  0.08344  0.38057  0.68256  1.0000
  H   H269      1.0  0.32287  0.14728  0.84901  1.0000
  H   H270      1.0  0.40922  0.31917  0.67287  1.0000
  C   C340      1.0  0.04715  0.05625  0.84358  1.0000
  C   C341      1.0  0.00776  0.14876  0.94132  1.0000
  C   C342      1.0  0.47679  0.27733  0.64915  1.0000
  C   C343      1.0  0.03226  0.03025  0.83943  1.0000
  C   C344      1.0  0.04217  0.44363  0.73000  1.0000
  H   H271      1.0  0.05636  0.36719  0.71031  1.0000
  C   C345      1.0  0.00570  0.09503  0.93867  1.0000
  H   H272      1.0  0.99182  0.02788  0.90407  1.0000
  C   C346      1.0  0.05007  0.04073  0.78717  1.0000
  H   H273      1.0  0.19733  0.45333  0.76605  1.0000
  H   H274      1.0  0.07503  0.00749  0.87054  1.0000
  H   H275      1.0  0.14898  0.43336  0.85903  1.0000
  C   C347      1.0  0.00410  0.07844  0.85689  1.0000
  C   C348      1.0  0.36845  0.25191  0.64604  1.0000
  C   C349      1.0  0.03312  0.08018  0.85230  1.0000
  C   C350      1.0  0.17245  0.46795  0.87324  1.0000
  H   H276      1.0  0.44999  0.13085  0.82598  1.0000
  C   C351      1.0  0.99196  0.12246  0.94065  1.0000
  H   H277      1.0  0.04461  0.10024  0.85535  1.0000
  C   C352      1.0  0.99576  0.25057  0.88076  1.0000
  H   H278      1.0  0.05582  0.03143  0.73141  1.0000
  C   C353      1.0  0.09162  0.99995  0.85982  1.0000
  C   C354      1.0  0.36496  0.29893  0.72613  1.0000
  H   H279      1.0  0.31714  0.27846  0.68761  1.0000
  H   H280      1.0  0.99779  0.45174  0.88568  1.0000
  C   C355      1.0  0.03016  0.46074  0.76609  1.0000
  H   H281      1.0  0.27350  0.16009  0.85900  1.0000
  C   C356      1.0  0.16359  0.45633  0.78988  1.0000
  C   C357      1.0  0.01620  0.22907  0.96760  1.0000
  H   H282      1.0  0.11425  0.47940  0.77056  1.0000
  C   C358      1.0  0.06776  0.42308  0.65732  1.0000
  C   C359      1.0  0.98287  0.00954  0.97220  1.0000
  H   H283      1.0  0.46849  0.04125  0.74706  1.0000
  H   H284      1.0  0.32906  0.99817  0.65246  1.0000
  H   H285      1.0  0.46478  0.39195  0.67663  1.0000
  H   H286      1.0  0.99108  0.00869  0.84217  1.0000
  C   C360      1.0  0.05641  0.99557  0.75832  1.0000
  C   C361      1.0  0.98921  0.05261  0.85301  1.0000
  H   H287      1.0  0.12235  0.99612  0.88669  1.0000
  H   H288      1.0  0.46927  0.00515  0.70447  1.0000
  C   C362      1.0  0.08591  0.99530  0.83735  1.0000
  C   C363      1.0  0.30429  0.44227  0.64294  1.0000
  C   C364      1.0  0.00810  0.19884  0.96849  1.0000
  Fe  Fe23      1.0  0.08234  0.92336  0.11863  1.0000
  S   S47       1.0  0.08636  0.88512  0.09703  1.0000
  S   S48       1.0  0.03737  0.93616  0.12861  1.0000
  Fe  Fe24      1.0  0.14787  0.92938  0.12251  1.0000
  S   S49       1.0  0.15584  0.89245  0.10029  1.0000
  S   S50       1.0  0.18075  0.95413  0.14198  1.0000
  Fe  Fe25      1.0  0.12009  0.91337  0.07894  1.0000
  S   S51       1.0  0.11476  0.92618  0.04152  1.0000
  Fe  Fe26      1.0  0.12130  0.86747  0.12038  1.0000
  S   S52       1.0  0.13026  0.82034  0.13724  1.0000
  S   S53       1.0  0.11444  0.95246  0.09960  1.0000
  S   S54       1.0  0.11498  0.90356  0.14350  1.0000
  H   H289      1.0  0.37271  0.95076  0.26208  1.0000
  H   H290      1.0  0.06145  0.96321  0.04052  1.0000
  S   S55       1.0  0.35529  0.93659  0.20669  1.0000
  C   C365      1.0  0.38631  0.76471  0.19618  1.0000
  Fe  Fe27      1.0  0.39994  0.92394  0.19837  1.0000
  S   S56       1.0  0.42479  0.88136  0.20798  1.0000
  S   S57       1.0  0.39338  0.93439  0.16131  1.0000
  Fe  Fe28      1.0  0.04531  0.59321  0.16824  1.0000
  S   S58       1.0  0.05030  0.59057  0.20585  1.0000
  S   S59       1.0  0.03797  0.55266  0.14896  1.0000
  Fe  Fe29      1.0  0.05647  0.66158  0.16150  1.0000
  S   S60       1.0  0.06259  0.66375  0.19852  1.0000
  S   S61       1.0  0.05506  0.70269  0.13545  1.0000
  Fe  Fe30      1.0  0.08752  0.62066  0.19834  1.0000
  S   S62       1.0  0.13061  0.61531  0.21508  1.0000
  Fe  Fe31      1.0  0.02478  0.63351  0.20277  1.0000
  S   S63       1.0  0.08449  0.62084  0.16068  1.0000
  S   S64       1.0  0.01667  0.63386  0.16575  1.0000
  H   H291      1.0  0.04295  0.68044  0.24855  1.0000
  C   C366      1.0  0.43409  0.94698  0.27185  1.0000
  C   C367      1.0  0.14017  0.58816  0.23748  1.0000
  C   C368      1.0  0.16715  0.59033  0.24689  1.0000
  C   C369      1.0  0.17596  0.57021  0.26504  1.0000
  C   C370      1.0  0.15827  0.54700  0.27382  1.0000
  C   C371      1.0  0.13125  0.54424  0.26426  1.0000
  C   C372      1.0  0.12204  0.56521  0.24631  1.0000
  H   H292      1.0  0.18123  0.60804  0.24032  1.0000
  C   C373      1.0  0.47371  0.91457  0.16242  1.0000
  H   H293      1.0  0.11735  0.52652  0.27103  1.0000
  H   H294      1.0  0.10097  0.56400  0.23943  1.0000
  H   H295      1.0  0.09520  0.67521  0.24454  1.0000
  C   C374      1.0  0.98965  0.96277  0.03323  1.0000
  H   H296      1.0  0.29976  0.81465  0.23655  1.0000
  C   C375      1.0  0.02534  0.51901  0.16338  1.0000
  C   C376      1.0  0.98932  0.51872  0.27985  1.0000
  C   C377      1.0  0.43361  0.77864  0.18326  1.0000
  H   H297      1.0  0.01683  0.94184  0.98095  1.0000
  C   C378      1.0  0.38823  0.80319  0.30212  1.0000
  C   C379      1.0  0.43271  0.87299  0.23668  1.0000
  H   H298      1.0  0.46630  0.94114  0.13082  1.0000
  H   H299      1.0  0.45126  0.77624  0.17195  1.0000
  C   C380      1.0  0.05395  0.81101  0.17387  1.0000
  C   C381      1.0  0.45942  0.86101  0.24303  1.0000
  C   C382      1.0  0.07807  0.72265  0.07741  1.0000
  H   H300      1.0  0.06430  0.89658  0.17589  1.0000
  C   C383      1.0  0.14507  0.87563  0.98269  1.0000
  C   C384      1.0  0.27794  0.93990  0.14584  1.0000
  C   C385      1.0  0.26196  0.92785  0.12897  1.0000
  C   C386      1.0  0.23230  0.93214  0.12750  1.0000
  C   C387      1.0  0.21820  0.94861  0.14286  1.0000
  H   H301      1.0  0.06194  0.89593  0.04560  1.0000
  C   C388      1.0  0.26392  0.95677  0.16102  1.0000
  C   C389      1.0  0.46567  0.85253  0.26580  1.0000
  H   H302      1.0  0.22030  0.92295  0.11442  1.0000
  C   C390      1.0  0.40432  0.78644  0.28818  1.0000
  H   H303      1.0  0.47528  0.85818  0.23033  1.0000
  C   C391      1.0  0.10838  0.78835  0.13693  1.0000
  C   C392      1.0  0.08487  0.78792  0.12267  1.0000
  C   C393      1.0  0.06879  0.76155  0.12241  1.0000
  C   C394      1.0  0.07563  0.73556  0.13671  1.0000
  C   C395      1.0  0.09880  0.73624  0.15130  1.0000
  C   C396      1.0  0.11523  0.76241  0.15122  1.0000
  H   H304      1.0  0.07925  0.80776  0.11171  1.0000
  H   H305      1.0  0.05086  0.76134  0.11112  1.0000
  H   H306      1.0  0.10430  0.71644  0.16238  1.0000
  H   H307      1.0  0.13334  0.76257  0.16235  1.0000
  H   H308      1.0  0.41356  0.81905  0.22582  1.0000
  C   C397      1.0  0.15837  0.87031  0.00379  1.0000
  C   C398      1.0  0.14874  0.88473  0.02233  1.0000
  C   C399      1.0  0.12608  0.90512  0.01964  1.0000
  C   C400      1.0  0.11273  0.91029  0.99858  1.0000
  C   C401      1.0  0.31928  0.71176  0.24893  1.0000
  H   H309      1.0  0.17647  0.85536  0.00562  1.0000
  H   H310      1.0  0.15930  0.88074  0.03846  1.0000
  H   H311      1.0  0.09500  0.92576  0.99650  1.0000
  C   C402      1.0  0.31021  0.83023  0.22425  1.0000
  H   H312      1.0  0.03453  0.77479  0.03429  1.0000
  H   H313      1.0  0.27803  0.73329  0.20327  1.0000
  H   H314      1.0  0.29665  0.89504  0.19086  1.0000
  H   H315      1.0  0.33407  0.82450  0.26649  1.0000
  H   H316      1.0  0.32180  0.69347  0.26212  1.0000
  H   H317      1.0  0.12067  0.63298  0.26583  1.0000
  P   P16       1.0  0.99977  0.81756  0.15465  1.0000
  C   C403      1.0  0.35135  0.84587  0.20191  1.0000
  C   C404      1.0  0.11352  0.50348  0.18405  1.0000
  H   H318      1.0  0.33715  0.98090  0.29961  1.0000
  H   H319      1.0  0.42786  0.92419  0.27662  1.0000
  H   H320      1.0  0.30995  0.77688  0.20152  1.0000
  C   C405      1.0  0.00587  0.75528  0.16337  1.0000
  C   C406      1.0  0.39494  0.78289  0.26638  1.0000
  Fe  Fe32      1.0  0.34963  0.95048  0.16962  1.0000
  Fe  Fe33      1.0  0.37316  0.98284  0.20818  1.0000
  H   H321      1.0  0.01425  0.81475  0.06012  1.0000
  C   C407      1.0  0.29788  0.71065  0.23280  1.0000
  C   C408      1.0  0.10086  0.74230  0.97789  1.0000
  C   C409      1.0  0.37285  0.93463  0.29753  1.0000
  H   H322      1.0  0.04388  0.49343  0.27999  1.0000
  C   C410      1.0  0.23425  0.96117  0.15946  1.0000
  Fe  Fe34      1.0  0.40912  0.98012  0.16674  1.0000
  C   C411      1.0  0.06227  0.51283  0.24883  1.0000
  H   H323      1.0  0.05207  0.78716  0.17278  1.0000
  H   H324      1.0  0.09279  0.52420  0.12999  1.0000
  C   C412      1.0  0.27267  0.85762  0.06401  1.0000
  C   C413      1.0  0.25042  0.87726  0.05716  1.0000
  C   C414      1.0  0.22862  0.88233  0.07217  1.0000
  C   C415      1.0  0.22907  0.86785  0.09402  1.0000
  C   C416      1.0  0.25140  0.84835  0.10116  1.0000
  C   C417      1.0  0.27312  0.84308  0.08589  1.0000
  P   P17       1.0  0.25097  0.82822  0.12897  1.0000
  C   C418      1.0  0.23161  0.84987  0.14807  1.0000
  C   C419      1.0  0.23277  0.79301  0.12766  1.0000
  C   C420      1.0  0.23056  0.78004  0.10724  1.0000
  C   C421      1.0  0.21422  0.75430  0.10593  1.0000
  C   C422      1.0  0.20014  0.74123  0.12500  1.0000
  C   C423      1.0  0.20279  0.75356  0.14550  1.0000
  C   C424      1.0  0.21921  0.77920  0.14690  1.0000
  C   C425      1.0  0.24577  0.86749  0.16269  1.0000
  C   C426      1.0  0.23035  0.88451  0.17697  1.0000
  C   C427      1.0  0.20073  0.88406  0.17679  1.0000
  C   C428      1.0  0.18651  0.86625  0.16258  1.0000
  C   C429      1.0  0.20182  0.84934  0.14822  1.0000
  C   C430      1.0  0.28727  0.82254  0.13832  1.0000
  C   C431      1.0  0.30652  0.84642  0.13548  1.0000
  C   C432      1.0  0.33479  0.84220  0.14217  1.0000
  C   C433      1.0  0.34417  0.81407  0.15164  1.0000
  C   C434      1.0  0.32521  0.79011  0.15439  1.0000
  C   C435      1.0  0.29680  0.79431  0.14785  1.0000
  H   H325      1.0  0.28962  0.85376  0.05237  1.0000
  H   H326      1.0  0.25009  0.88864  0.04025  1.0000
  H   H327      1.0  0.21136  0.89764  0.06691  1.0000
  H   H328      1.0  0.21208  0.87209  0.10536  1.0000
  H   H329      1.0  0.29038  0.82773  0.09083  1.0000
  H   H330      1.0  0.24091  0.79002  0.09219  1.0000
  H   H331      1.0  0.21203  0.74477  0.09003  1.0000
  H   H332      1.0  0.18692  0.72171  0.12388  1.0000
  H   H333      1.0  0.19150  0.74365  0.16018  1.0000
  H   H334      1.0  0.22052  0.78877  0.16284  1.0000
  H   H335      1.0  0.26858  0.86912  0.16260  1.0000
  H   H336      1.0  0.24130  0.89916  0.18743  1.0000
  H   H337      1.0  0.18878  0.89825  0.18712  1.0000
  H   H338      1.0  0.16354  0.86599  0.16228  1.0000
  H   H339      1.0  0.19026  0.83625  0.13696  1.0000
  H   H340      1.0  0.29967  0.86848  0.12824  1.0000
  H   H341      1.0  0.34933  0.86096  0.14013  1.0000
  H   H342      1.0  0.36612  0.81097  0.15685  1.0000
  H   H343      1.0  0.33256  0.76824  0.16151  1.0000
  H   H344      1.0  0.28244  0.77551  0.15008  1.0000
  C   C436      1.0  0.00554  0.81545  0.12492  1.0000
  C   C437      1.0  0.07912  0.82173  0.18243  1.0000
  H   H345      1.0  0.39109  0.88414  0.24813  1.0000
  H   H346      1.0  0.09618  0.80622  0.18762  1.0000
  C   C438      1.0  0.08273  0.85249  0.18348  1.0000
  C   C439      1.0  0.03627  0.86203  0.16689  1.0000
  H   H347      1.0  0.99853  0.55760  0.22869  1.0000
  C   C440      1.0  0.41190  0.87553  0.25304  1.0000
  H   H348      1.0  0.02051  0.87825  0.16013  1.0000
  C   C441      1.0  0.02103  0.83799  0.11240  1.0000
  C   C442      1.0  0.09797  0.63551  0.26792  1.0000
  C   C443      1.0  0.06127  0.87261  0.17574  1.0000
  C   C444      1.0  0.08362  0.65941  0.25596  1.0000
  C   C445      1.0  0.12711  0.53014  0.18843  1.0000
  C   C446      1.0  0.12833  0.55438  0.17183  1.0000
  C   C447      1.0  0.11636  0.55204  0.15065  1.0000
  C   C448      1.0  0.40928  0.76124  0.18179  1.0000
  H   H349      1.0  0.10249  0.86078  0.18966  1.0000
  H   H350      1.0  0.10931  0.80721  0.07636  1.0000
  C   C449      1.0  0.00127  0.49252  0.19524  1.0000
  H   H351      1.0  0.02151  0.75679  0.15010  1.0000
  C   C450      1.0  0.05428  0.66237  0.25824  1.0000
  C   C451      1.0  0.99969  0.55222  0.24673  1.0000
  C   C452      1.0  0.10137  0.50137  0.16280  1.0000
  H   H352      1.0  0.11454  0.74749  0.06557  1.0000
  C   C453      1.0  0.00348  0.93652  0.06908  1.0000
  H   H353      1.0  0.08267  0.52610  0.21750  1.0000
  C   C454      1.0  0.31274  0.75888  0.21487  1.0000
  H   H354      1.0  0.27588  0.96626  0.17404  1.0000
  H   H355      1.0  0.13643  0.53240  0.20479  1.0000
  H   H356      1.0  0.13810  0.57518  0.17558  1.0000
  H   H357      1.0  0.11671  0.57104  0.13792  1.0000
  H   H358      1.0  0.02198  0.59234  0.25203  1.0000
  H   H359      1.0  0.42448  0.77690  0.29417  1.0000
  H   H360      1.0  0.03605  0.85511  0.07963  1.0000
  C   C455      1.0  0.01172  0.81490  0.07815  1.0000
  H   H361      1.0  0.19671  0.57268  0.27237  1.0000
  C   C456      1.0  0.03214  0.83106  0.16626  1.0000
  H   H362      1.0  0.15479  0.81838  0.09399  1.0000
  C   C457      1.0  0.07158  0.82719  0.02680  1.0000
  C   C458      1.0  0.08300  0.61429  0.28194  1.0000
  C   C459      1.0  0.07578  0.85167  0.03938  1.0000
  C   C460      1.0  0.09984  0.78170  0.00313  1.0000
  H   H363      1.0  0.45361  0.81338  0.20029  1.0000
  P   P18       1.0  0.09404  0.79405  0.03071  1.0000
  C   C461      1.0  0.05341  0.61689  0.28411  1.0000
  C   C462      1.0  0.12753  0.80243  0.04354  1.0000
  C   C463      1.0  0.15290  0.80279  0.03120  1.0000
  C   C464      1.0  0.17867  0.80891  0.04143  1.0000
  C   C465      1.0  0.17931  0.81478  0.06397  1.0000
  C   C466      1.0  0.15428  0.81401  0.07646  1.0000
  C   C467      1.0  0.12850  0.80777  0.06636  1.0000
  S   S65       1.0  0.41835  0.96878  0.20326  1.0000
  H   H364      1.0  0.01417  0.53884  0.19352  1.0000
  C   C468      1.0  0.03924  0.64128  0.27231  1.0000
  H   H365      1.0  0.05546  0.53539  0.25095  1.0000
  C   C469      1.0  0.45288  0.95275  0.25389  1.0000
  C   C470      1.0  0.07627  0.76489  0.04847  1.0000
  C   C471      1.0  0.04693  0.76064  0.04637  1.0000
  C   C472      1.0  0.46085  0.98217  0.24697  1.0000
  H   H366      1.0  0.22358  0.97415  0.17132  1.0000
  H   H367      1.0  0.98313  0.85110  0.19234  1.0000
  C   C473      1.0  0.09182  0.74534  0.06387  1.0000
  C   C474      1.0  0.38769  0.78547  0.21231  1.0000
  H   H368      1.0  0.09302  0.85196  0.05128  1.0000
  H   H369      1.0  0.40818  0.74520  0.16936  1.0000
  H   H370      1.0  0.15294  0.79893  0.01359  1.0000
  H   H371      1.0  0.19805  0.80976  0.03166  1.0000
  H   H372      1.0  0.19914  0.82015  0.07174  1.0000
  C   C475      1.0  0.41779  0.86596  0.27571  1.0000
  H   H373      1.0  0.31588  0.87830  0.28104  1.0000
  S   S66       1.0  0.31503  0.93213  0.14768  1.0000
  C   C476      1.0  0.44474  0.85468  0.28216  1.0000
  C   C477      1.0  0.01510  0.56470  0.28346  1.0000
  C   C478      1.0  0.33741  0.73645  0.24810  1.0000
  H   H374      1.0  0.01638  0.64347  0.27339  1.0000
  H   H375      1.0  0.03060  0.85605  0.12052  1.0000
  C   C479      1.0  0.01310  0.57186  0.26010  1.0000
  C   C480      1.0  0.02413  0.83762  0.08914  1.0000
  H   H376      1.0  0.33698  0.91452  0.25180  1.0000
  C   C481      1.0  0.36963  0.79676  0.25813  1.0000
  C   C482      1.0  0.36278  0.81653  0.29426  1.0000
  C   C483      1.0  0.43506  0.79936  0.19924  1.0000
  C   C484      1.0  0.03329  0.73779  0.05989  1.0000
  H   H377      1.0  0.99793  0.92469  0.08521  1.0000
  C   C485      1.0  0.29513  0.85529  0.21454  1.0000
  C   C486      1.0  0.10301  0.52553  0.14613  1.0000
  C   C487      1.0  0.99581  0.79269  0.09040  1.0000
  H   H378      1.0  0.01177  0.70750  0.17057  1.0000
  H   H379      1.0  0.37314  0.84318  0.19681  1.0000
  H   H380      1.0  0.45162  0.90873  0.16490  1.0000
  H   H381      1.0  0.09477  0.59590  0.29068  1.0000
  H   H382      1.0  0.01522  0.85518  0.99509  1.0000
  C   C488      1.0  0.33413  0.76031  0.23115  1.0000
  C   C489      1.0  0.99244  0.97619  0.12688  1.0000
  H   H383      1.0  0.46066  0.93440  0.24498  1.0000
  C   C490      1.0  0.01405  0.51865  0.18503  1.0000
  H   H384      1.0  0.99179  0.49278  0.21168  1.0000
  C   C491      1.0  0.00342  0.53780  0.29318  1.0000
  H   H385      1.0  0.27337  0.85910  0.21941  1.0000
  H   H386      1.0  0.28379  0.69154  0.23353  1.0000
  P   P19       1.0  0.35755  0.79219  0.22987  1.0000
  C   C492      1.0  0.36405  0.93472  0.27505  1.0000
  C   C493      1.0  0.35356  0.81353  0.27230  1.0000
  C   C494      1.0  0.33850  0.82530  0.21801  1.0000
  C   C495      1.0  0.02044  0.97111  0.11992  1.0000
  H   H387      1.0  0.08995  0.70818  0.08979  1.0000
  C   C496      1.0  0.30809  0.87545  0.19841  1.0000
  C   C497      1.0  0.33601  0.87048  0.19195  1.0000
  C   C498      1.0  0.41226  0.80265  0.21373  1.0000
  H   H388      1.0  0.27254  0.91510  0.11693  1.0000
  C   C499      1.0  0.99157  0.78109  0.16908  1.0000
  C   C500      1.0  0.33176  0.89392  0.28567  1.0000
  H   H389      1.0  0.35390  0.73681  0.26071  1.0000
  H   H390      1.0  0.04821  0.93552  0.07630  1.0000
  C   C501      1.0  0.29465  0.73417  0.21575  1.0000
  H   H391      1.0  0.40158  0.86778  0.28831  1.0000
  C   C502      1.0  0.05587  0.48930  0.26514  1.0000
  H   H392      1.0  0.40771  0.76959  0.25598  1.0000
  C   C503      1.0  0.03188  0.94265  0.06408  1.0000
  C   C504      1.0  0.34368  0.91431  0.26917  1.0000
  H   H393      1.0  0.34593  0.88600  0.17927  1.0000
  H   H394      1.0  0.36759  0.75126  0.19462  1.0000
  C   C505      1.0  0.07836  0.50754  0.22998  1.0000
  C   C506      1.0  0.99245  0.79312  0.11366  1.0000
  C   C507      1.0  0.98237  0.94632  0.05355  1.0000
  S   S67       1.0  0.99135  0.64517  0.22750  1.0000
  C   C508      1.0  0.03928  0.95882  0.04370  1.0000
  C   C509      1.0  0.42279  0.97052  0.28301  1.0000
  C   C510      1.0  0.01817  0.96957  0.02826  1.0000
  C   C511      1.0  0.00039  0.72724  0.17496  1.0000
  C   C512      1.0  0.98753  0.52586  0.25661  1.0000
  C   C513      1.0  0.05812  0.87695  0.03614  1.0000
  C   C514      1.0  0.02473  0.49262  0.15241  1.0000
  H   H395      1.0  0.07519  0.54347  0.29279  1.0000
  C   C515      1.0  0.12211  0.89561  0.98017  1.0000
  H   H396      1.0  0.03335  0.49277  0.13562  1.0000
  P   P20       1.0  0.03309  0.58901  0.30108  1.0000
  S   S68       1.0  0.17086  0.52378  0.29756  1.0000
  H   H397      1.0  0.09373  0.73438  0.01347  1.0000
  C   C516      1.0  0.04939  0.82859  0.01093  1.0000
  C   C517      1.0  0.04883  0.71896  0.07551  1.0000
  C   C518      1.0  0.09786  0.75124  0.99960  1.0000
  H   H398      1.0  0.35059  0.82976  0.30507  1.0000
  C   C519      1.0  0.03625  0.87823  0.02031  1.0000
  C   C520      1.0  0.03188  0.85403  0.00767  1.0000
  H   H399      1.0  0.03827  0.70162  0.08637  1.0000
  H   H400      1.0  0.98596  0.77519  0.08189  1.0000
  H   H401      1.0  0.01065  0.73464  0.05832  1.0000
  C   C521      1.0  0.10540  0.80291  0.98475  1.0000
  H   H402      1.0  0.02304  0.89818  0.01765  1.0000
  H   H403      1.0  0.10717  0.82652  0.98709  1.0000
  H   H404      1.0  0.04588  0.81024  0.00074  1.0000
  P   P21       1.0  0.39735  0.96250  0.30554  1.0000
  H   H405      1.0  0.14188  0.98415  0.97743  1.0000
  H   H406      1.0  0.98156  0.95875  0.13730  1.0000
  H   H407      1.0  0.09894  0.71883  0.97515  1.0000
  C   C522      1.0  0.29428  0.53300  0.51414  1.0000
  H   H408      1.0  0.43989  0.61856  0.39269  1.0000
  H   H409      1.0  0.10829  0.51291  0.31769  1.0000
  C   C523      1.0  0.01712  0.49796  0.36546  1.0000
  C   C524      1.0  0.46296  0.50247  0.46312  1.0000
  C   C525      1.0  0.33394  0.51354  0.61080  1.0000
  C   C526      1.0  0.45654  0.59559  0.44736  1.0000
  C   C527      1.0  0.45677  0.49627  0.55142  1.0000
  C   C528      1.0  0.42905  0.59272  0.45608  1.0000
  C   C529      1.0  0.43591  0.51766  0.58328  1.0000
  H   H410      1.0  0.04802  0.50966  0.62120  1.0000
  C   C530      1.0  0.01426  0.59387  0.59201  1.0000
  C   C531      1.0  0.32067  0.49578  0.59595  1.0000
  C   C532      1.0  0.43273  0.94609  0.36878  1.0000
  C   C533      1.0  0.48057  0.53666  0.56792  1.0000
  C   C534      1.0  0.36046  0.91438  0.31409  1.0000
  C   C535      1.0  0.27776  0.52559  0.59752  1.0000
  C   C536      1.0  0.00617  0.59781  0.63169  1.0000
  H   H411      1.0  0.29036  0.53746  0.54947  1.0000
  C   C537      1.0  0.28245  0.49181  0.54212  1.0000
  H   H412      1.0  0.32919  0.55045  0.63109  1.0000
  H   H413      1.0  0.36090  0.48923  0.40860  1.0000
  C   C538      1.0  0.46301  0.52325  0.49900  1.0000
  C   C539      1.0  0.01481  0.63498  0.32589  1.0000
  C   C540      1.0  0.00736  0.60811  0.31716  1.0000
  C   C541      1.0  0.05586  0.56539  0.31975  1.0000
  C   C542      1.0  0.43143  0.91867  0.32877  1.0000
  H   H414      1.0  0.45209  0.53581  0.51102  1.0000
  H   H415      1.0  0.42795  0.52686  0.47561  1.0000
  H   H416      1.0  0.25599  0.53062  0.59263  1.0000
  C   C543      1.0  0.29231  0.50128  0.58952  1.0000
  C   C544      1.0  0.07460  0.54521  0.31075  1.0000
  C   C545      1.0  0.99530  0.64989  0.33859  1.0000
  H   H417      1.0  0.33062  0.87854  0.32105  1.0000
  H   H418      1.0  0.42593  0.58609  0.47386  1.0000
  H   H419      1.0  0.47276  0.53270  0.36147  1.0000
  C   C546      1.0  0.44685  0.90560  0.34723  1.0000
  H   H420      1.0  0.38431  0.59639  0.44870  1.0000
  C   C547      1.0  0.03681  0.51200  0.63675  1.0000
  H   H421      1.0  0.46210  0.56381  0.39213  1.0000
  H   H422      1.0  0.46092  0.90998  0.38106  1.0000
  C   C548      1.0  0.05058  0.61458  0.61458  1.0000
  H   H423      1.0  0.41949  0.51757  0.59600  1.0000
  C   C549      1.0  0.31909  0.53716  0.61916  1.0000
  H   H424      1.0  0.43115  0.90735  0.31360  1.0000
  H   H425      1.0  0.00116  0.67066  0.34519  1.0000
  H   H426      1.0  0.45205  0.49819  0.44778  1.0000
  H   H427      1.0  0.03574  0.64437  0.32293  1.0000
  C   C550      1.0  0.09277  0.52947  0.34803  1.0000
  H   H428      1.0  0.39602  0.80657  0.31879  1.0000
  C   C551      1.0  0.40560  0.59865  0.44194  1.0000
  H   H429      1.0  0.05484  0.60924  0.57923  1.0000
  C   C552      1.0  0.05535  0.56699  0.34313  1.0000
  C   C553      1.0  0.46073  0.60436  0.42433  1.0000
  C   C554      1.0  0.04116  0.60632  0.59384  1.0000
  C   C555      1.0  0.44792  0.91952  0.36712  1.0000
  C   C556      1.0  0.09327  0.52771  0.32481  1.0000
  H   H430      1.0  0.10695  0.51542  0.35888  1.0000
  C   C557      1.0  0.41666  0.94582  0.33000  1.0000
  C   C558      1.0  0.47963  0.51627  0.55152  1.0000
  C   C559      1.0  0.43706  0.61097  0.41037  1.0000
  H   H431      1.0  0.01522  0.51361  0.37808  1.0000
  C   C560      1.0  0.45863  0.53748  0.58360  1.0000
  S   S69       1.0  0.45137  0.84217  0.31057  1.0000
  H   H432      1.0  0.00704  0.58707  0.57606  1.0000
  H   H433      1.0  0.07297  0.54991  0.37525  1.0000
  C   C561      1.0  0.28910  0.52215  0.53656  1.0000
  H   H434      1.0  0.29666  0.52212  0.47978  1.0000
  C   C562      1.0  0.07372  0.54899  0.35720  1.0000
  H   H435      1.0  0.07155  0.62402  0.61578  1.0000
  C   C563      1.0  0.44933  0.51854  0.47888  1.0000
  H   H436      1.0  0.03752  0.67195  0.62523  1.0000
  H   H437      1.0  0.43389  0.95720  0.38408  1.0000
  C   C564      1.0  0.41680  0.95897  0.35046  1.0000
  H   H438      1.0  0.39145  0.61272  0.40816  1.0000
  H   H439      1.0  0.36638  0.91447  0.33163  1.0000
  H   H440      1.0  0.47408  0.80883  0.56855  1.0000
  C   C565      1.0  0.29107  0.54330  0.61241  1.0000
  C   C566      1.0  0.29259  0.51373  0.49713  1.0000
  H   H441      1.0  0.40527  0.97941  0.35246  1.0000
  H   H442      1.0  0.29958  0.55639  0.50997  1.0000
  H   H443      1.0  0.99750  0.52319  0.61977  1.0000
  C   C567      1.0  0.40961  0.60783  0.41911  1.0000
  H   H444      1.0  0.04066  0.58177  0.35060  1.0000
  H   H445      1.0  0.00490  0.53187  0.31116  1.0000
  C   C568      1.0  0.99676  0.58975  0.61092  1.0000
  H   H446      1.0  0.47431  0.59129  0.45872  1.0000
  H   H447      1.0  0.45970  0.55269  0.59660  1.0000
  C   C569      1.0  0.99470  0.49505  0.35043  1.0000
  C   C570      1.0  0.03318  0.61028  0.63371  1.0000
  C   C571      1.0  0.43506  0.49698  0.56727  1.0000
  H   H448      1.0  0.27944  0.56137  0.61912  1.0000
  C   C572      1.0  0.00806  0.51978  0.63593  1.0000
  H   H449      1.0  0.45844  0.88492  0.34588  1.0000
  H   H450      1.0  0.35557  0.50852  0.61623  1.0000
  H   H451      1.0  0.03345  0.72645  0.62718  1.0000
  C   C573      1.0  0.34009  0.89403  0.30815  1.0000
  H   H452      1.0  0.34308  0.94992  0.63826  1.0000
  C   C574      1.0  0.48097  0.98619  0.33549  1.0000
  H   H453      1.0  0.20010  0.48930  0.44911  1.0000
  Fe  Fe35      1.0  0.09980  0.91983  0.90191  1.0000
  S   S70       1.0  0.09165  0.87342  0.91836  1.0000
  S   S71       1.0  0.07476  0.96106  0.91030  1.0000
  Fe  Fe36      1.0  0.15529  0.90025  0.87905  1.0000
  S   S72       1.0  0.15055  0.85233  0.89394  1.0000
  S   S73       1.0  0.18846  0.91746  0.85280  1.0000
  Fe  Fe37      1.0  0.10427  0.85725  0.88506  1.0000
  S   S74       1.0  0.07609  0.82633  0.86648  1.0000
  Fe  Fe38      1.0  0.13838  0.87261  0.92583  1.0000
  C   C575      1.0  0.04285  0.66132  0.66124  1.0000
  S   S75       1.0  0.10946  0.90419  0.86806  1.0000
  S   S76       1.0  0.14610  0.92001  0.91146  1.0000
  H   H454      1.0  0.46425  0.91867  0.84345  1.0000
  H   H455      1.0  0.43550  0.91162  0.74702  1.0000
  P   P22       1.0  0.04575  0.62120  0.66035  1.0000
  H   H456      1.0  0.46981  0.71729  0.69993  1.0000
  C   C576      1.0  0.02956  0.82390  0.71862  1.0000
  Fe  Fe39      1.0  0.06199  0.65629  0.83514  1.0000
  S   S77       1.0  0.04183  0.66960  0.80157  1.0000
  S   S78       1.0  0.09071  0.68673  0.85393  1.0000
  Fe  Fe40      1.0  0.04108  0.59074  0.83502  1.0000
  S   S79       1.0  0.01992  0.59958  0.80130  1.0000
  S   S80       1.0  0.04154  0.54603  0.85687  1.0000
  Fe  Fe41      1.0  0.05885  0.62614  0.79119  1.0000
  S   S81       1.0  0.07520  0.62433  0.75574  1.0000
  Fe  Fe42      1.0  0.00470  0.64195  0.81420  1.0000
  S   S82       1.0  0.08166  0.61406  0.82391  1.0000
  C   C577      1.0  0.98496  0.76656  0.81668  1.0000
  Fe  Fe43      1.0  0.42309  0.95575  0.83528  1.0000
  S   S83       1.0  0.43328  0.94020  0.80167  1.0000
  C   C578      1.0  0.00528  0.78633  0.80691  1.0000
  Fe  Fe44      1.0  0.36131  0.93129  0.83564  1.0000
  S   S84       1.0  0.36727  0.91376  0.80196  1.0000
  S   S85       1.0  0.32385  0.92254  0.86004  1.0000
  Fe  Fe45      1.0  0.41047  0.89819  0.81434  1.0000
  S   S86       1.0  0.42611  0.85100  0.81154  1.0000
  Fe  Fe46      1.0  0.38965  0.95732  0.79198  1.0000
  S   S87       1.0  0.40314  0.91233  0.84893  1.0000
  H   H457      1.0  0.39008  0.97377  0.87983  1.0000
  C   C579      1.0  0.23562  0.97649  0.88843  1.0000
  H   H458      1.0  0.31412  0.96904  0.79748  1.0000
  H   H459      1.0  0.11267  0.81051  0.94902  1.0000
  H   H460      1.0  0.02813  0.55353  0.72947  1.0000
  H   H461      1.0  0.99258  0.88870  0.83819  1.0000
  H   H462      1.0  0.09532  0.64591  0.68269  1.0000
  C   C580      1.0  0.46059  0.86250  0.77387  1.0000
  C   C581      1.0  0.44485  0.84155  0.78768  1.0000
  C   C582      1.0  0.44381  0.81178  0.78257  1.0000
  C   C583      1.0  0.45733  0.80310  0.76337  1.0000
  C   C584      1.0  0.04410  0.67345  0.68206  1.0000
  H   H463      1.0  0.46207  0.88533  0.77812  1.0000
  H   H464      1.0  0.43191  0.79545  0.79326  1.0000
  C   C585      1.0  0.02389  0.79842  0.73339  1.0000
  H   H465      1.0  0.06258  0.94346  0.85366  1.0000
  H   H466      1.0  0.01550  0.52122  0.81735  1.0000
  H   H467      1.0  0.45583  0.78010  0.75940  1.0000
  S   S88       1.0  0.08804  0.49923  0.65571  1.0000
  C   C586      1.0  0.12952  0.61515  0.67926  1.0000
  C   C587      1.0  0.14381  0.55302  0.74988  1.0000
  C   C588      1.0  0.12663  0.56258  0.73137  1.0000
  C   C589      1.0  0.10645  0.58548  0.73304  1.0000
  C   C590      1.0  0.10300  0.59846  0.75328  1.0000
  C   C591      1.0  0.12077  0.58955  0.77155  1.0000
  C   C592      1.0  0.14130  0.56702  0.76978  1.0000
  H   H468      1.0  0.12841  0.55181  0.71599  1.0000
  H   H469      1.0  0.09277  0.59234  0.71894  1.0000
  H   H470      1.0  0.11840  0.59959  0.78716  1.0000
  H   H471      1.0  0.15449  0.55962  0.78413  1.0000
  H   H472      1.0  0.02876  0.92637  0.89284  1.0000
  H   H473      1.0  0.16023  0.97574  0.86358  1.0000
  C   C593      1.0  0.10162  0.62546  0.67583  1.0000
  H   H474      1.0  0.15973  0.58012  0.67410  1.0000
  H   H475      1.0  0.05897  0.97808  0.74716  1.0000
  H   H476      1.0  0.47231  0.94170  0.76311  1.0000
  C   C594      1.0  0.00347  0.91002  0.83594  1.0000
  H   H477      1.0  0.00401  0.79721  0.74253  1.0000
  C   C595      1.0  0.38333  0.85314  0.75379  1.0000
  H   H478      1.0  0.06024  0.55695  0.76887  1.0000
  C   C596      1.0  0.22619  0.91607  0.85476  1.0000
  C   C597      1.0  0.24034  0.90713  0.87495  1.0000
  C   C598      1.0  0.27019  0.90907  0.87615  1.0000
  C   C599      1.0  0.28635  0.91928  0.85711  1.0000
  C   C600      1.0  0.27224  0.92699  0.83668  1.0000
  C   C601      1.0  0.24236  0.92568  0.83560  1.0000
  H   H479      1.0  0.22827  0.89965  0.88984  1.0000
  H   H480      1.0  0.28084  0.90286  0.89201  1.0000
  H   H481      1.0  0.28429  0.93435  0.82180  1.0000
  H   H482      1.0  0.23168  0.93248  0.81985  1.0000
  C   C602      1.0  0.08042  0.78730  0.86384  1.0000
  C   C603      1.0  0.10338  0.77055  0.87336  1.0000
  C   C604      1.0  0.10617  0.73983  0.87016  1.0000
  C   C605      1.0  0.08599  0.72543  0.85759  1.0000
  C   C606      1.0  0.06302  0.74219  0.84813  1.0000
  C   C607      1.0  0.06031  0.77289  0.85129  1.0000
  H   H483      1.0  0.11910  0.78136  0.88296  1.0000
  H   H484      1.0  0.12403  0.72708  0.87751  1.0000
  H   H485      1.0  0.04727  0.73146  0.83850  1.0000
  H   H486      1.0  0.04240  0.78558  0.84411  1.0000
  H   H487      1.0  0.32596  0.89864  0.75799  1.0000
  C   C608      1.0  0.46370  0.94875  0.74659  1.0000
  C   C609      1.0  0.99155  0.58111  0.71980  1.0000
  H   H488      1.0  0.03855  0.89469  0.85740  1.0000
  H   H489      1.0  0.21903  0.96177  0.89548  1.0000
  C   C610      1.0  0.34567  0.89028  0.75161  1.0000
  C   C611      1.0  0.00706  0.51892  0.67647  1.0000
  C   C612      1.0  0.38072  0.94355  0.68740  1.0000
  C   C613      1.0  0.98198  0.98538  0.89211  1.0000
  P   P23       1.0  0.40475  0.91850  0.70386  1.0000
  C   C614      1.0  0.42115  0.89385  0.68537  1.0000
  C   C615      1.0  0.43186  0.94049  0.71580  1.0000
  H   H490      1.0  0.47502  0.89655  0.88204  1.0000
  H   H491      1.0  0.99625  0.98020  0.80902  1.0000
  H   H492      1.0  0.41235  0.82519  0.66621  1.0000
  C   C616      1.0  0.22747  0.72071  0.82521  1.0000
  C   C617      1.0  0.44298  0.93157  0.73727  1.0000
  H   H493      1.0  0.24125  0.67606  0.83747  1.0000
  C   C618      1.0  0.01479  0.71675  0.74019  1.0000
  C   C619      1.0  0.04308  0.94111  0.84449  1.0000
  H   H494      1.0  0.26129  0.97145  0.91843  1.0000
  C   C620      1.0  0.44508  0.90314  0.67263  1.0000
  C   C621      1.0  0.38593  0.89682  0.72623  1.0000
  S   S89       1.0  0.38337  0.98206  0.75760  1.0000
  C   C622      1.0  0.44522  0.85642  0.65533  1.0000
  H   H495      1.0  0.98768  0.63234  0.67408  1.0000
  C   C623      1.0  0.01922  0.57055  0.71728  1.0000
  C   C624      1.0  0.39765  0.86981  0.73634  1.0000
  C   C625      1.0  0.08676  0.51786  0.76727  1.0000
  C   C626      1.0  0.99240  0.72852  0.72636  1.0000
  H   H496      1.0  0.00317  0.64230  0.73643  1.0000
  C   C627      1.0  0.04205  0.70446  0.68299  1.0000
  C   C628      1.0  0.10847  0.79389  0.96311  1.0000
  H   H497      1.0  0.04334  0.71362  0.69906  1.0000
  H   H498      1.0  0.10786  0.75682  0.94276  1.0000
  C   C629      1.0  0.16846  0.51781  0.85366  1.0000
  C   C630      1.0  0.05499  0.82592  0.70659  1.0000
  H   H499      1.0  0.35095  0.92835  0.72738  1.0000
  C   C631      1.0  0.13825  0.58841  0.67109  1.0000
  C   C632      1.0  0.03625  0.51052  0.67734  1.0000
  H   H500      1.0  0.39021  0.85844  0.69176  1.0000
  H   H501      1.0  0.10349  0.97282  0.95126  1.0000
  H   H502      1.0  0.45480  0.92466  0.67422  1.0000
  C   C633      1.0  0.02259  0.51274  0.85303  1.0000
  C   C634      1.0  0.03874  0.96939  0.90369  1.0000
  S   S90       1.0  0.15696  0.85640  0.95996  1.0000
  H   H503      1.0  0.04683  0.65891  0.69760  1.0000
  H   H504      1.0  0.41813  0.86189  0.73105  1.0000
  H   H505      1.0  0.99102  0.71081  0.78235  1.0000
  C   C635      1.0  0.02443  0.60439  0.68320  1.0000
  H   H506      1.0  0.01066  0.54029  0.77061  1.0000
  C   C636      1.0  0.01834  0.68546  0.74376  1.0000
  C   C637      1.0  0.99511  0.73213  0.78883  1.0000
  C   C638      1.0  0.35996  0.90709  0.73418  1.0000
  P   P24       1.0  0.03614  0.74171  0.75524  1.0000
  C   C639      1.0  0.01569  0.75178  0.77899  1.0000
  C   C640      1.0  0.06946  0.72487  0.76530  1.0000
  C   C641      1.0  0.08056  0.73088  0.78628  1.0000
  C   C642      1.0  0.10538  0.71655  0.79464  1.0000
  C   C643      1.0  0.11954  0.69637  0.78209  1.0000
  C   C644      1.0  0.10923  0.69099  0.76093  1.0000
  C   C645      1.0  0.08440  0.70528  0.75247  1.0000
  C   C646      1.0  0.02081  0.77888  0.78828  1.0000
  H   H507      1.0  0.07628  0.56812  0.64806  1.0000
  H   H508      1.0  0.05659  0.57275  0.69692  1.0000
  H   H509      1.0  0.98827  0.75237  0.72401  1.0000
  C   C647      1.0  0.40907  0.86585  0.68257  1.0000
  C   C648      1.0  0.04370  0.77474  0.73631  1.0000
  C   C649      1.0  0.03895  0.68066  0.64146  1.0000
  C   C650      1.0  0.05123  0.50743  0.65728  1.0000
  C   C651      1.0  0.02933  0.91340  0.84680  1.0000
  C   C652      1.0  0.07474  0.80241  0.70927  1.0000
  C   C653      1.0  0.06913  0.77688  0.72403  1.0000
  H   H510      1.0  0.39270  0.83264  0.76179  1.0000
  H   H511      1.0  0.05942  0.84572  0.69521  1.0000
  H   H512      1.0  0.03459  0.67544  0.75487  1.0000
  H   H513      1.0  0.11161  0.89987  0.96403  1.0000
  H   H514      1.0  0.06964  0.74563  0.79673  1.0000
  H   H515      1.0  0.11302  0.72020  0.81130  1.0000
  H   H516      1.0  0.13813  0.68438  0.78900  1.0000
  H   H517      1.0  0.11979  0.67469  0.75148  1.0000
  H   H518      1.0  0.07644  0.70012  0.73629  1.0000
  H   H519      1.0  0.03712  0.79400  0.78140  1.0000
  C   C654      1.0  0.17951  0.49837  0.87135  1.0000
  C   C655      1.0  0.47280  0.82385  0.74934  1.0000
  H   H520      1.0  0.05919  0.55212  0.81061  1.0000
  H   H521      1.0  0.05373  0.97817  0.96179  1.0000
  S   S91       1.0  0.16720  0.52243  0.74902  1.0000
  C   C656      1.0  0.03549  0.58180  0.69883  1.0000
  C   C657      1.0  0.36978  0.93602  0.66680  1.0000
  H   H522      1.0  0.09451  0.80399  0.69999  1.0000
  H   H523      1.0  0.08476  0.75900  0.72581  1.0000
  C   C658      1.0  0.35124  0.95570  0.65424  1.0000
  H   H524      1.0  0.14424  0.62749  0.68875  1.0000
  H   H525      1.0  0.01422  0.84212  0.71654  1.0000
  H   H526      1.0  0.12562  0.55090  0.65348  1.0000
  H   H527      1.0  0.08765  0.52014  0.74905  1.0000
  C   C659      1.0  0.42132  0.84706  0.66784  1.0000
  C   C660      1.0  0.09104  0.58185  0.65639  1.0000
  C   C661      1.0  0.99302  0.52388  0.65557  1.0000
  S   S92       1.0  0.02319  0.63191  0.84898  1.0000
  H   H528      1.0  0.34677  0.85076  0.77540  1.0000
  C   C662      1.0  0.35737  0.86333  0.76143  1.0000
  C   C663      1.0  0.07070  0.53596  0.80185  1.0000
  C   C664      1.0  0.00560  0.96175  0.81970  1.0000
  C   C665      1.0  0.09826  0.98072  0.96736  1.0000
  H   H529      1.0  0.22600  0.71573  0.80784  1.0000
  H   H530      1.0  0.37564  0.91511  0.66033  1.0000
  C   C666      1.0  0.23841  0.70491  0.86425  1.0000
  C   C667      1.0  0.23167  0.73365  0.87000  1.0000
  C   C668      1.0  0.22207  0.75591  0.85344  1.0000
  C   C669      1.0  0.22074  0.74948  0.83091  1.0000
  P   P25       1.0  0.21389  0.79322  0.86054  1.0000
  C   C670      1.0  0.18298  0.80815  0.84533  1.0000
  C   C671      1.0  0.20359  0.79236  0.88972  1.0000
  C   C672      1.0  0.18414  0.77076  0.89868  1.0000
  C   C673      1.0  0.17469  0.77082  0.92088  1.0000
  C   C674      1.0  0.18429  0.79267  0.93419  1.0000
  C   C675      1.0  0.20333  0.81449  0.92531  1.0000
  C   C676      1.0  0.21280  0.81454  0.90309  1.0000
  C   C677      1.0  0.17826  0.83925  0.84243  1.0000
  C   C678      1.0  0.15322  0.85097  0.83241  1.0000
  C   C679      1.0  0.13253  0.83170  0.82546  1.0000
  C   C680      1.0  0.13699  0.80067  0.82834  1.0000
  C   C681      1.0  0.16195  0.78888  0.83850  1.0000
  C   C682      1.0  0.24544  0.81519  0.85446  1.0000
  C   C683      1.0  0.26860  0.81213  0.86937  1.0000
  C   C684      1.0  0.29317  0.82895  0.86478  1.0000
  C   C685      1.0  0.29504  0.84843  0.84508  1.0000
  C   C686      1.0  0.27241  0.85099  0.82986  1.0000
  C   C687      1.0  0.24777  0.83426  0.83440  1.0000
  C   C688      1.0  0.01813  0.49240  0.87203  1.0000
  H   H531      1.0  0.98435  0.93082  0.95027  1.0000
  H   H532      1.0  0.24544  0.68767  0.87713  1.0000
  H   H533      1.0  0.23397  0.73842  0.88734  1.0000
  H   H534      1.0  0.21435  0.76668  0.81777  1.0000
  H   H535      1.0  0.17581  0.75425  0.88836  1.0000
  H   H536      1.0  0.15947  0.75432  0.92759  1.0000
  H   H537      1.0  0.17634  0.79335  0.95119  1.0000
  H   H538      1.0  0.20977  0.83213  0.93540  1.0000
  H   H539      1.0  0.22632  0.83262  0.89621  1.0000
  H   H540      1.0  0.19350  0.85444  0.84863  1.0000
  H   H541      1.0  0.14950  0.87501  0.83077  1.0000
  H   H542      1.0  0.11258  0.84072  0.81864  1.0000
  H   H543      1.0  0.12047  0.78571  0.82373  1.0000
  H   H544      1.0  0.16419  0.76476  0.84171  1.0000
  H   H545      1.0  0.26758  0.79697  0.88464  1.0000
  H   H546      1.0  0.31075  0.82719  0.87657  1.0000
  H   H547      1.0  0.31393  0.86186  0.84176  1.0000
  H   H548      1.0  0.27385  0.86635  0.81471  1.0000
  H   H549      1.0  0.23065  0.83640  0.82226  1.0000
  C   C689      1.0  0.15020  0.50694  0.83792  1.0000
  S   S93       1.0  0.16159  0.50992  0.68460  1.0000
  C   C690      1.0  0.01206  0.50584  0.83213  1.0000
  C   C691      1.0  0.03659  0.71167  0.64250  1.0000
  C   C692      1.0  0.02085  0.94862  0.89501  1.0000
  C   C693      1.0  0.23614  0.69838  0.84189  1.0000
  C   C694      1.0  0.00041  0.66641  0.73324  1.0000
  H   H550      1.0  0.04719  0.50702  0.69333  1.0000
  C   C695      1.0  0.10123  0.49205  0.80320  1.0000
  C   C696      1.0  0.99156  0.93421  0.82244  1.0000
  C   C697      1.0  0.07120  0.53849  0.77839  1.0000
  C   C698      1.0  0.08518  0.51257  0.81423  1.0000
  C   C699      1.0  0.08215  0.60889  0.66431  1.0000
  C   C700      1.0  0.37231  0.97065  0.69541  1.0000
  C   C701      1.0  0.10598  0.76364  0.95963  1.0000
  H   H551      1.0  0.43376  0.97433  0.68721  1.0000
  C   C702      1.0  0.99269  0.95670  0.88900  1.0000
  H   H552      1.0  0.30463  0.98143  0.83611  1.0000
  H   H553      1.0  0.00947  0.80712  0.81416  1.0000
  C   C703      1.0  0.47471  0.85362  0.75470  1.0000
  C   C704      1.0  0.45683  0.88457  0.65753  1.0000
  C   C705      1.0  0.03137  0.96550  0.83089  1.0000
  C   C706      1.0  0.99667  0.61497  0.68597  1.0000
  C   C707      1.0  0.25947  0.98190  0.90131  1.0000
  H   H554      1.0  0.17405  0.54136  0.85204  1.0000
  H   H555      1.0  0.99240  0.59339  0.64607  1.0000
  H   H556      1.0  0.14232  0.52229  0.82410  1.0000
  C   C708      1.0  0.13977  0.98187  0.85611  1.0000
  C   C709      1.0  0.44179  0.96698  0.70386  1.0000
  C   C710      1.0  0.47309  0.97522  0.73477  1.0000
  S   S94       1.0  0.45293  0.98019  0.85707  1.0000
  H   H557      1.0  0.08405  0.51073  0.83246  1.0000
  C   C711      1.0  0.03820  0.72357  0.66325  1.0000
  H   H558      1.0  0.99559  0.52184  0.69177  1.0000
  C   C712      1.0  0.98930  0.53171  0.77051  1.0000
  H   H559      1.0  0.47530  0.89194  0.64776  1.0000
  C   C713      1.0  0.34332  0.98288  0.66222  1.0000
  H   H560      1.0  0.15072  0.96742  0.82394  1.0000
  C   C714      1.0  0.11904  0.57188  0.65957  1.0000
  C   C715      1.0  0.00212  0.95901  0.97395  1.0000
  H   H561      1.0  0.03636  0.74757  0.66405  1.0000
  H   H562      1.0  0.99547  0.50875  0.74070  1.0000
  H   H563      1.0  0.02615  0.49739  0.88823  1.0000
  Fe  Fe47      1.0  0.15861  0.49335  0.72110  1.0000
  H   H564      1.0  0.38009  0.97655  0.71142  1.0000
  H   H565      1.0  0.05644  0.96467  0.78821  1.0000
  C   C716      1.0  0.13432  0.97716  0.83373  1.0000
  H   H566      1.0  0.19364  0.50687  0.88352  1.0000
  S   S95       1.0  0.38083  0.97626  0.82467  1.0000
  C   C717      1.0  0.98365  0.95260  0.95672  1.0000
  C   C718      1.0  0.10200  0.49483  0.77959  1.0000
  C   C719      1.0  0.46211  0.98442  0.71346  1.0000
  H   H567      1.0  0.10361  0.97924  0.80719  1.0000
  C   C720      1.0  0.06985  0.98341  0.97365  1.0000
  C   C721      1.0  0.10751  0.98385  0.82434  1.0000
  H   H568      1.0  0.34330  0.98423  0.86231  1.0000
  H   H569      1.0  0.21540  0.98426  0.85603  1.0000
  H   H570      1.0  0.48079  0.53114  0.64315  1.0000
  H   H571      1.0  0.45491  0.84182  0.64405  1.0000
  Fe  Fe48      1.0  0.88273  0.11014  0.08074  1.0000
  S   S96       1.0  0.89218  0.06199  0.09266  1.0000
  S   S97       1.0  0.86406  0.12326  0.04619  1.0000
  Fe  Fe49      1.0  0.90025  0.13311  0.12551  1.0000
  S   S98       1.0  0.91175  0.08629  0.14047  1.0000
  S   S99       1.0  0.89750  0.17102  0.14859  1.0000
  Fe  Fe50      1.0  0.93198  0.07994  0.10708  1.0000
  H   H572      1.0  0.89061  0.02711  0.99416  1.0000
  Fe  Fe51      1.0  0.87087  0.07218  0.12490  1.0000
  S   S100      1.0  0.84049  0.04003  0.14470  1.0000
  S   S101      1.0  0.92349  0.12814  0.09315  1.0000
  S   S102      1.0  0.85844  0.11890  0.11182  1.0000
  Fe  Fe52      1.0  0.67280  0.04449  0.17857  1.0000
  S   S103      1.0  0.67485  0.04492  0.21598  1.0000
  S   S104      1.0  0.70737  0.06437  0.15462  1.0000
  Fe  Fe53      1.0  0.60881  0.02779  0.18080  1.0000
  S   S105      1.0  0.60630  0.02792  0.21847  1.0000
  H   H573      1.0  0.89968  0.28951  0.29323  1.0000
  Fe  Fe54      1.0  0.63319  0.06937  0.21348  1.0000
  S   S106      1.0  0.63300  0.11278  0.22975  1.0000
  C   C722      1.0  0.81348  0.47400  0.25766  1.0000
  P   P26       1.0  0.53339  0.16975  0.19130  1.0000
  S   S107      1.0  0.63224  0.07154  0.17588  1.0000
  C   C723      1.0  0.81628  0.06559  0.99717  1.0000
  C   C724      1.0  0.91206  0.45685  0.22784  1.0000
  C   C725      1.0  0.92426  0.48393  0.21944  1.0000
  Fe  Fe55      1.0  0.93357  0.34259  0.22278  1.0000
  S   S108      1.0  0.89173  0.34015  0.24114  1.0000
  S   S109      1.0  0.93779  0.36082  0.18655  1.0000
  H   H574      1.0  0.94925  0.08593  0.01054  1.0000
  C   C726      1.0  0.57026  0.03350  0.27216  1.0000
  C   C727      1.0  0.88637  0.36281  0.26337  1.0000
  C   C728      1.0  0.90273  0.38832  0.26584  1.0000
  C   C729      1.0  0.89605  0.40709  0.28277  1.0000
  H   H575      1.0  0.49391  0.02157  0.29525  1.0000
  C   C730      1.0  0.56618  0.02424  0.29503  1.0000
  C   C731      1.0  0.86411  0.35564  0.27840  1.0000
  H   H576      1.0  0.92008  0.39396  0.25445  1.0000
  H   H577      1.0  0.90816  0.42713  0.28430  1.0000
  P   P27       1.0  0.91561  0.48267  0.15104  1.0000
  H   H578      1.0  0.81130  0.07359  0.01324  1.0000
  C   C732      1.0  0.83050  0.03810  0.99597  1.0000
  H   H579      1.0  0.94065  0.30372  0.26869  1.0000
  C   C733      1.0  0.61906  0.14112  0.26638  1.0000
  C   C734      1.0  0.61047  0.11995  0.25210  1.0000
  C   C735      1.0  0.58414  0.10607  0.25550  1.0000
  C   C736      1.0  0.56677  0.11278  0.27362  1.0000
  H   H580      1.0  0.63920  0.15230  0.26361  1.0000
  H   H581      1.0  0.57709  0.09075  0.24385  1.0000
  H   H582      1.0  0.54646  0.10201  0.27622  1.0000
  H   H583      1.0  0.75930  0.00732  0.07596  1.0000
  C   C737      1.0  0.82942  0.47841  0.14481  1.0000
  C   C738      1.0  0.87609  0.01478  0.02831  1.0000
  H   H584      1.0  0.95755  0.17478  0.98752  1.0000
  S   S110      1.0  0.96990  0.36838  0.23429  1.0000
  C   C739      1.0  0.52405  0.02178  0.13303  1.0000
  C   C740      1.0  0.90241  0.44543  0.18981  1.0000
  C   C741      1.0  0.54696  0.03898  0.25786  1.0000
  H   H585      1.0  0.63859  0.00008  0.28321  1.0000
  C   C742      1.0  0.54136  0.10885  0.18625  1.0000
  C   C743      1.0  0.91767  0.20427  0.14986  1.0000
  C   C744      1.0  0.91277  0.22196  0.16771  1.0000
  C   C745      1.0  0.92796  0.24869  0.16942  1.0000
  C   C746      1.0  0.94817  0.25821  0.15314  1.0000
  C   C747      1.0  0.95308  0.24050  0.13528  1.0000
  C   C748      1.0  0.93807  0.21359  0.13370  1.0000
  H   H586      1.0  0.89704  0.21498  0.18030  1.0000
  H   H587      1.0  0.92388  0.26202  0.18324  1.0000
  H   H588      1.0  0.52249  0.23301  0.19682  1.0000
  H   H589      1.0  0.94205  0.20024  0.11987  1.0000
  C   C749      1.0  0.80389  0.04826  0.14858  1.0000
  C   C750      1.0  0.79037  0.07249  0.13623  1.0000
  C   C751      1.0  0.76088  0.07685  0.13832  1.0000
  C   C752      1.0  0.74461  0.05781  0.15335  1.0000
  C   C753      1.0  0.75828  0.03423  0.16635  1.0000
  C   C754      1.0  0.78770  0.02932  0.16378  1.0000
  H   H590      1.0  0.80244  0.08731  0.12452  1.0000
  H   H591      1.0  0.75048  0.09489  0.12799  1.0000
  H   H592      1.0  0.74608  0.01936  0.17798  1.0000
  H   H593      1.0  0.79792  0.01057  0.17348  1.0000
  C   C755      1.0  0.91454  0.09248  0.98699  1.0000
  H   H594      1.0  0.95710  0.00754  0.12645  1.0000
  C   C756      1.0  0.87112  0.11182  0.00219  1.0000
  C   C757      1.0  0.88375  0.11147  0.02353  1.0000
  C   C758      1.0  0.91194  0.10204  0.02647  1.0000
  C   C759      1.0  0.92742  0.09313  0.00815  1.0000
  S   S111      1.0  0.57407  0.02029  0.15546  1.0000
  H   H595      1.0  0.84947  0.11957  0.99981  1.0000
  H   H596      1.0  0.92188  0.10174  0.04285  1.0000
  C   C760      1.0  0.81407  0.07309  0.21241  1.0000
  C   C761      1.0  0.83886  0.06548  0.20147  1.0000
  C   C762      1.0  0.85052  0.08565  0.18471  1.0000
  C   C763      1.0  0.83693  0.11298  0.17821  1.0000
  C   C764      1.0  0.81154  0.12045  0.18866  1.0000
  C   C765      1.0  0.80071  0.10069  0.20633  1.0000
  P   P28       1.0  0.79448  0.15620  0.18070  1.0000
  C   C766      1.0  0.81341  0.18524  0.19338  1.0000
  C   C767      1.0  0.79666  0.16396  0.15038  1.0000
  C   C768      1.0  0.82068  0.17836  0.14062  1.0000
  C   C769      1.0  0.82313  0.18366  0.11724  1.0000
  C   C770      1.0  0.80181  0.17429  0.10331  1.0000
  C   C771      1.0  0.77778  0.16004  0.11282  1.0000
  C   C772      1.0  0.77512  0.15503  0.13625  1.0000
  C   C773      1.0  0.80965  0.21544  0.18498  1.0000
  C   C774      1.0  0.82546  0.23791  0.19375  1.0000
  C   C775      1.0  0.84505  0.23044  0.21103  1.0000
  C   C776      1.0  0.84871  0.20048  0.21965  1.0000
  C   C777      1.0  0.83295  0.17793  0.21090  1.0000
  C   C778      1.0  0.75773  0.15455  0.18960  1.0000
  C   C779      1.0  0.74579  0.17740  0.20120  1.0000
  C   C780      1.0  0.71778  0.17520  0.20891  1.0000
  C   C781      1.0  0.70149  0.15024  0.20511  1.0000
  C   C782      1.0  0.71310  0.12752  0.19349  1.0000
  C   C783      1.0  0.74109  0.12959  0.18582  1.0000
  H   H597      1.0  0.80494  0.05740  0.22535  1.0000
  H   H598      1.0  0.84879  0.04374  0.20561  1.0000
  H   H599      1.0  0.86950  0.07947  0.17606  1.0000
  H   H600      1.0  0.84617  0.12800  0.16491  1.0000
  H   H601      1.0  0.78178  0.10624  0.21530  1.0000
  H   H602      1.0  0.83793  0.18496  0.15102  1.0000
  H   H603      1.0  0.84214  0.19409  0.10996  1.0000
  H   H604      1.0  0.80419  0.17756  0.08517  1.0000
  H   H605      1.0  0.76140  0.15239  0.10205  1.0000
  H   H606      1.0  0.75643  0.14376  0.14309  1.0000
  H   H607      1.0  0.79489  0.22151  0.17132  1.0000
  H   H608      1.0  0.82290  0.26111  0.18692  1.0000
  H   H609      1.0  0.85759  0.24785  0.21759  1.0000
  H   H610      1.0  0.86410  0.19469  0.23289  1.0000
  H   H611      1.0  0.83643  0.15484  0.21761  1.0000
  H   H612      1.0  0.75807  0.19673  0.20463  1.0000
  H   H613      1.0  0.70872  0.19267  0.21807  1.0000
  H   H614      1.0  0.67994  0.14832  0.21137  1.0000
  H   H615      1.0  0.70050  0.10807  0.19056  1.0000
  H   H616      1.0  0.74983  0.11140  0.17722  1.0000
  H   H617      1.0  0.50984  0.04516  0.20966  1.0000
  H   H618      1.0  0.48724  0.12152  0.14557  1.0000
  C   C784      1.0  0.53569  0.07831  0.19097  1.0000
  H   H619      1.0  0.96425  0.45994  0.26399  1.0000
  C   C785      1.0  0.51455  0.06884  0.20637  1.0000
  C   C786      1.0  0.94176  0.46053  0.13767  1.0000
  H   H620      1.0  0.84086  0.36791  0.30719  1.0000
  H   H621      1.0  0.90669  0.16849  0.99487  1.0000
  H   H622      1.0  0.60917  0.16360  0.29566  1.0000
  C   C787      1.0  0.87695  0.46089  0.12111  1.0000
  C   C788      1.0  0.96690  0.41333  0.13517  1.0000
  H   H623      1.0  0.55760  0.21755  0.15975  1.0000
  C   C789      1.0  0.51526  0.02460  0.28875  1.0000
  H   H624      1.0  0.89377  0.43018  0.17862  1.0000
  C   C790      1.0  0.66643  0.03714  0.27542  1.0000
  C   C791      1.0  0.49055  0.99947  0.16944  1.0000
  C   C792      1.0  0.94767  0.43078  0.14616  1.0000
  C   C793      1.0  0.62622  0.03838  0.30079  1.0000
  H   H625      1.0  0.59131  0.03748  0.26542  1.0000
  C   C794      1.0  0.95275  0.13225  0.18070  1.0000
  C   C795      1.0  0.98056  0.42550  0.11565  1.0000
  H   H626      1.0  0.53682  0.03013  0.11873  1.0000
  Fe  Fe56      1.0  0.96694  0.32096  0.18389  1.0000
  C   C796      1.0  0.49494  0.01773  0.13010  1.0000
  C   C797      1.0  0.91427  0.17177  0.97764  1.0000
  Fe  Fe57      1.0  0.64804  0.00334  0.21809  1.0000
  C   C798      1.0  0.93380  0.01622  0.03982  1.0000
  H   H627      1.0  0.48327  0.08271  0.22958  1.0000
  H   H628      1.0  0.49298  0.13648  0.22152  1.0000
  H   H629      1.0  0.82247  0.47834  0.20074  1.0000
  C   C799      1.0  0.81845  0.02525  0.04464  1.0000
  S   S112      1.0  0.49120  0.09177  0.29875  1.0000
  H   H630      1.0  0.97804  0.20407  0.17518  1.0000
  C   C800      1.0  0.78793  0.04299  0.08154  1.0000
  C   C801      1.0  0.81255  0.05823  0.07435  1.0000
  C   C802      1.0  0.82771  0.04945  0.05595  1.0000
  H   H631      1.0  0.53134  0.17234  0.14203  1.0000
  H   H632      1.0  0.89506  0.45389  0.11173  1.0000
  H   H633      1.0  0.79212  0.98982  0.99619  1.0000
  H   H634      1.0  0.94093  0.02811  0.00442  1.0000
  C   C803      1.0  0.53070  0.19008  0.21586  1.0000
  C   C804      1.0  0.49109  0.19218  0.13196  1.0000
  H   H635      1.0  0.51883  0.26094  0.23043  1.0000
  C   C805      1.0  0.53852  0.01946  0.30319  1.0000
  C   C806      1.0  0.67235  0.06702  0.27831  1.0000
  C   C807      1.0  0.62412  0.18789  0.16464  1.0000
  H   H636      1.0  0.49505  0.19114  0.11416  1.0000
  H   H637      1.0  0.76474  0.47685  0.21184  1.0000
  P   P29       1.0  0.83881  0.01381  0.02124  1.0000
  C   C808      1.0  0.89660  0.02152  0.01158  1.0000
  H   H638      1.0  0.77626  0.04963  0.09589  1.0000
  C   C809      1.0  0.85810  0.37376  0.29566  1.0000
  Fe  Fe58      1.0  0.97654  0.38463  0.19791  1.0000
  H   H639      1.0  0.53661  0.18011  0.27303  1.0000
  H   H640      1.0  0.93787  0.42101  0.16144  1.0000
  C   C810      1.0  0.59148  0.15840  0.18891  1.0000
  H   H641      1.0  0.85143  0.33597  0.27665  1.0000
  H   H642      1.0  0.55034  0.04678  0.24036  1.0000
  C   C811      1.0  0.98009  0.12667  0.18939  1.0000
  H   H643      1.0  0.81103  0.48520  0.15398  1.0000
  C   C812      1.0  0.51997  0.00429  0.17251  1.0000
  C   C813      1.0  0.51170  0.18172  0.14779  1.0000
  H   H644      1.0  0.95522  0.42855  0.29932  1.0000
  C   C814      1.0  0.63237  0.06838  0.30372  1.0000
  C   C815      1.0  0.60208  0.14749  0.28455  1.0000
  C   C816      1.0  0.92536  0.02198  0.01735  1.0000
  C   C817      1.0  0.57443  0.20206  0.16544  1.0000
  H   H645      1.0  0.60613  0.22648  0.14519  1.0000
  H   H646      1.0  0.71477  0.47624  0.20004  1.0000
  H   H647      1.0  0.89270  0.41597  0.21956  1.0000
  C   C818      1.0  0.77840  0.01906  0.07028  1.0000
  C   C819      1.0  0.52516  0.22111  0.21339  1.0000
  C   C820      1.0  0.87371  0.39979  0.29771  1.0000
  C   C821      1.0  0.50523  0.12052  0.21294  1.0000
  H   H648      1.0  0.55724  0.11557  0.17370  1.0000
  H   H649      1.0  0.94940  0.14848  0.16625  1.0000
  C   C822      1.0  0.88629  0.10179  0.98402  1.0000
  C   C823      1.0  0.60195  0.20733  0.15726  1.0000
  H   H650      1.0  0.54756  0.06201  0.18246  1.0000
  H   H651      1.0  0.95588  0.01787  0.04444  1.0000
  C   C824      1.0  0.57589  0.13346  0.28826  1.0000
  C   C825      1.0  0.52661  0.13019  0.19760  1.0000
  C   C826      1.0  0.52706  0.22217  0.25387  1.0000
  H   H652      1.0  0.84677  0.06149  0.05060  1.0000
  C   C827      1.0  0.53328  0.19150  0.25636  1.0000
  C   C828      1.0  0.97259  0.42270  0.28885  1.0000
  C   C829      1.0  0.64331  0.02297  0.28637  1.0000
  H   H653      1.0  0.91523  0.08444  0.21708  1.0000
  H   H654      1.0  0.54087  0.15191  0.23980  1.0000
  C   C830      1.0  0.83172  0.43958  0.22370  1.0000
  H   H655      1.0  0.83875  0.42611  0.21061  1.0000
  H   H656      1.0  0.55946  0.99048  0.23643  1.0000
  H   H657      1.0  0.82352  0.43501  0.28054  1.0000
  C   C831      1.0  0.93861  0.31266  0.28483  1.0000
  C   C832      1.0  0.56887  0.17700  0.18085  1.0000
  H   H658      1.0  0.50162  0.03970  0.25512  1.0000
  C   C833      1.0  0.53540  0.17552  0.23746  1.0000
  H   H659      1.0  0.83961  0.40455  0.25041  1.0000
  S   S113      1.0  0.95975  0.30112  0.21940  1.0000
  H   H660      1.0  0.64542  0.19172  0.15823  1.0000
  H   H661      1.0  0.82002  0.07677  0.08309  1.0000
  C   C834      1.0  0.51951  0.03479  0.26615  1.0000
  H   H662      1.0  0.67941  0.02494  0.26437  1.0000
  H   H663      1.0  0.91107  0.45093  0.24583  1.0000
  C   C835      1.0  0.91481  0.47263  0.18117  1.0000
  C   C836      1.0  0.92946  0.11715  0.19074  1.0000
  C   C837      1.0  0.90146  0.43740  0.21303  1.0000
  S   S114      1.0  0.64927  0.00056  0.18057  1.0000
  C   C838      1.0  0.65543  0.08255  0.29256  1.0000
  C   C839      1.0  0.49947  0.08995  0.21744  1.0000
  H   H664      1.0  0.48555  0.02317  0.11363  1.0000
  H   H665      1.0  0.58803  0.13979  0.20163  1.0000
  H   H666      1.0  0.52962  0.99898  0.18884  1.0000
  C   C840      1.0  0.61888  0.16353  0.18052  1.0000
  C   C841      1.0  0.95550  0.47255  0.11794  1.0000
  C   C842      1.0  0.82589  0.46394  0.12529  1.0000
  C   C843      1.0  0.82258  0.46917  0.21821  1.0000
  C   C844      1.0  0.79354  0.01019  0.05187  1.0000
  H   H667      1.0  0.90838  0.12177  0.18391  1.0000
  C   C845      1.0  0.53684  0.01521  0.15411  1.0000
  C   C846      1.0  0.88063  0.47531  0.14074  1.0000
  C   C847      1.0  0.50691  0.18333  0.17085  1.0000
  C   C848      1.0  0.82302  0.44452  0.26311  1.0000
  H   H668      1.0  0.63605  0.14850  0.18642  1.0000
  C   C849      1.0  0.83215  0.42735  0.24615  1.0000
  H   H669      1.0  0.68970  0.07829  0.26918  1.0000
  H   H670      1.0  0.49118  0.06809  0.16049  1.0000
  H   H671      1.0  0.84692  0.44389  0.09837  1.0000
  C   C850      1.0  0.83708  0.02889  0.97472  1.0000
  C   C851      1.0  0.52317  0.23704  0.23236  1.0000
  H   H672      1.0  0.97632  0.33888  0.28038  1.0000
  H   H673      1.0  0.52558  0.23433  0.26866  1.0000
  S   S115      1.0  0.96791  0.29178  0.15451  1.0000
  C   C852      1.0  0.91559  0.30452  0.29875  1.0000
  C   C853      1.0  0.95852  0.33307  0.29134  1.0000
  C   C854      1.0  0.80826  0.08318  0.97745  1.0000
  C   C855      1.0  0.84964  0.45521  0.11346  1.0000
  H   H674      1.0  0.80477  0.45943  0.11934  1.0000
  C   C856      1.0  0.93334  0.09625  0.20949  1.0000
  H   H675      1.0  0.96857  0.24769  0.12257  1.0000
  H   H676      1.0  0.96350  0.07482  0.23312  1.0000
  S   S116      1.0  0.97656  0.06250  0.09994  1.0000
  C   C857      1.0  0.91362  0.00894  0.05649  1.0000
  C   C858      1.0  0.97785  0.44084  0.26888  1.0000
  H   H677      1.0  0.92021  0.00477  0.07395  1.0000
  H   H678      1.0  0.79719  0.10427  0.97851  1.0000
  C   C859      1.0  0.88489  0.00804  0.05079  1.0000
  C   C860      1.0  0.97849  0.00383  0.12074  1.0000
  H   H679      1.0  0.65974  0.10587  0.29450  1.0000
  C   C861      1.0  0.97494  0.45514  0.10709  1.0000
  H   H680      1.0  0.97145  0.39044  0.14200  1.0000
  C   C862      1.0  0.85668  0.48405  0.15254  1.0000
  C   C863      1.0  0.96053  0.09083  0.21846  1.0000
  H   H681      1.0  0.86955  0.00255  0.06403  1.0000
  H   H682      1.0  0.78575  0.99156  0.04349  1.0000
  C   C864      1.0  0.61409  0.07307  0.59017  1.0000
  C   C865      1.0  0.50853  0.41084  0.48014  1.0000
  C   C866      1.0  0.63851  0.43071  0.62974  1.0000
  H   H683      1.0  0.52079  0.05677  0.62562  1.0000
  H   H684      1.0  0.61536  0.46072  0.60563  1.0000
  H   H685      1.0  0.58368  0.02290  0.39629  1.0000
  H   H686      1.0  0.56897  0.40899  0.42256  1.0000
  H   H687      1.0  0.89500  0.30991  0.33028  1.0000
  H   H688      1.0  0.62264  0.10269  0.53583  1.0000
  C   C867      1.0  0.58073  0.11382  0.58074  1.0000
  P   P30       1.0  0.79302  0.46512  0.40725  1.0000
  H   H689      1.0  0.97991  0.47153  0.32300  1.0000
  H   H690      1.0  0.50080  0.47877  0.45507  1.0000
  C   C868      1.0  0.55743  0.45586  0.44723  1.0000
  C   C869      1.0  0.95538  0.34584  0.31175  1.0000
  C   C870      1.0  0.48516  0.46699  0.40403  1.0000
  H   H691      1.0  0.54099  0.45321  0.43491  1.0000
  C   C871      1.0  0.61413  0.09960  0.55276  1.0000
  C   C872      1.0  0.80453  0.46030  0.36175  1.0000
  H   H692      1.0  0.89679  0.48135  0.40594  1.0000
  H   H693      1.0  0.56036  0.38712  0.38700  1.0000
  H   H694      1.0  0.60051  0.00024  0.36274  1.0000
  H   H695      1.0  0.54236  0.44167  0.37646  1.0000
  C   C873      1.0  0.55460  0.35417  0.57252  1.0000
  C   C874      1.0  0.53467  0.38503  0.44059  1.0000
  H   H696      1.0  0.62293  0.05558  0.60205  1.0000
  C   C875      1.0  0.50590  0.00965  0.36440  1.0000
  S   S117      1.0  0.86429  0.42253  0.31907  1.0000
  C   C876      1.0  0.54144  0.34977  0.49911  1.0000
  C   C877      1.0  0.58547  0.03682  0.33910  1.0000
  C   C878      1.0  0.96790  0.39449  0.34118  1.0000
  H   H697      1.0  0.56646  0.07600  0.32049  1.0000
  C   C879      1.0  0.93970  0.40491  0.34017  1.0000
  H   H698      1.0  0.82328  0.44768  0.44941  1.0000
  C   C880      1.0  0.58988  0.42325  0.61872  1.0000
  H   H699      1.0  0.62191  0.33424  0.49241  1.0000
  C   C881      1.0  0.59013  0.02196  0.36064  1.0000
  C   C882      1.0  0.58051  0.03473  0.37974  1.0000
  C   C883      1.0  0.56612  0.06228  0.37746  1.0000
  C   C884      1.0  0.56135  0.07713  0.35607  1.0000
  C   C885      1.0  0.57085  0.06440  0.33697  1.0000
  H   H700      1.0  0.52205  0.34971  0.38437  1.0000
  H   H701      1.0  0.76347  0.44661  0.31702  1.0000
  H   H702      1.0  0.75357  0.09450  0.63980  1.0000
  C   C886      1.0  0.55193  0.39308  0.42179  1.0000
  H   H703      1.0  0.58687  0.42132  0.49527  1.0000
  H   H704      1.0  0.56346  0.12819  0.58502  1.0000
  C   C887      1.0  0.48334  0.42388  0.51335  1.0000
  H   H705      1.0  0.90788  0.43157  0.35473  1.0000
  H   H706      1.0  0.52742  0.41164  0.51320  1.0000
  C   C888      1.0  0.53661  0.13107  0.62466  1.0000
  C   C889      1.0  0.48429  0.01069  0.34825  1.0000
  C   C890      1.0  0.55428  0.32521  0.51159  1.0000
  H   H707      1.0  0.55427  0.14638  0.62471  1.0000
  H   H708      1.0  0.81348  0.45599  0.32684  1.0000
  H   H709      1.0  0.50053  0.35606  0.45346  1.0000
  C   C891      1.0  0.62524  0.07723  0.56838  1.0000
  Fe  Fe59      1.0  0.50881  0.13238  0.31248  1.0000
  H   H710      1.0  0.55830  0.07198  0.39221  1.0000
  H   H711      1.0  0.55003  0.09840  0.35417  1.0000
  H   H712      1.0  0.55968  0.03344  0.60204  1.0000
  P   P31       1.0  0.59586  0.01981  0.31415  1.0000
  C   C892      1.0  0.56247  0.43327  0.46482  1.0000
  C   C893      1.0  0.79048  0.40251  0.41471  1.0000
  H   H713      1.0  0.49202  0.45383  0.60686  1.0000
  H   H714      1.0  0.59319  0.30057  0.51885  1.0000
  C   C894      1.0  0.74811  0.44938  0.35077  1.0000
  C   C895      1.0  0.76905  0.45011  0.33417  1.0000
  C   C896      1.0  0.79723  0.45543  0.33970  1.0000
  C   C897      1.0  0.93296  0.33641  0.32619  1.0000
  C   C898      1.0  0.50897  0.14263  0.62470  1.0000
  C   C899      1.0  0.56869  0.02527  0.61822  1.0000
  C   C900      1.0  0.59953  0.33886  0.49456  1.0000
  H   H715      1.0  0.48986  0.26993  0.35822  1.0000
  H   H716      1.0  0.53501  0.01236  0.32082  1.0000
  C   C901      1.0  0.59156  0.09117  0.59648  1.0000
  C   C902      1.0  0.58330  0.43776  0.48101  1.0000
  C   C903      1.0  0.97566  0.42201  0.37379  1.0000
  H   H717      1.0  0.64241  0.06298  0.56356  1.0000
  H   H718      1.0  0.63825  0.10012  0.62573  1.0000
  H   H719      1.0  0.56990  0.34651  0.56079  1.0000
  C   C904      1.0  0.52748  0.48426  0.60633  1.0000
  C   C905      1.0  0.81196  0.37323  0.44674  1.0000
  C   C906      1.0  0.79644  0.37470  0.42668  1.0000
  H   H720      1.0  0.78912  0.35427  0.42030  1.0000
  H   H721      1.0  0.94024  0.44816  0.38391  1.0000
  C   C907      1.0  0.92961  0.42360  0.35583  1.0000
  H   H722      1.0  0.51878  0.35005  0.55048  1.0000
  H   H723      1.0  0.48290  0.42653  0.53118  1.0000
  H   H724      1.0  0.82652  0.46443  0.36553  1.0000
  H   H725      1.0  0.48338  0.41418  0.44942  1.0000
  C   C908      1.0  0.59991  0.46368  0.47876  1.0000
  C   C909      1.0  0.57053  0.43917  0.55105  1.0000
  H   H726      1.0  0.77856  0.40308  0.39917  1.0000
  C   C910      1.0  0.52588  0.35937  0.40006  1.0000
  C   C911      1.0  0.94769  0.43255  0.37243  1.0000
  C   C912      1.0  0.51365  0.36325  0.43907  1.0000
  C   C913      1.0  0.50928  0.35055  0.41887  1.0000
  C   C914      1.0  0.57866  0.46339  0.53594  1.0000
  H   H727      1.0  0.58564  0.35881  0.59832  1.0000
  H   H728      1.0  0.81666  0.35165  0.45592  1.0000
  C   C915      1.0  0.80010  0.42909  0.42274  1.0000
  H   H729      1.0  0.93072  0.34478  0.34248  1.0000
  C   C916      1.0  0.58334  0.31986  0.50942  1.0000
  C   C917      1.0  0.54289  0.43784  0.55943  1.0000
  C   C918      1.0  0.58672  0.36337  0.48200  1.0000
  H   H730      1.0  0.48372  0.36641  0.57770  1.0000
  C   C919      1.0  0.57825  0.04551  0.63308  1.0000
  S   S118      1.0  0.55541  0.14301  0.31124  1.0000
  H   H731      1.0  0.49927  0.38054  0.61451  1.0000
  H   H732      1.0  0.50533  0.16655  0.62495  1.0000
  H   H733      1.0  0.64774  0.98952  0.33125  1.0000
  C   C920      1.0  0.61476  0.44005  0.61680  1.0000
  P   P32       1.0  0.54101  0.39985  0.46722  1.0000
  Fe  Fe60      1.0  0.87923  0.47046  0.31684  1.0000
  S   S119      1.0  0.48646  0.12498  0.34592  1.0000
  C   C921      1.0  0.91289  0.31619  0.31952  1.0000
  H   H734      1.0  0.50836  0.02810  0.37462  1.0000
  C   C922      1.0  0.55774  0.36949  0.48466  1.0000
  P   P33       1.0  0.55509  0.37742  0.63716  1.0000
  H   H735      1.0  0.72620  0.44550  0.34647  1.0000
  C   C923      1.0  0.54734  0.38045  0.40157  1.0000
  C   C924      1.0  0.50200  0.44776  0.39252  1.0000
  H   H736      1.0  0.51870  0.35290  0.50040  1.0000
  C   C925      1.0  0.57009  0.99433  0.62440  1.0000
  C   C926      1.0  0.48366  0.41629  0.46736  1.0000
  C   C927      1.0  0.48584  0.12331  0.62513  1.0000
  H   H737      1.0  0.59933  0.37732  0.46999  1.0000
  C   C928      1.0  0.51795  0.08078  0.62510  1.0000
  C   C929      1.0  0.82153  0.39959  0.45487  1.0000
  H   H738      1.0  0.58324  0.13520  0.54682  1.0000
  H   H739      1.0  0.92554  0.39910  0.32700  1.0000
  C   C930      1.0  0.52587  0.35617  0.56667  1.0000
  H   H740      1.0  0.57155  0.43098  0.60878  1.0000
  P   P34       1.0  0.57732  0.08545  0.62471  1.0000
  H   H741      1.0  0.61665  0.46680  0.49073  1.0000
  H   H742      1.0  0.73884  0.45322  0.38552  1.0000
  C   C931      1.0  0.51498  0.37335  0.60297  1.0000
  C   C932      1.0  0.54367  0.37102  0.60912  1.0000
  C   C933      1.0  0.54136  0.10000  0.62483  1.0000
  C   C934      1.0  0.50610  0.36563  0.58193  1.0000
  C   C935      1.0  0.49989  0.47456  0.61224  1.0000
  H   H743      1.0  0.94755  0.42531  0.63756  1.0000
  H   H744      1.0  0.54154  0.30992  0.52255  1.0000
  C   C936      1.0  0.49032  0.09243  0.62528  1.0000
  C   C937      1.0  0.59193  0.11791  0.55896  1.0000
  H   H745      1.0  0.58575  0.42175  0.55662  1.0000
  C   C938      1.0  0.75535  0.45404  0.37288  1.0000
  C   C939      1.0  0.52950  0.45653  0.38552  1.0000
  C   C940      1.0  0.50832  0.41514  0.50315  1.0000
  H   H746      1.0  0.54068  0.47095  0.59641  1.0000
  C   C941      1.0  0.56345  0.36132  0.59374  1.0000
  H   H747      1.0  0.76965  0.46090  0.45366  1.0000
  C   C942      1.0  0.78358  0.46003  0.37849  1.0000
  H   H748      1.0  0.83365  0.39846  0.47038  1.0000
  H   H749      1.0  0.54710  0.31409  0.62806  1.0000
  H   H750      1.0  0.60029  0.46487  0.52988  1.0000
  C   C943      1.0  0.81564  0.42742  0.44294  1.0000
  H   H751      1.0  0.61919  0.08116  0.31416  1.0000
  H   H752      1.0  0.49287  0.33391  0.41766  1.0000
  H   H753      1.0  0.85382  0.45013  0.40783  1.0000
  C   C944      1.0  0.52345  0.46080  0.55298  1.0000
  H   H754      1.0  0.53671  0.41964  0.57162  1.0000
  H   H755      1.0  0.49388  0.42617  0.38901  1.0000
  C   C945      1.0  0.57396  0.48179  0.44516  1.0000
  C   C946      1.0  0.75764  0.47750  0.44316  1.0000
  H   H756      1.0  0.50254  0.45964  0.56043  1.0000
  H   H757      1.0  0.65772  0.44393  0.62837  1.0000
  H   H758      1.0  0.52501  0.48608  0.49067  1.0000
  C   C947      1.0  0.58822  0.39745  0.63409  1.0000
  C   C948      1.0  0.85158  0.47427  0.40729  1.0000
  C   C949      1.0  0.76434  0.48425  0.42028  1.0000
  C   C950      1.0  0.53145  0.48529  0.53787  1.0000
  C   C951      1.0  0.54057  0.48424  0.39032  1.0000
  C   C952      1.0  0.59530  0.48559  0.46079  1.0000
  C   C953      1.0  0.55915  0.48620  0.52913  1.0000
  C   C954      1.0  0.62814  0.10817  0.64025  1.0000
  Fe  Fe61      1.0  0.92311  0.10710  0.88110  1.0000
  S   S120      1.0  0.90007  0.06906  0.86703  1.0000
  S   S121      1.0  0.94495  0.14338  0.85787  1.0000
  Fe  Fe62      1.0  0.91682  0.07823  0.92976  1.0000
  S   S122      1.0  0.89275  0.03886  0.91928  1.0000
  C   C955      1.0  0.97265  0.41736  0.66782  1.0000
  Fe  Fe63      1.0  0.92560  0.03852  0.89195  1.0000
  C   C956      1.0  0.85910  0.10543  0.82569  1.0000
  Fe  Fe64      1.0  0.86912  0.07268  0.89540  1.0000
  S   S123      1.0  0.82057  0.07732  0.89339  1.0000
  S   S124      1.0  0.95073  0.07606  0.90361  1.0000
  S   S125      1.0  0.89125  0.11248  0.90826  1.0000
  Fe  Fe65      1.0  0.95083  0.36134  0.78836  1.0000
  S   S126      1.0  0.93065  0.36464  0.82197  1.0000
  S   S127      1.0  0.92954  0.37200  0.75467  1.0000
  C   C957      1.0  0.90482  0.17539  0.93762  1.0000
  H   H759      1.0  0.51777  0.46958  0.66721  1.0000
  H   H760      1.0  0.97122  0.46204  0.71091  1.0000
  S   S128      1.0  0.92910  0.28555  0.85518  1.0000
  C   C958      1.0  0.95247  0.43281  0.65380  1.0000
  H   H761      1.0  0.66728  0.12465  0.65288  1.0000
  S   S129      1.0  0.54464  0.18894  0.73403  1.0000
  S   S130      1.0  0.51925  0.15152  0.68046  1.0000
  C   C959      1.0  0.50308  0.06986  0.79028  1.0000
  S   S131      1.0  0.59916  0.04089  0.80776  1.0000
  H   H762      1.0  0.96677  0.05106  0.85686  1.0000
  Fe  Fe66      1.0  0.67887  0.02940  0.82609  1.0000
  S   S132      1.0  0.66540  0.05705  0.79413  1.0000
  H   H763      1.0  0.51804  0.03457  0.73443  1.0000
  Fe  Fe67      1.0  0.63113  0.07524  0.81503  1.0000
  S   S133      1.0  0.62179  0.12504  0.81238  1.0000
  C   C960      1.0  0.66342  0.07330  0.73293  1.0000
  S   S134      1.0  0.64620  0.04999  0.84751  1.0000
  H   H764      1.0  0.80786  0.08688  0.94110  1.0000
  H   H765      1.0  0.54861  0.07245  0.79275  1.0000
  H   H766      1.0  0.56431  0.11148  0.66659  1.0000
  S   S135      1.0  0.50177  0.11491  0.72878  1.0000
  C   C961      1.0  0.50641  0.98833  0.83708  1.0000
  C   C962      1.0  0.56514  0.16993  0.75593  1.0000
  C   C963      1.0  0.56737  0.13853  0.75894  1.0000
  C   C964      1.0  0.58508  0.12437  0.77596  1.0000
  C   C965      1.0  0.59981  0.14153  0.79049  1.0000
  C   C966      1.0  0.59707  0.17283  0.78768  1.0000
  C   C967      1.0  0.58013  0.18694  0.77036  1.0000
  H   H767      1.0  0.55593  0.12518  0.74792  1.0000
  H   H768      1.0  0.58749  0.10025  0.77778  1.0000
  H   H769      1.0  0.60837  0.18625  0.79882  1.0000
  H   H770      1.0  0.57853  0.21116  0.76821  1.0000
  C   C968      1.0  0.52326  0.02768  0.68379  1.0000
  Fe  Fe68      1.0  0.51330  0.16166  0.71619  1.0000
  H   H771      1.0  0.74595  0.42489  0.73809  1.0000
  P   P35       1.0  0.49625  0.09024  0.81447  1.0000
  H   H772      1.0  0.52732  0.03519  0.88661  1.0000
  C   C969      1.0  0.51372  0.14937  0.81803  1.0000
  H   H773      1.0  0.90788  0.42760  0.83045  1.0000
  C   C970      1.0  0.88756  0.44795  0.76616  1.0000
  C   C971      1.0  0.90247  0.42068  0.76949  1.0000
  C   C972      1.0  0.91342  0.40757  0.75102  1.0000
  C   C973      1.0  0.91038  0.42239  0.72932  1.0000
  C   C974      1.0  0.89648  0.45036  0.72611  1.0000
  H   H774      1.0  0.52151  0.14183  0.83470  1.0000
  H   H775      1.0  0.90459  0.40928  0.78624  1.0000
  H   H776      1.0  0.91879  0.41221  0.71499  1.0000
  H   H777      1.0  0.84808  0.39909  0.73062  1.0000
  C   C975      1.0  0.89655  0.44877  0.82726  1.0000
  C   C976      1.0  0.79495  0.06174  0.87590  1.0000
  C   C977      1.0  0.76647  0.07134  0.87676  1.0000
  C   C978      1.0  0.74532  0.05943  0.86345  1.0000
  C   C979      1.0  0.75234  0.03745  0.84922  1.0000
  C   C980      1.0  0.78086  0.02799  0.84829  1.0000
  C   C981      1.0  0.80204  0.04006  0.86147  1.0000
  H   H778      1.0  0.76065  0.08788  0.88799  1.0000
  H   H779      1.0  0.72352  0.06687  0.86447  1.0000
  S   S136      1.0  0.94650  0.99477  0.88403  1.0000
  H   H780      1.0  0.82378  0.03235  0.86064  1.0000
  C   C982      1.0  0.93302  0.24602  0.85510  1.0000
  H   H781      1.0  0.59929  0.99476  0.67645  1.0000
  C   C983      1.0  0.72428  0.09772  0.66717  1.0000
  C   C984      1.0  0.93945  0.18278  0.85697  1.0000
  C   C985      1.0  0.92033  0.19541  0.87132  1.0000
  C   C986      1.0  0.91738  0.22686  0.87054  1.0000
  H   H782      1.0  0.55497  0.00729  0.70641  1.0000
  H   H783      1.0  0.59334  0.13665  0.69319  1.0000
  H   H784      1.0  0.90800  0.18095  0.88309  1.0000
  H   H785      1.0  0.90303  0.23642  0.88206  1.0000
  C   C987      1.0  0.56395  0.31484  0.69162  1.0000
  H   H786      1.0  0.67943  0.00833  0.75695  1.0000
  C   C988      1.0  0.82688  0.15047  0.92259  1.0000
  C   C989      1.0  0.80930  0.16851  0.93450  1.0000
  C   C990      1.0  0.79180  0.19012  0.92283  1.0000
  C   C991      1.0  0.79190  0.19365  0.89926  1.0000
  C   C992      1.0  0.80964  0.17564  0.88721  1.0000
  C   C993      1.0  0.82711  0.15407  0.89903  1.0000
  P   P36       1.0  0.80969  0.18057  0.85681  1.0000
  C   C994      1.0  0.82895  0.15036  0.84546  1.0000
  C   C995      1.0  0.77309  0.17970  0.84782  1.0000
  C   C996      1.0  0.76280  0.19943  0.82984  1.0000
  C   C997      1.0  0.73469  0.19735  0.82256  1.0000
  C   C998      1.0  0.71672  0.17559  0.83313  1.0000
  C   C999      1.0  0.72674  0.15614  0.85120  1.0000
  C   C1000     1.0  0.75471  0.15831  0.85864  1.0000
  C   C1001     1.0  0.85851  0.15236  0.84267  1.0000
  C   C1002     1.0  0.60314  0.12890  0.67834  1.0000
  C   C1003     1.0  0.63223  0.13236  0.67472  1.0000
  H   H787      1.0  0.56794  0.31485  0.70951  1.0000
  C   C1004     1.0  0.81480  0.12520  0.83871  1.0000
  C   C1005     1.0  0.82754  0.21492  0.84663  1.0000
  C   C1006     1.0  0.83456  0.22012  0.82370  1.0000
  C   C1007     1.0  0.85105  0.24484  0.81590  1.0000
  C   C1008     1.0  0.86071  0.26453  0.83093  1.0000
  C   C1009     1.0  0.85366  0.25970  0.85371  1.0000
  C   C1010     1.0  0.83728  0.23494  0.86161  1.0000
  H   H788      1.0  0.84011  0.13336  0.93158  1.0000
  H   H789      1.0  0.54574  0.98939  0.74464  1.0000
  H   H790      1.0  0.77805  0.20402  0.93205  1.0000
  H   H791      1.0  0.77817  0.21037  0.89039  1.0000
  H   H792      1.0  0.84048  0.13962  0.89004  1.0000
  H   H793      1.0  0.77634  0.21628  0.82132  1.0000
  H   H794      1.0  0.72685  0.21240  0.80855  1.0000
  H   H795      1.0  0.69508  0.17361  0.82726  1.0000
  H   H796      1.0  0.71292  0.13902  0.85924  1.0000
  H   H797      1.0  0.76226  0.14270  0.87245  1.0000
  H   H798      1.0  0.87016  0.17111  0.84814  1.0000
  C   C1011     1.0  0.87342  0.13013  0.83263  1.0000
  H   H799      1.0  0.69575  0.09436  0.69525  1.0000
  H   H800      1.0  0.59001  0.06193  0.70582  1.0000
  H   H801      1.0  0.79226  0.12234  0.84112  1.0000
  H   H802      1.0  0.82812  0.20445  0.81197  1.0000
  H   H803      1.0  0.85707  0.24831  0.79833  1.0000
  H   H804      1.0  0.87437  0.28310  0.82510  1.0000
  H   H805      1.0  0.86201  0.27458  0.86535  1.0000
  H   H806      1.0  0.83323  0.23110  0.87947  1.0000
  H   H807      1.0  0.55661  0.10410  0.82069  1.0000
  C   C1012     1.0  0.54970  0.08922  0.83503  1.0000
  H   H808      1.0  0.63088  0.03194  0.69553  1.0000
  H   H809      1.0  0.87080  0.08794  0.81833  1.0000
  H   H810      1.0  0.76084  0.01112  0.78828  1.0000
  C   C1013     1.0  0.96551  0.32800  0.71850  1.0000
  C   C1014     1.0  0.51390  0.04355  0.75029  1.0000
  S   S137      1.0  0.72654  0.02057  0.83260  1.0000
  S   S138      1.0  0.65033  0.99065  0.81937  1.0000
  C   C1015     1.0  0.83391  0.41087  0.74109  1.0000
  C   C1016     1.0  0.66053  0.05193  0.71733  1.0000
  C   C1017     1.0  0.56940  0.08026  0.85191  1.0000
  S   S139      1.0  0.58750  0.98717  0.86280  1.0000
  H   H811      1.0  0.56680  0.36278  0.68501  1.0000
  H   H812      1.0  0.72340  0.12203  0.66504  1.0000
  C   C1018     1.0  0.79984  0.45106  0.74516  1.0000
  C   C1019     1.0  0.51425  0.44605  0.66536  1.0000
  Fe  Fe69      1.0  0.50465  0.10485  0.69281  1.0000
  C   C1020     1.0  0.50044  0.99377  0.66013  1.0000
  H   H813      1.0  0.54838  0.26678  0.65275  1.0000
  H   H814      1.0  0.94114  0.18053  0.91598  1.0000
  H   H815      1.0  0.94955  0.01990  0.94784  1.0000
  H   H816      1.0  0.48890  0.98852  0.74218  1.0000
  P   P37       1.0  0.69083  0.02987  0.71002  1.0000
  H   H817      1.0  0.73280  0.47728  0.69819  1.0000
  C   C1021     1.0  0.81735  0.43489  0.73153  1.0000
  H   H818      1.0  0.75254  0.03722  0.71735  1.0000
  C   C1022     1.0  0.89505  0.17197  0.95980  1.0000
  C   C1023     1.0  0.79893  0.44239  0.76844  1.0000
  C   C1024     1.0  0.98062  0.31405  0.73686  1.0000
  H   H819      1.0  0.55811  0.04939  0.75777  1.0000
  H   H820      1.0  0.59603  0.04932  0.66611  1.0000
  H   H821      1.0  0.97575  0.42134  0.74630  1.0000
  C   C1025     1.0  0.56135  0.06081  0.87050  1.0000
  C   C1026     1.0  0.97738  0.23697  0.91820  1.0000
  C   C1027     1.0  0.70185  0.01278  0.75539  1.0000
  H   H822      1.0  0.81882  0.08335  0.82406  1.0000
  H   H823      1.0  0.96971  0.19236  0.83022  1.0000
  C   C1028     1.0  0.63999  0.09036  0.73862  1.0000
  C   C1029     1.0  0.74287  0.05090  0.65602  1.0000
  C   C1030     1.0  0.50310  0.02258  0.66744  1.0000
  C   C1031     1.0  0.91159  0.47490  0.82058  1.0000
  C   C1032     1.0  0.70997  0.05046  0.68738  1.0000
  C   C1033     1.0  0.70448  0.43486  0.75038  1.0000
  H   H824      1.0  0.96066  0.36729  0.69531  1.0000
  C   C1034     1.0  0.86714  0.44996  0.82979  1.0000
  C   C1035     1.0  0.50439  0.38586  0.65960  1.0000
  C   C1036     1.0  0.74143  0.47205  0.74269  1.0000
  C   C1037     1.0  0.53100  0.06525  0.78324  1.0000
  H   H825      1.0  0.64199  0.10607  0.75124  1.0000
  H   H826      1.0  0.93438  0.47344  0.81856  1.0000
  C   C1038     1.0  0.81569  0.41850  0.77796  1.0000
  H   H827      1.0  0.81541  0.41234  0.79597  1.0000
  C   C1039     1.0  0.61365  0.08634  0.72867  1.0000
  C   C1040     1.0  0.83316  0.40273  0.76428  1.0000
  C   C1041     1.0  0.93385  0.17844  0.93327  1.0000
  C   C1042     1.0  0.51779  0.17933  0.80967  1.0000
  C   C1043     1.0  0.52156  0.07898  0.83665  1.0000
  C   C1044     1.0  0.96600  0.45314  0.69529  1.0000
  H   H828      1.0  0.59110  0.08802  0.85033  1.0000
  H   H829      1.0  0.83345  0.03908  0.93868  1.0000
  C   C1045     1.0  0.96421  0.00289  0.95519  1.0000
  C   C1046     1.0  0.53643  0.05222  0.76332  1.0000
  C   C1047     1.0  0.48432  0.40236  0.67055  1.0000
  C   C1048     1.0  0.88475  0.46294  0.74455  1.0000
  H   H830      1.0  0.78532  0.45423  0.77925  1.0000
  H   H831      1.0  0.85561  0.42958  0.83487  1.0000
  H   H832      1.0  0.72916  0.01080  0.67563  1.0000
  C   C1049     1.0  0.71357  0.02316  0.73449  1.0000
  C   C1050     1.0  0.61228  0.38791  0.64679  1.0000
  C   C1051     1.0  0.50018  0.12949  0.80474  1.0000
  C   C1052     1.0  0.82888  0.04649  0.95507  1.0000
  H   H833      1.0  0.89620  0.13188  0.83051  1.0000
  H   H834      1.0  0.51147  0.21276  0.78149  1.0000
  C   C1053     1.0  0.63735  0.40452  0.64458  1.0000
  C   C1054     1.0  0.74282  0.02900  0.73314  1.0000
  H   H835      1.0  0.66645  0.01447  0.66758  1.0000
  C   C1055     1.0  0.95495  0.20190  0.84145  1.0000
  C   C1056     1.0  0.75290  0.48251  0.69009  1.0000
  H   H836      1.0  0.66480  0.45130  0.76242  1.0000
  S   S140      1.0  0.97071  0.31617  0.79828  1.0000
  H   H837      1.0  0.69738  0.41185  0.75083  1.0000
  H   H838      1.0  0.55872  0.26681  0.69346  1.0000
  Fe  Fe70      1.0  0.97092  0.38788  0.83047  1.0000
  C   C1057     1.0  0.49289  0.17056  0.77551  1.0000
  C   C1058     1.0  0.73201  0.44231  0.74324  1.0000
  C   C1059     1.0  0.56345  0.34189  0.67768  1.0000
  C   C1060     1.0  0.71895  0.00803  0.77453  1.0000
  C   C1061     1.0  0.48912  0.14054  0.78368  1.0000
  C   C1062     1.0  0.72736  0.03505  0.67321  1.0000
  H   H839      1.0  0.59534  0.09892  0.73338  1.0000
  H   H840      1.0  0.64501  0.14285  0.68681  1.0000
  S   S141      1.0  0.93438  0.07905  0.96504  1.0000
  C   C1063     1.0  0.67891  0.99469  0.70077  1.0000
  H   H841      1.0  0.61182  0.36785  0.65846  1.0000
  C   C1064     1.0  0.75986  0.02460  0.75245  1.0000
  H   H842      1.0  0.57692  0.05290  0.88313  1.0000
  C   C1065     1.0  0.59887  0.10460  0.64381  1.0000
  C   C1066     1.0  0.53339  0.05080  0.87243  1.0000
  H   H843      1.0  0.87819  0.45753  0.78036  1.0000
  C   C1067     1.0  0.58662  0.11479  0.66311  1.0000
  C   C1068     1.0  0.63405  0.04858  0.70712  1.0000
  H   H844      1.0  0.84672  0.38467  0.77165  1.0000
  H   H845      1.0  0.55329  0.44114  0.64820  1.0000
  H   H846      1.0  0.94742  0.31692  0.71194  1.0000
  C   C1069     1.0  0.74789  0.01419  0.77316  1.0000
  C   C1070     1.0  0.81440  0.07354  0.95642  1.0000
  C   C1071     1.0  0.55879  0.28776  0.68260  1.0000
  S   S142      1.0  0.53296  0.06433  0.68918  1.0000
  H   H847      1.0  0.88995  0.17539  0.92378  1.0000
  H   H848      1.0  0.89405  0.46168  0.70937  1.0000
  C   C1072     1.0  0.52938  0.39950  0.65102  1.0000
  C   C1073     1.0  0.70862  0.08193  0.68431  1.0000
  H   H849      1.0  0.68354  0.07631  0.74114  1.0000
  Fe  Fe71      1.0  0.95343  0.32108  0.83277  1.0000
  H   H850      1.0  0.50023  0.36253  0.65757  1.0000
  H   H851      1.0  0.78658  0.01095  0.83744  1.0000
  H   H852      1.0  0.65582  0.39729  0.65457  1.0000
  C   C1074     1.0  0.93909  0.45839  0.66054  1.0000
  C   C1075     1.0  0.94581  0.46840  0.68130  1.0000
  C   C1076     1.0  0.82986  0.10288  0.82888  1.0000
  H   H853      1.0  0.49038  0.30586  0.70474  1.0000
  C   C1077     1.0  0.53623  0.99136  0.83859  1.0000
  C   C1078     1.0  0.50760  0.18984  0.78832  1.0000
  C   C1079     1.0  0.51357  0.05973  0.85559  1.0000
  H   H854      1.0  0.78232  0.02946  0.75147  1.0000
  C   C1080     1.0  0.53430  0.42973  0.65426  1.0000
  C   C1081     1.0  0.55805  0.34203  0.65451  1.0000
  H   H855      1.0  0.49052  0.04107  0.65974  1.0000
  H   H856      1.0  0.97444  0.29207  0.74440  1.0000
  C   C1082     1.0  0.61069  0.06554  0.71294  1.0000
  Fe  Fe72      1.0  0.63446  0.02022  0.78945  1.0000
  S   S143      1.0  0.96764  0.42883  0.85008  1.0000
  C   C1083     1.0  0.58949  0.03427  0.65405  1.0000
  C   C1084     1.0  0.53906  0.00335  0.69401  1.0000
  C   C1085     1.0  0.59147  0.00332  0.65995  1.0000
  H   H857      1.0  0.70962  0.99999  0.79058  1.0000
  C   C1086     1.0  0.48913  0.43251  0.67325  1.0000
  S   S144      1.0  0.62158  0.00754  0.75533  1.0000
  Fe  Fe73      1.0  0.61654  0.01375  0.83809  1.0000
  H   H858      1.0  0.52932  0.19423  0.81956  1.0000
  H   H859      1.0  0.80910  0.16558  0.95275  1.0000
  C   C1087     1.0  0.94328  0.17516  0.97335  1.0000
  H   H860      1.0  0.48510  0.17867  0.75895  1.0000
  C   C1088     1.0  0.95166  0.23333  0.84041  1.0000
  C   C1089     1.0  0.55316  0.28772  0.65961  1.0000
  H   H861      1.0  0.81861  0.44070  0.71357  1.0000
  C   C1090     1.0  0.95331  0.17877  0.95108  1.0000
  H   H862      1.0  0.49234  0.05091  0.85731  1.0000
  C   C1091     1.0  0.66791  0.99406  0.67890  1.0000
  H   H863      1.0  0.54812  0.00063  0.82411  1.0000
  H   H864      1.0  0.49325  0.28907  0.65722  1.0000
  H   H865      1.0  0.49567  0.99512  0.82137  1.0000
  H   H866      1.0  0.56765  0.99698  0.78123  1.0000
  H   H867      1.0  0.96384  0.24775  0.82846  1.0000
  C   C1092     1.0  0.48600  0.04752  0.75733  1.0000
  C   C1093     1.0  0.97309  0.35673  0.70912  1.0000
  H   H868      1.0  0.87263  0.16899  0.96323  1.0000
  H   H869      1.0  0.96907  0.12296  0.94177  1.0000
  H   H870      1.0  0.75631  0.03887  0.64518  1.0000
  C   C1094     1.0  0.68614  0.45707  0.75692  1.0000
  C   C1095     1.0  0.74134  0.08222  0.65300  1.0000
  H   H871      1.0  0.48967  0.23368  0.66486  1.0000
  H   H872      1.0  0.96657  0.27786  0.89758  1.0000
  P   P38       1.0  0.77695  0.48121  0.73318  1.0000
  H   H873      1.0  0.92400  0.47095  0.64951  1.0000
  C   C1096     1.0  0.85274  0.47739  0.82576  1.0000
  H   H874      1.0  0.82993  0.47829  0.82765  1.0000
  H   H875      1.0  0.87622  0.10137  0.96775  1.0000
  C   C1097     1.0  0.64473  0.12201  0.65567  1.0000
  H   H876      1.0  0.96384  0.24230  0.93194  1.0000
  H   H877      1.0  0.48592  0.99029  0.64660  1.0000
  C   C1098     1.0  0.97953  0.42739  0.68872  1.0000
  C   C1099     1.0  0.55261  0.31471  0.64561  1.0000
  C   C1100     1.0  0.97896  0.25724  0.89888  1.0000
  H   H878      1.0  0.84811  0.00786  0.97331  1.0000
  C   C1101     1.0  0.77780  0.48489  0.70277  1.0000
  H   H879      1.0  0.96003  0.62788  0.26784  1.0000
  C   C1102     1.0  0.74693  0.54943  0.21858  1.0000
  H   H880      1.0  0.76161  0.53147  0.26533  1.0000
  H   H881      1.0  0.70540  0.56883  0.21205  1.0000
  H   H882      1.0  0.94392  0.60578  0.12964  1.0000
  C   C1103     1.0  0.53298  0.95831  0.25546  1.0000
  H   H883      1.0  0.48640  0.84352  0.27063  1.0000
  H   H884      1.0  0.67431  0.90309  0.24855  1.0000
  H   H885      1.0  0.93265  0.49883  0.23095  1.0000
  H   H886      1.0  0.91649  0.88027  0.12937  1.0000
  H   H887      1.0  0.53033  0.97157  0.26952  1.0000
  H   H888      1.0  0.68487  0.52206  0.20010  1.0000
  C   C1104     1.0  0.93823  0.58245  0.13369  1.0000
  C   C1105     1.0  0.93700  0.57640  0.22269  1.0000
  C   C1106     1.0  0.95693  0.59912  0.21724  1.0000
  H   H889      1.0  0.93099  0.56184  0.21016  1.0000
  C   C1107     1.0  0.84528  0.95133  0.02554  1.0000
  C   C1108     1.0  0.95816  0.56228  0.14389  1.0000
  C   C1109     1.0  0.51036  0.94120  0.14050  1.0000
  C   C1110     1.0  0.83763  0.92219  0.02156  1.0000
  C   C1111     1.0  0.98050  0.72461  0.19233  1.0000
  H   H890      1.0  0.94556  0.88884  0.19664  1.0000
  C   C1112     1.0  0.59729  0.91217  0.26971  1.0000
  H   H891      1.0  0.97957  0.77607  0.12277  1.0000
  H   H892      1.0  0.84445  0.56380  0.24419  1.0000
  C   C1113     1.0  0.70695  0.52252  0.20515  1.0000
  C   C1114     1.0  0.95112  0.53212  0.14895  1.0000
  C   C1115     1.0  0.60980  0.88351  0.27077  1.0000
  H   H893      1.0  0.85022  0.90322  0.02864  1.0000
  H   H894      1.0  0.86142  0.52025  0.21815  1.0000
  H   H895      1.0  0.87147  0.58579  0.16146  1.0000
  C   C1116     1.0  0.85183  0.53620  0.20543  1.0000
  C   C1117     1.0  0.81380  0.91751  0.00842  1.0000
  H   H896      1.0  0.48674  0.89119  0.19384  1.0000
  C   C1118     1.0  0.81107  0.56391  0.18938  1.0000
  H   H897      1.0  0.97647  0.70283  0.20138  1.0000
  H   H898      1.0  0.51427  0.89083  0.23914  1.0000
  H   H899      1.0  0.96030  0.94193  0.05756  1.0000
  C   C1119     1.0  0.93097  0.87367  0.14312  1.0000
  C   C1120     1.0  0.48202  0.93266  0.14318  1.0000
  H   H900      1.0  0.86377  0.95445  0.03578  1.0000
  H   H901      1.0  0.64974  0.92233  0.20477  1.0000
  C   C1121     1.0  0.71851  0.54886  0.21188  1.0000
  H   H902      1.0  0.93582  0.51269  0.19041  1.0000
  H   H903      1.0  0.95130  0.49536  0.11089  1.0000
  H   H904      1.0  0.89593  0.58803  0.12027  1.0000
  H   H905      1.0  0.95059  0.74794  0.21159  1.0000
  C   C1122     1.0  0.97132  0.84401  0.15818  1.0000
  C   C1123     1.0  0.75224  0.49720  0.21182  1.0000
  H   H906      1.0  0.88293  0.53510  0.12978  1.0000
  C   C1124     1.0  0.72381  0.49673  0.20511  1.0000
  C   C1125     1.0  0.80508  0.97112  0.00328  1.0000
  C   C1126     1.0  0.90394  0.54231  0.13397  1.0000
  H   H907      1.0  0.51657  0.95635  0.12608  1.0000
  C   C1127     1.0  0.82258  0.54244  0.20571  1.0000
  H   H908      1.0  0.91229  0.90363  0.16519  1.0000
  C   C1128     1.0  0.85773  0.57320  0.17339  1.0000
  C   C1129     1.0  0.82912  0.97604  0.01633  1.0000
  C   C1130     1.0  0.95350  0.61366  0.25516  1.0000
  C   C1131     1.0  0.65273  0.90577  0.25422  1.0000
  C   C1132     1.0  0.96533  0.61766  0.23354  1.0000
  C   C1133     1.0  0.63338  0.91480  0.19387  1.0000
  C   C1134     1.0  0.64046  0.93442  0.25303  1.0000
  C   C1135     1.0  0.92568  0.57188  0.24448  1.0000
  C   C1136     1.0  0.91122  0.57242  0.12851  1.0000
  H   H909      1.0  0.60323  0.95982  0.26044  1.0000
  S   S145      1.0  0.66191  0.96532  0.24362  1.0000
  Fe  Fe74      1.0  0.89484  0.52659  0.28746  1.0000
  C   C1137     1.0  0.78019  0.54497  0.26748  1.0000
  H   H910      1.0  0.80727  0.59033  0.30464  1.0000
  H   H911      1.0  0.78873  0.56943  0.18926  1.0000
  C   C1138     1.0  0.80264  0.54571  0.25197  1.0000
  H   H912      1.0  0.53167  0.77704  0.22998  1.0000
  C   C1139     1.0  0.49374  0.90459  0.17878  1.0000
  C   C1140     1.0  0.86926  0.55153  0.18930  1.0000
  H   H913      1.0  0.64711  0.85849  0.26320  1.0000
  C   C1141     1.0  0.79752  0.94197  0.99931  1.0000
  C   C1142     1.0  0.82862  0.57919  0.17327  1.0000
  C   C1143     1.0  0.61261  0.93768  0.26078  1.0000
  S   S146      1.0  0.59184  0.85049  0.28117  1.0000
  H   H914      1.0  0.75553  0.57000  0.22387  1.0000
  C   C1144     1.0  0.92385  0.52196  0.14445  1.0000
  C   C1145     1.0  0.82668  0.56293  0.25564  1.0000
  H   H915      1.0  0.57494  0.88802  0.15481  1.0000
  H   H916      1.0  0.84734  0.59140  0.27761  1.0000
  C   C1146     1.0  0.76403  0.52358  0.21863  1.0000
  H   H917      1.0  0.92533  0.58736  0.27750  1.0000
  C   C1147     1.0  0.93398  0.59056  0.26071  1.0000
  C   C1148     1.0  0.92587  0.49176  0.19624  1.0000
  S   S147      1.0  0.85280  0.50808  0.29986  1.0000
  C   C1149     1.0  0.94732  0.87849  0.18103  1.0000
  H   H918      1.0  0.97923  0.56994  0.14774  1.0000
  C   C1150     1.0  0.92858  0.88683  0.16332  1.0000
  H   H919      1.0  0.56624  0.95997  0.20487  1.0000
  H   H920      1.0  0.66146  0.91237  0.16571  1.0000
  S   S148      1.0  0.90106  0.54290  0.25082  1.0000
  H   H921      1.0  0.89187  0.54716  0.18959  1.0000
  C   C1151     1.0  0.96597  0.75007  0.19806  1.0000
  H   H922      1.0  0.57589  0.91465  0.27573  1.0000
  H   H923      1.0  0.60109  0.91518  0.21900  1.0000
  H   H924      1.0  0.62408  0.89466  0.14092  1.0000
  H   H925      1.0  0.63240  0.76463  0.29220  1.0000
  C   C1152     1.0  0.54935  0.96893  0.23691  1.0000
  C   C1153     1.0  0.63735  0.88049  0.26262  1.0000
  H   H926      1.0  0.51972  0.84921  0.17780  1.0000
  C   C1154     1.0  0.52243  0.91218  0.17582  1.0000
  C   C1155     1.0  0.82833  0.57892  0.27457  1.0000
  P   P39       1.0  0.54781  0.89955  0.19740  1.0000
  C   C1156     1.0  0.54163  0.92261  0.22002  1.0000
  C   C1157     1.0  0.54302  0.86047  0.20711  1.0000
  C   C1158     1.0  0.55476  0.84902  0.22781  1.0000
  C   C1159     1.0  0.55052  0.81910  0.23607  1.0000
  C   C1160     1.0  0.53497  0.80020  0.22348  1.0000
  C   C1161     1.0  0.52395  0.81118  0.20246  1.0000
  C   C1162     1.0  0.52811  0.84119  0.19420  1.0000
  C   C1163     1.0  0.55344  0.95134  0.21912  1.0000
  C   C1164     1.0  0.80580  0.57828  0.28978  1.0000
  C   C1165     1.0  0.53040  0.93162  0.15700  1.0000
  C   C1166     1.0  0.52015  0.93029  0.25599  1.0000
  C   C1167     1.0  0.52435  0.91250  0.23832  1.0000
  C   C1168     1.0  0.58401  0.90264  0.18756  1.0000
  C   C1169     1.0  0.59104  0.89571  0.16580  1.0000
  C   C1170     1.0  0.61889  0.89924  0.15792  1.0000
  H   H927      1.0  0.81974  0.59619  0.16102  1.0000
  H   H928      1.0  0.51222  0.79645  0.19257  1.0000
  C   C1171     1.0  0.60561  0.91115  0.20180  1.0000
  C   C1172     1.0  0.63998  0.90911  0.17188  1.0000
  P   P40       1.0  0.80057  0.52443  0.22779  1.0000
  H   H929      1.0  0.80793  0.89494  0.00529  1.0000
  H   H930      1.0  0.96607  0.60204  0.20056  1.0000
  H   H931      1.0  0.55182  0.94009  0.15521  1.0000
  H   H932      1.0  0.56696  0.86340  0.23770  1.0000
  H   H933      1.0  0.55934  0.81072  0.25231  1.0000
  H   H934      1.0  0.97292  0.97105  0.02174  1.0000
  C   C1173     1.0  0.78161  0.56160  0.28607  1.0000
  H   H935      1.0  0.76414  0.56120  0.29787  1.0000
  H   H936      1.0  0.95380  0.84258  0.12468  1.0000
  H   H937      1.0  0.96691  0.51657  0.15643  1.0000
  C   C1174     1.0  0.96858  0.85712  0.17852  1.0000
  C   C1175     1.0  0.97146  0.77820  0.18653  1.0000
  C   C1176     1.0  0.95222  0.85230  0.14053  1.0000
  H   H938      1.0  0.85918  0.49523  0.16770  1.0000
  H   H939      1.0  0.77902  0.93838  0.98913  1.0000
  H   H940      1.0  0.96004  0.79751  0.19142  1.0000
  H   H941      1.0  0.50698  0.92230  0.27015  1.0000
  H   H942      1.0  0.97998  0.49832  0.28755  1.0000
  H   H943      1.0  0.97672  0.51107  0.24626  1.0000
  H   H944      1.0  0.80632  0.48678  0.27106  1.0000
  S   S149      1.0  0.92051  0.48680  0.30194  1.0000
  C   C1177     1.0  0.81358  0.48669  0.23518  1.0000
  S   S150      1.0  0.53990  0.92627  0.36350  1.0000
  C   C1178     1.0  0.74922  0.75728  0.34040  1.0000
  H   H945      1.0  0.78832  0.72370  0.61281  1.0000
  H   H946      1.0  0.71425  0.71763  0.57454  1.0000
  C   C1179     1.0  0.72128  0.74693  0.34145  1.0000
  H   H947      1.0  0.52643  0.70026  0.60922  1.0000
  C   C1180     1.0  0.58121  0.72790  0.56972  1.0000
  H   H948      1.0  0.69585  0.69117  0.54340  1.0000
  C   C1181     1.0  0.87372  0.52312  0.40420  1.0000
  C   C1182     1.0  0.80391  0.64482  0.63308  1.0000
  C   C1183     1.0  0.54279  0.61790  0.44054  1.0000
  C   C1184     1.0  0.59297  0.92807  0.32165  1.0000
  S   S151      1.0  0.63958  0.63884  0.60970  1.0000
  Fe  Fe75      1.0  0.59605  0.56509  0.61064  1.0000
  S   S152      1.0  0.58008  0.60926  0.59423  1.0000
  H   H949      1.0  0.80206  0.53050  0.40367  1.0000
  Fe  Fe76      1.0  0.62425  0.61477  0.58053  1.0000
  S   S153      1.0  0.62831  0.63531  0.54420  1.0000
  C   C1185     1.0  0.67145  0.61895  0.32983  1.0000
  S   S154      1.0  0.64001  0.56963  0.59555  1.0000
  Fe  Fe77      1.0  0.61073  0.60249  0.38416  1.0000
  S   S155      1.0  0.65494  0.59868  0.39925  1.0000
  S   S156      1.0  0.58900  0.64223  0.36384  1.0000
  Fe  Fe78      1.0  0.60091  0.53425  0.39035  1.0000
  S   S157      1.0  0.64377  0.52586  0.40611  1.0000
  H   H950      1.0  0.80275  0.77506  0.59929  1.0000
  Fe  Fe79      1.0  0.63429  0.56556  0.42532  1.0000
  S   S158      1.0  0.64380  0.55496  0.46273  1.0000
  Fe  Fe80      1.0  0.66115  0.55909  0.37908  1.0000
  S   S159      1.0  0.69621  0.54398  0.35614  1.0000
  S   S160      1.0  0.58989  0.57154  0.41137  1.0000
  S   S161      1.0  0.61865  0.56526  0.36220  1.0000
  C   C1186     1.0  0.63244  0.61279  0.52163  1.0000
  C   C1187     1.0  0.63118  0.62628  0.49933  1.0000
  C   C1188     1.0  0.63444  0.60894  0.48101  1.0000
  C   C1189     1.0  0.63910  0.57797  0.48491  1.0000
  C   C1190     1.0  0.64027  0.56455  0.50720  1.0000
  C   C1191     1.0  0.63687  0.58182  0.52548  1.0000
  H   H951      1.0  0.62782  0.65026  0.49622  1.0000
  H   H952      1.0  0.63380  0.61951  0.46392  1.0000
  H   H953      1.0  0.64394  0.54063  0.51037  1.0000
  H   H954      1.0  0.63794  0.57117  0.54253  1.0000
  C   C1192     1.0  0.53087  0.68932  0.57476  1.0000
  H   H955      1.0  0.71532  0.61280  0.33898  1.0000
  H   H956      1.0  0.53197  0.52496  0.40537  1.0000
  S   S162      1.0  0.55392  0.77636  0.38001  1.0000
  Fe  Fe81      1.0  0.53526  0.88363  0.34625  1.0000
  C   C1193     1.0  0.51072  0.63258  0.59172  1.0000
  C   C1194     1.0  0.79319  0.55489  0.35170  1.0000
  C   C1195     1.0  0.77926  0.53355  0.34026  1.0000
  C   C1196     1.0  0.74956  0.53078  0.34173  1.0000
  C   C1197     1.0  0.73350  0.54882  0.35505  1.0000
  C   C1198     1.0  0.74749  0.56977  0.36695  1.0000
  H   H957      1.0  0.54525  0.53435  0.46500  1.0000
  H   H958      1.0  0.79131  0.51967  0.32982  1.0000
  C   C1199     1.0  0.61814  0.78164  0.32271  1.0000
  H   H959      1.0  0.73544  0.58370  0.37735  1.0000
  C   C1200     1.0  0.65014  0.66624  0.33751  1.0000
  H   H960      1.0  0.71307  0.53715  0.40657  1.0000
  H   H961      1.0  0.52935  0.54852  0.63209  1.0000
  H   H962      1.0  0.57998  0.74980  0.52594  1.0000
  Fe  Fe82      1.0  0.54284  0.81424  0.35264  1.0000
  Fe  Fe83      1.0  0.86103  0.53178  0.33067  1.0000
  C   C1201     1.0  0.49836  0.64974  0.40427  1.0000
  S   S163      1.0  0.88442  0.49265  0.34876  1.0000
  H   H963      1.0  0.70125  0.52498  0.44693  1.0000
  H   H964      1.0  0.97362  0.57555  0.31528  1.0000
  H   H965      1.0  0.72394  0.57231  0.61355  1.0000
  H   H966      1.0  0.77610  0.56565  0.61009  1.0000
  H   H967      1.0  0.70590  0.60682  0.58340  1.0000
  C   C1202     1.0  0.57370  0.70044  0.35045  1.0000
  C   C1203     1.0  0.58080  0.67973  0.36891  1.0000
  C   C1204     1.0  0.58009  0.68910  0.39057  1.0000
  C   C1205     1.0  0.57242  0.71893  0.39365  1.0000
  C   C1206     1.0  0.98016  0.59628  0.32151  1.0000
  H   H968      1.0  0.58490  0.67326  0.40494  1.0000
  H   H969      1.0  0.57166  0.72594  0.41047  1.0000
  C   C1207     1.0  0.51937  0.95909  0.35613  1.0000
  S   S164      1.0  0.96384  0.51722  0.35287  1.0000
  H   H970      1.0  0.69148  0.63586  0.54771  1.0000
  H   H971      1.0  0.68724  0.65372  0.63592  1.0000
  H   H972      1.0  0.64318  0.66332  0.38452  1.0000
  C   C1208     1.0  0.51820  0.63798  0.56904  1.0000
  C   C1209     1.0  0.52344  0.56768  0.44264  1.0000
  H   H973      1.0  0.49834  0.55163  0.56895  1.0000
  H   H974      1.0  0.52566  0.74444  0.46887  1.0000
  C   C1210     1.0  0.73117  0.78545  0.59830  1.0000
  H   H975      1.0  0.73896  0.51448  0.33252  1.0000
  C   C1211     1.0  0.61989  0.77886  0.34618  1.0000
  H   H976      1.0  0.75516  0.77503  0.32762  1.0000
  C   C1212     1.0  0.50420  0.66065  0.38187  1.0000
  Fe  Fe84      1.0  0.55889  0.85067  0.30850  1.0000
  C   C1213     1.0  0.64408  0.67254  0.41906  1.0000
  C   C1214     1.0  0.65329  0.69187  0.43451  1.0000
  C   C1215     1.0  0.66937  0.71704  0.42714  1.0000
  C   C1216     1.0  0.67655  0.72266  0.40437  1.0000
  C   C1217     1.0  0.66781  0.70298  0.38881  1.0000
  C   C1218     1.0  0.65104  0.67824  0.39626  1.0000
  H   H977      1.0  0.57178  0.75763  0.48503  1.0000
  H   H978      1.0  0.54435  0.60505  0.38340  1.0000
  C   C1219     1.0  0.56594  0.73020  0.35352  1.0000
  H   H979      1.0  0.70604  0.75702  0.32937  1.0000
  C   C1220     1.0  0.78118  0.66064  0.62241  1.0000
  S   S165      1.0  0.83029  0.56051  0.34911  1.0000
  C   C1221     1.0  0.70801  0.63101  0.58154  1.0000
  C   C1222     1.0  0.72280  0.75632  0.60595  1.0000
  H   H980      1.0  0.77910  0.66125  0.60429  1.0000
  H   H981      1.0  0.53923  0.98301  0.38141  1.0000
  P   P41       1.0  0.50701  0.51598  0.53037  1.0000
  H   H982      1.0  0.63136  0.65318  0.42465  1.0000
  H   H983      1.0  0.64782  0.68739  0.45215  1.0000
  H   H984      1.0  0.67622  0.73225  0.43906  1.0000
  H   H985      1.0  0.68885  0.74237  0.39887  1.0000
  H   H986      1.0  0.81888  0.63291  0.62334  1.0000
  H   H987      1.0  0.76645  0.81480  0.59000  1.0000
  C   C1223     1.0  0.69988  0.64738  0.56142  1.0000
  H   H988      1.0  0.66366  0.72571  0.31181  1.0000
  C   C1224     1.0  0.70230  0.67859  0.55905  1.0000
  C   C1225     1.0  0.62294  0.75746  0.57634  1.0000
  C   C1226     1.0  0.75997  0.79221  0.59592  1.0000
  C   C1227     1.0  0.52244  0.59791  0.43368  1.0000
  C   C1228     1.0  0.60485  0.98071  0.32078  1.0000
  C   C1229     1.0  0.64002  0.73190  0.57609  1.0000
  C   C1230     1.0  0.62790  0.70452  0.57219  1.0000
  C   C1231     1.0  0.59860  0.70243  0.56910  1.0000
  H   H989      1.0  0.61389  0.70298  0.62371  1.0000
  C   C1232     1.0  0.53409  0.60133  0.51039  1.0000
  H   H990      1.0  0.66262  0.73328  0.57881  1.0000
  H   H991      1.0  0.64122  0.68483  0.57147  1.0000
  H   H992      1.0  0.58970  0.68095  0.56607  1.0000
  C   C1233     1.0  0.53351  0.76056  0.59944  1.0000
  H   H993      1.0  0.58095  0.77582  0.57279  1.0000
  H   H994      1.0  0.71945  0.66177  0.35398  1.0000
  C   C1234     1.0  0.58512  0.95824  0.31765  1.0000
  C   C1235     1.0  0.72558  0.52062  0.41689  1.0000
  H   H995      1.0  0.49514  0.71498  0.53516  1.0000
  H   H996      1.0  0.50195  0.73576  0.38674  1.0000
  S   S166      1.0  0.57571  0.49348  0.38213  1.0000
  C   C1236     1.0  0.78041  0.76983  0.60117  1.0000
  C   C1237     1.0  0.65143  0.74034  0.32159  1.0000
  C   C1238     1.0  0.54416  0.55775  0.45850  1.0000
  C   C1239     1.0  0.74824  0.50608  0.40735  1.0000
  C   C1240     1.0  0.59370  0.75560  0.57290  1.0000
  H   H997      1.0  0.60735  0.79354  0.35572  1.0000
  H   H998      1.0  0.55502  0.53687  0.55585  1.0000
  C   C1241     1.0  0.54911  0.55451  0.54285  1.0000
  C   C1242     1.0  0.65342  0.73751  0.34521  1.0000
  C   C1243     1.0  0.52328  0.98399  0.36832  1.0000
  C   C1244     1.0  0.82248  0.51930  0.40494  1.0000
  C   C1245     1.0  0.63731  0.75682  0.35744  1.0000
  Fe  Fe85      1.0  0.65189  0.59299  0.62605  1.0000
  C   C1246     1.0  0.67581  0.67523  0.34660  1.0000
  P   P42       1.0  0.67738  0.71014  0.35946  1.0000
  H   H999      1.0  0.62030  0.75790  0.62490  1.0000
  S   S167      1.0  0.57365  0.52109  0.60577  1.0000
  C   C1247     1.0  0.51860  0.57465  0.51219  1.0000
  H   H1000     1.0  0.63784  0.75495  0.37563  1.0000
  H   H1001     1.0  0.62639  0.89650  0.33141  1.0000
  H   H1002     1.0  0.57776  0.91092  0.31896  1.0000
  S   S168      1.0  0.57281  0.85255  0.34427  1.0000
  C   C1248     1.0  0.49043  0.49140  0.46733  1.0000
  C   C1249     1.0  0.55513  0.74820  0.49603  1.0000
  C   C1250     1.0  0.52534  0.75466  0.57767  1.0000
  H   H1003     1.0  0.56992  0.62467  0.52277  1.0000
  Fe  Fe86      1.0  0.59662  0.62971  0.62459  1.0000
  H   H1004     1.0  0.78783  0.58945  0.37408  1.0000
  H   H1005     1.0  0.50808  0.64565  0.36908  1.0000
  C   C1251     1.0  0.64797  0.63819  0.32925  1.0000
  H   H1006     1.0  0.55031  0.74760  0.60821  1.0000
  C   C1252     1.0  0.49373  0.51808  0.63271  1.0000
  H   H1007     1.0  0.56370  0.96371  0.31212  1.0000
  C   C1253     1.0  0.56404  0.57785  0.46550  1.0000
  H   H1008     1.0  0.51918  0.53695  0.34196  1.0000
  C   C1254     1.0  0.52375  0.50344  0.40186  1.0000
  H   H1009     1.0  0.70038  0.75141  0.60763  1.0000
  H   H1010     1.0  0.84515  0.56105  0.40122  1.0000
  H   H1011     1.0  0.95319  0.64939  0.35269  1.0000
  H   H1012     1.0  0.63225  0.77876  0.57934  1.0000
  H   H1013     1.0  0.56037  0.74581  0.33916  1.0000
  H   H1014     1.0  0.53534  0.66937  0.54325  1.0000
  C   C1255     1.0  0.77212  0.74067  0.60886  1.0000
  H   H1015     1.0  0.56162  0.97877  0.61335  1.0000
  C   C1256     1.0  0.56487  0.58093  0.54064  1.0000
  H   H1016     1.0  0.79112  0.75275  0.35485  1.0000
  Fe  Fe87      1.0  0.92400  0.51201  0.33243  1.0000
  H   H1017     1.0  0.57403  0.69339  0.33363  1.0000
  C   C1257     1.0  0.52837  0.58967  0.37855  1.0000
  H   H1018     1.0  0.75317  0.51168  0.38979  1.0000
  P   P43       1.0  0.54372  0.72591  0.56381  1.0000
  C   C1258     1.0  0.49607  0.49497  0.40843  1.0000
  C   C1259     1.0  0.49913  0.80105  0.59877  1.0000
  H   H1019     1.0  0.54343  0.64098  0.43321  1.0000
  C   C1260     1.0  0.76946  0.74478  0.35576  1.0000
  C   C1261     1.0  0.69723  0.62790  0.33845  1.0000
  H   H1020     1.0  0.48299  0.51036  0.41675  1.0000
  C   C1262     1.0  0.96830  0.63796  0.34280  1.0000
  C   C1263     1.0  0.55746  0.60430  0.52441  1.0000
  S   S169      1.0  0.50642  0.84563  0.35807  1.0000
  C   C1264     1.0  0.51207  0.72415  0.52436  1.0000
  C   C1265     1.0  0.56512  0.73959  0.37517  1.0000
  C   C1266     1.0  0.77719  0.57291  0.36512  1.0000
  C   C1267     1.0  0.72039  0.67724  0.59737  1.0000
  C   C1268     1.0  0.84698  0.53680  0.40365  1.0000
  H   H1021     1.0  0.58032  0.57003  0.47758  1.0000
  P   P44       1.0  0.73220  0.69610  0.62119  1.0000
  C   C1269     1.0  0.52863  0.66607  0.56064  1.0000
  H   H1022     1.0  0.52841  0.61948  0.49778  1.0000
  H   H1023     1.0  0.89264  0.53677  0.40243  1.0000
  P   P45       1.0  0.49589  0.60996  0.41279  1.0000
  C   C1270     1.0  0.69943  0.65584  0.34691  1.0000
  C   C1271     1.0  0.50760  0.72870  0.50108  1.0000
  C   C1272     1.0  0.73384  0.71160  0.37339  1.0000
  C   C1273     1.0  0.82457  0.48787  0.40689  1.0000
  H   H1024     1.0  0.57916  0.62329  0.46167  1.0000
  C   C1274     1.0  0.50367  0.77219  0.56665  1.0000
  C   C1275     1.0  0.53833  0.51092  0.61335  1.0000
  H   H1025     1.0  0.60842  0.50543  0.45880  1.0000
  H   H1026     1.0  0.58305  0.58318  0.55145  1.0000
  H   H1027     1.0  0.51669  0.62007  0.55818  1.0000
  C   C1276     1.0  0.52622  0.55090  0.52829  1.0000
  C   C1277     1.0  0.62042  0.92000  0.32877  1.0000
  H   H1028     1.0  0.48737  0.72309  0.49401  1.0000
  C   C1278     1.0  0.71259  0.69351  0.57689  1.0000
  C   C1279     1.0  0.76706  0.56993  0.62613  1.0000
  H   H1029     1.0  0.55476  0.57334  0.35292  1.0000
  C   C1280     1.0  0.56333  0.60790  0.45656  1.0000
  C   C1281     1.0  0.52371  0.68347  0.59760  1.0000
  H   H1030     1.0  0.66959  0.59684  0.32402  1.0000
  C   C1282     1.0  0.70306  0.69787  0.64071  1.0000
  C   C1283     1.0  0.52913  0.74072  0.48692  1.0000
  C   C1284     1.0  0.53430  0.57178  0.36121  1.0000
  C   C1285     1.0  0.63225  0.97251  0.32855  1.0000
  H   H1031     1.0  0.66136  0.93601  0.33785  1.0000
  H   H1032     1.0  0.72432  0.63281  0.61495  1.0000
  C   C1286     1.0  0.51373  0.65523  0.60600  1.0000
  H   H1033     1.0  0.62773  0.63100  0.32310  1.0000
  H   H1034     1.0  0.50916  0.65071  0.62382  1.0000
  H   H1035     1.0  0.50355  0.61053  0.59842  1.0000
  C   C1287     1.0  0.74323  0.73372  0.61138  1.0000
  C   C1288     1.0  0.71337  0.72392  0.35793  1.0000
  C   C1289     1.0  0.71893  0.51370  0.43959  1.0000
  C   C1290     1.0  0.50213  0.58764  0.38964  1.0000
  C   C1291     1.0  0.50401  0.49550  0.48762  1.0000
  C   C1292     1.0  0.53816  0.73164  0.53367  1.0000
  H   H1036     1.0  0.93996  0.60164  0.33771  1.0000
  C   C1293     1.0  0.52057  0.78372  0.60987  1.0000
  C   C1294     1.0  0.71836  0.64583  0.59939  1.0000
  C   C1295     1.0  0.63385  0.76234  0.31041  1.0000
  H   H1037     1.0  0.51029  0.69989  0.35844  1.0000
  H   H1038     1.0  0.63141  0.68037  0.33757  1.0000
  C   C1296     1.0  0.96079  0.61114  0.33431  1.0000
  H   H1039     1.0  0.50098  0.57255  0.50086  1.0000
  H   H1040     1.0  0.50842  0.55173  0.43711  1.0000
  C   C1297     1.0  0.55967  0.74373  0.51930  1.0000
  C   C1298     1.0  0.48797  0.54919  0.36589  1.0000
  H   H1041     1.0  0.72826  0.69377  0.38622  1.0000
  C   C1299     1.0  0.76177  0.72195  0.37225  1.0000
  H   H1042     1.0  0.71531  0.80281  0.59426  1.0000
  H   H1043     1.0  0.77749  0.71216  0.38412  1.0000
  C   C1300     1.0  0.51416  0.55148  0.35491  1.0000
  C   C1301     1.0  0.64005  0.94224  0.33236  1.0000
  C   C1302     1.0  0.73747  0.57390  0.62799  1.0000
  H   H1044     1.0  0.49698  0.76856  0.54983  1.0000
  C   C1303     1.0  0.52123  0.52800  0.62644  1.0000
  H   H1045     1.0  0.97610  0.57948  0.60976  1.0000
  Fe  Fe88      1.0  0.49721  0.84407  0.32123  1.0000
  S   S170      1.0  0.90130  0.55329  0.31685  1.0000
  C   C1304     1.0  0.48291  0.49129  0.62566  1.0000
  C   C1305     1.0  0.49868  0.96063  0.33919  1.0000
  H   H1046     1.0  0.52752  0.78855  0.62646  1.0000
  C   C1306     1.0  0.73503  0.49223  0.45274  1.0000
  C   C1307     1.0  0.59927  0.71556  0.63318  1.0000
  H   H1047     1.0  0.56592  0.50489  0.51748  1.0000
  H   H1048     1.0  0.57072  0.49877  0.43114  1.0000
  S   S171      1.0  0.52356  0.88419  0.30983  1.0000
  C   C1308     1.0  0.49017  0.51105  0.50380  1.0000
  H   H1049     1.0  0.49558  0.94170  0.32955  1.0000
  C   C1309     1.0  0.76127  0.67525  0.63509  1.0000
  C   C1310     1.0  0.50046  0.71180  0.39160  1.0000
  C   C1311     1.0  0.60283  0.74672  0.63384  1.0000
  S   S172      1.0  0.53140  0.80997  0.31650  1.0000
  C   C1312     1.0  0.49441  0.70118  0.41386  1.0000
  C   C1313     1.0  0.50521  0.69156  0.37563  1.0000
  C   C1314     1.0  0.49314  0.67027  0.42017  1.0000
  H   H1050     1.0  0.60450  0.79869  0.31407  1.0000
  H   H1051     1.0  0.49090  0.71702  0.42618  1.0000
  H   H1052     1.0  0.48830  0.66235  0.43746  1.0000
  C   C1315     1.0  0.87603  0.49186  0.40614  1.0000
  H   H1053     1.0  0.48936  0.81917  0.60684  1.0000
  H   H1054     1.0  0.77950  0.50050  0.63748  1.0000
  C   C1316     1.0  0.49060  0.79522  0.57721  1.0000
  C   C1317     1.0  0.48201  0.56701  0.38332  1.0000
  H   H1055     1.0  0.72987  0.48699  0.47037  1.0000
  Fe  Fe89      1.0  0.92052  0.54690  0.67440  1.0000
  S   S173      1.0  0.92066  0.55288  0.71130  1.0000
  Fe  Fe90      1.0  0.85664  0.56300  0.66847  1.0000
  S   S174      1.0  0.85205  0.57072  0.70482  1.0000
  Fe  Fe91      1.0  0.89420  0.59391  0.70149  1.0000
  S   S175      1.0  0.90029  0.63923  0.71431  1.0000
  Fe  Fe92      1.0  0.87882  0.52912  0.71169  1.0000
  C   C1318     1.0  0.55970  0.82707  0.76847  1.0000
  C   C1319     1.0  0.50202  0.68754  0.71537  1.0000
  H   H1056     1.0  0.52895  0.89777  0.76764  1.0000
  H   H1057     1.0  0.64400  0.81537  0.71039  1.0000
  Fe  Fe93      1.0  0.56603  0.83258  0.66887  1.0000
  S   S176      1.0  0.56622  0.81938  0.70596  1.0000
  H   H1058     1.0  0.59206  0.64955  0.80842  1.0000
  Fe  Fe94      1.0  0.53751  0.89356  0.67547  1.0000
  S   S177      1.0  0.53627  0.88455  0.71313  1.0000
  H   H1059     1.0  0.74945  0.68486  0.66876  1.0000
  Fe  Fe95      1.0  0.58029  0.86630  0.70934  1.0000
  S   S178      1.0  0.61558  0.87246  0.73378  1.0000
  Fe  Fe96      1.0  0.52233  0.83868  0.70633  1.0000
  S   S179      1.0  0.58305  0.87904  0.67211  1.0000
  S   S180      1.0  0.52061  0.84823  0.66869  1.0000
  C   C1320     1.0  0.51724  0.96971  0.66965  1.0000
  S   S181      1.0  0.68863  0.58749  0.65145  1.0000
  C   C1321     1.0  0.77724  0.54364  0.72854  1.0000
  C   C1322     1.0  0.81156  0.54861  0.76616  1.0000
  C   C1323     1.0  0.49064  0.89534  0.86886  1.0000
  H   H1060     1.0  0.66038  0.87066  0.81750  1.0000
  H   H1061     1.0  0.66860  0.90673  0.84584  1.0000
  H   H1062     1.0  0.95849  0.61065  0.70567  1.0000
  H   H1063     1.0  0.93826  0.50457  0.85143  1.0000
  C   C1324     1.0  0.80698  0.64345  0.65644  1.0000
  H   H1064     1.0  0.57975  0.92686  0.84676  1.0000
  H   H1065     1.0  0.50426  0.79910  0.80008  1.0000
  C   C1325     1.0  0.95324  0.50269  0.75388  1.0000
  H   H1066     1.0  0.52177  0.87200  0.89057  1.0000
  H   H1067     1.0  0.54643  0.76156  0.66637  1.0000
  H   H1068     1.0  0.49941  0.91719  0.81318  1.0000
  C   C1326     1.0  0.64729  0.90278  0.84004  1.0000
  C   C1327     1.0  0.68408  0.67393  0.64406  1.0000
  H   H1069     1.0  0.81306  0.50066  0.76986  1.0000
  C   C1328     1.0  0.61633  0.90972  0.74053  1.0000
  C   C1329     1.0  0.60383  0.93250  0.72604  1.0000
  C   C1330     1.0  0.60603  0.96245  0.73069  1.0000
  C   C1331     1.0  0.65795  0.96723  0.67170  1.0000
  C   C1332     1.0  0.63176  0.94685  0.76504  1.0000
  C   C1333     1.0  0.63043  0.91689  0.75998  1.0000
  H   H1070     1.0  0.59312  0.92714  0.71093  1.0000
  H   H1071     1.0  0.71461  0.74081  0.65193  1.0000
  H   H1072     1.0  0.64238  0.95229  0.78016  1.0000
  H   H1073     1.0  0.64026  0.89931  0.77114  1.0000
  H   H1074     1.0  0.51579  0.84166  0.82121  1.0000
  H   H1075     1.0  0.97340  0.77197  0.83146  1.0000
  H   H1076     1.0  0.63789  0.70241  0.68012  1.0000
  C   C1334     1.0  0.89740  0.50262  0.81684  1.0000
  H   H1077     1.0  0.64885  0.96702  0.65504  1.0000
  S   S182      1.0  0.86600  0.49709  0.74113  1.0000
  C   C1335     1.0  0.77306  0.57679  0.66549  1.0000
  C   C1336     1.0  0.74352  0.58135  0.66724  1.0000
  H   H1078     1.0  0.78665  0.57799  0.67997  1.0000
  H   H1079     1.0  0.73455  0.58606  0.68319  1.0000
  C   C1337     1.0  0.91760  0.64326  0.74011  1.0000
  C   C1338     1.0  0.91404  0.67031  0.74970  1.0000
  C   C1339     1.0  0.92733  0.67478  0.77010  1.0000
  C   C1340     1.0  0.94512  0.65266  0.78083  1.0000
  C   C1341     1.0  0.94921  0.62565  0.77111  1.0000
  C   C1342     1.0  0.93508  0.62077  0.75094  1.0000
  H   H1080     1.0  0.90065  0.68779  0.74145  1.0000
  H   H1081     1.0  0.92396  0.69559  0.77752  1.0000
  C   C1343     1.0  0.65910  0.94076  0.68618  1.0000
  H   H1082     1.0  0.93745  0.59959  0.74395  1.0000
  C   C1344     1.0  0.67605  0.72432  0.66743  1.0000
  H   H1083     1.0  0.54516  0.96516  0.89356  1.0000
  C   C1345     1.0  0.86781  0.50369  0.81938  1.0000
  C   C1346     1.0  0.80382  0.49788  0.66812  1.0000
  H   H1084     1.0  0.54033  0.70651  0.66575  1.0000
  C   C1347     1.0  0.49152  0.71523  0.70591  1.0000
  C   C1348     1.0  0.53747  0.80806  0.77564  1.0000
  H   H1085     1.0  0.53134  0.79015  0.76574  1.0000
  C   C1349     1.0  0.53571  0.97432  0.68731  1.0000
  H   H1086     1.0  0.68107  0.50398  0.76131  1.0000
  H   H1087     1.0  0.50064  0.76208  0.69752  1.0000
  H   H1088     1.0  0.58202  0.86737  0.77343  1.0000
  C   C1350     1.0  0.72287  0.49427  0.74923  1.0000
  C   C1351     1.0  0.55088  0.85710  0.79954  1.0000
  C   C1352     1.0  0.55176  0.92279  0.79131  1.0000
  C   C1353     1.0  0.93430  0.50933  0.77067  1.0000
  C   C1354     1.0  0.58378  0.76354  0.64577  1.0000
  H   H1089     1.0  0.77730  0.59194  0.72438  1.0000
  H   H1090     1.0  0.48843  0.66804  0.71670  1.0000
  H   H1091     1.0  0.57246  0.95506  0.81058  1.0000
  C   C1355     1.0  0.51697  0.88164  0.87363  1.0000
  C   C1356     1.0  0.64733  0.64884  0.72092  1.0000
  C   C1357     1.0  0.63590  0.63239  0.70440  1.0000
  C   C1358     1.0  0.60859  0.63901  0.69616  1.0000
  C   C1359     1.0  0.59254  0.66179  0.70456  1.0000
  C   C1360     1.0  0.60340  0.67760  0.72184  1.0000
  C   C1361     1.0  0.63122  0.67146  0.72954  1.0000
  P   P46       1.0  0.58313  0.70710  0.73316  1.0000
  C   C1362     1.0  0.54775  0.71021  0.72148  1.0000
  C   C1363     1.0  0.57735  0.69994  0.76312  1.0000
  C   C1364     1.0  0.58854  0.67432  0.77564  1.0000
  C   C1365     1.0  0.58334  0.66930  0.79879  1.0000
  C   C1366     1.0  0.56672  0.68959  0.80952  1.0000
  C   C1367     1.0  0.55507  0.71482  0.79708  1.0000
  C   C1368     1.0  0.56020  0.71986  0.77396  1.0000
  C   C1369     1.0  0.52993  0.68509  0.72337  1.0000
  C   C1370     1.0  0.65635  0.70106  0.66953  1.0000
  H   H1092     1.0  0.64530  0.65772  0.65950  1.0000
  C   C1371     1.0  0.50891  0.74044  0.70447  1.0000
  C   C1372     1.0  0.53686  0.73800  0.71231  1.0000
  C   C1373     1.0  0.60266  0.74138  0.72638  1.0000
  C   C1374     1.0  0.61132  0.75931  0.74317  1.0000
  C   C1375     1.0  0.62632  0.78581  0.73736  1.0000
  C   C1376     1.0  0.63317  0.79434  0.71487  1.0000
  C   C1377     1.0  0.62496  0.77642  0.69814  1.0000
  C   C1378     1.0  0.60971  0.75011  0.70386  1.0000
  H   H1093     1.0  0.66878  0.64420  0.72687  1.0000
  H   H1094     1.0  0.64846  0.61507  0.69747  1.0000
  H   H1095     1.0  0.60002  0.62693  0.68281  1.0000
  H   H1096     1.0  0.57197  0.66714  0.69710  1.0000
  H   H1097     1.0  0.64044  0.68423  0.74218  1.0000
  H   H1098     1.0  0.60096  0.65798  0.76768  1.0000
  S   S183      1.0  0.95725  0.53621  0.65189  1.0000
  C   C1379     1.0  0.57667  0.70087  0.64463  1.0000
  H   H1099     1.0  0.54194  0.73044  0.80532  1.0000
  H   H1100     1.0  0.55079  0.73935  0.76446  1.0000
  H   H1101     1.0  0.53762  0.66361  0.73106  1.0000
  H   H1102     1.0  0.82435  0.63059  0.66464  1.0000
  S   S184      1.0  0.88060  0.51938  0.67560  1.0000
  H   H1103     1.0  0.54969  0.75794  0.71136  1.0000
  H   H1104     1.0  0.60646  0.75323  0.76070  1.0000
  H   H1105     1.0  0.63215  0.80021  0.75018  1.0000
  C   C1380     1.0  0.64262  0.88253  0.82408  1.0000
  H   H1106     1.0  0.62949  0.78352  0.68062  1.0000
  H   H1107     1.0  0.60288  0.73685  0.69067  1.0000
  H   H1108     1.0  0.56267  0.68566  0.82745  1.0000
  H   H1109     1.0  0.78964  0.65659  0.68732  1.0000
  C   C1381     1.0  0.56139  0.74878  0.65738  1.0000
  H   H1110     1.0  0.82556  0.55052  0.78034  1.0000
  C   C1382     1.0  0.94252  0.52734  0.78738  1.0000
  C   C1383     1.0  0.55791  0.71762  0.65686  1.0000
  P   P47       1.0  0.91720  0.53623  0.80843  1.0000
  C   C1384     1.0  0.93617  0.54839  0.83223  1.0000
  C   C1385     1.0  0.89368  0.56592  0.79680  1.0000
  C   C1386     1.0  0.88154  0.58587  0.81089  1.0000
  C   C1387     1.0  0.86547  0.61049  0.80172  1.0000
  C   C1388     1.0  0.86080  0.61493  0.77852  1.0000
  C   C1389     1.0  0.87148  0.59428  0.76457  1.0000
  C   C1390     1.0  0.88783  0.56983  0.77361  1.0000
  C   C1391     1.0  0.94353  0.52808  0.85083  1.0000
  S   S185      1.0  0.60907  0.58476  0.64232  1.0000
  H   H1111     1.0  0.55729  0.86954  0.86042  1.0000
  C   C1392     1.0  0.56198  0.95124  0.79502  1.0000
  C   C1393     1.0  0.94450  0.57849  0.83190  1.0000
  H   H1112     1.0  0.67093  0.92059  0.71913  1.0000
  C   C1394     1.0  0.78452  0.57195  0.73457  1.0000
  C   C1395     1.0  0.59206  0.89392  0.82420  1.0000
  C   C1396     1.0  0.96676  0.56790  0.86839  1.0000
  H   H1113     1.0  0.80762  0.59639  0.75786  1.0000
  C   C1397     1.0  0.56610  0.85168  0.78016  1.0000
  S   S186      1.0  0.48886  0.81113  0.72533  1.0000
  C   C1398     1.0  0.53789  0.91910  0.77087  1.0000
  C   C1399     1.0  0.80426  0.52023  0.76019  1.0000
  C   C1400     1.0  0.68018  0.96786  0.71512  1.0000
  H   H1114     1.0  0.62797  0.93449  0.86043  1.0000
  H   H1115     1.0  0.88521  0.58298  0.82889  1.0000
  H   H1116     1.0  0.85731  0.62656  0.81256  1.0000
  H   H1117     1.0  0.84924  0.63455  0.77125  1.0000
  H   H1118     1.0  0.86794  0.59778  0.74658  1.0000
  H   H1119     1.0  0.89628  0.55456  0.76232  1.0000
  C   C1401     1.0  0.80163  0.57445  0.75341  1.0000
  C   C1402     1.0  0.54656  0.97108  0.75782  1.0000
  C   C1403     1.0  0.61516  0.87808  0.81617  1.0000
  C   C1404     1.0  0.53711  0.88055  0.85654  1.0000
  H   H1120     1.0  0.93978  0.59452  0.81757  1.0000
  H   H1121     1.0  0.96532  0.61158  0.84963  1.0000
  C   C1405     1.0  0.62445  0.91836  0.84831  1.0000
  H   H1122     1.0  0.97926  0.57525  0.88205  1.0000
  C   C1406     1.0  0.95873  0.53788  0.86883  1.0000
  C   C1407     1.0  0.52216  0.81319  0.79493  1.0000
  S   S187      1.0  0.89678  0.58992  0.66434  1.0000
  C   C1408     1.0  0.53586  0.94305  0.75405  1.0000
  H   H1123     1.0  0.54876  0.95601  0.69478  1.0000
  C   C1409     1.0  0.76451  0.67386  0.65858  1.0000
  H   H1124     1.0  0.91302  0.50079  0.77060  1.0000
  C   C1410     1.0  0.52880  0.83756  0.80689  1.0000
  P   P48       1.0  0.55676  0.89143  0.81247  1.0000
  C   C1411     1.0  0.50465  0.90720  0.82996  1.0000
  C   C1412     1.0  0.67051  0.94105  0.70776  1.0000
  H   H1125     1.0  0.85635  0.52471  0.81643  1.0000
  H   H1126     1.0  0.61234  0.86261  0.80364  1.0000
  H   H1127     1.0  0.57137  0.82357  0.75334  1.0000
  C   C1413     1.0  0.78505  0.57146  0.64481  1.0000
  H   H1128     1.0  0.67300  0.74373  0.67668  1.0000
  C   C1414     1.0  0.53119  0.89372  0.83466  1.0000
  H   H1129     1.0  0.65073  0.92006  0.68092  1.0000
  C   C1415     1.0  0.95932  0.58824  0.85004  1.0000
  C   C1416     1.0  0.59702  0.91396  0.84046  1.0000
  S   S188      1.0  0.57065  0.66188  0.64396  1.0000
  C   C1417     1.0  0.58160  0.98336  0.64520  1.0000
  H   H1130     1.0  0.52625  0.93983  0.73798  1.0000
  H   H1131     1.0  0.96445  0.72384  0.81535  1.0000
  H   H1132     1.0  0.97914  0.94064  0.88192  1.0000
  C   C1418     1.0  0.61968  0.96967  0.75028  1.0000
  H   H1133     1.0  0.96254  0.60822  0.77943  1.0000
  C   C1419     1.0  0.53454  0.97161  0.87772  1.0000
  S   S189      1.0  0.96026  0.65910  0.80698  1.0000
  S   S190      1.0  0.51676  0.93520  0.65754  1.0000
  H   H1134     1.0  0.76413  0.54217  0.71376  1.0000
  H   H1135     1.0  0.72947  0.51738  0.74887  1.0000
  H   H1136     1.0  0.96419  0.66369  0.71148  1.0000
  C   C1420     1.0  0.78730  0.65795  0.66919  1.0000
  S   S191      1.0  0.58776  0.80304  0.64471  1.0000
  C   C1421     1.0  0.97449  0.70939  0.71585  1.0000
  H   H1137     1.0  0.68801  0.96739  0.73216  1.0000
  C   C1422     1.0  0.77902  0.49556  0.65563  1.0000
  C   C1423     1.0  0.78697  0.51750  0.74134  1.0000
  C   C1424     1.0  0.72557  0.58026  0.64846  1.0000
  C   C1425     1.0  0.98014  0.60291  0.70395  1.0000
  C   C1426     1.0  0.55913  0.97529  0.77842  1.0000
  C   C1427     1.0  0.49057  0.97809  0.85626  1.0000
  C   C1428     1.0  0.66050  0.67582  0.65796  1.0000
  C   C1429     1.0  0.97012  0.53874  0.78709  1.0000
  C   C1430     1.0  0.98076  0.51396  0.75374  1.0000
  H   H1138     1.0  0.82240  0.49621  0.70111  1.0000
  C   C1431     1.0  0.48449  0.90786  0.84703  1.0000
  H   H1139     1.0  0.49299  0.96226  0.89144  1.0000
  H   H1140     1.0  0.97877  0.57245  0.73395  1.0000
  H   H1141     1.0  0.96500  0.52197  0.88285  1.0000
  H   H1142     1.0  0.59688  0.98009  0.71922  1.0000
  C   C1432     1.0  0.97855  0.67839  0.71924  1.0000
  C   C1433     1.0  0.96462  0.97448  0.94743  1.0000
  H   H1143     1.0  0.48667  0.86981  0.74399  1.0000
  C   C1434     1.0  0.80317  0.49313  0.69161  1.0000
  C   C1435     1.0  0.50491  0.96981  0.87649  1.0000
  H   H1144     1.0  0.95046  0.96964  0.93392  1.0000
  H   H1145     1.0  0.82337  0.50439  0.65954  1.0000
  H   H1146     1.0  0.97700  0.55275  0.79976  1.0000
  H   H1147     1.0  0.95695  0.71846  0.70551  1.0000
  H   H1148     1.0  0.58175  0.95941  0.65029  1.0000
  C   C1436     1.0  0.55038  0.98309  0.85904  1.0000
  C   C1437     1.0  0.97989  0.73949  0.80763  1.0000
  C   C1438     1.0  0.69949  0.72267  0.65321  1.0000
  C   C1439     1.0  0.75354  0.48799  0.66660  1.0000
  H   H1149     1.0  0.94645  0.48879  0.74103  1.0000
  H   H1150     1.0  0.93599  0.48860  0.68632  1.0000
  H   H1151     1.0  0.97135  0.93167  0.81422  1.0000
  H   H1152     1.0  0.73419  0.48708  0.65690  1.0000
  S   S192      1.0  0.82228  0.56737  0.64119  1.0000
  C   C1440     1.0  0.69533  0.48675  0.75632  1.0000
