data_image0
_chemical_formula_structural       CH2C2SCHCSHCHCHC4H2CHCFeCSCHCHC2HC2HCH7CHC4HC2H6C2H2C2SHCHCHC2HC5H3C2HSC3HCHC3H2CFeCFePCPC5HC2H2CHC2HC2PH3SHCH2CHCHCH2SHC2HC5HFeHFeSCSC4HPCFeS2FeS2FeSFeS3CFeCFeS2CHFeSHSFeS2FeS2FeSFeS3FeS2H2CHC3SCHCHC2H5C7H4CH4C6H4C6H4C6H4C2H2C2H5CH2CH4C6H4CHC2H2CH3C7HCHSCHCHCPHC4H6C2HSC3HCH2C2H2CHC3P2CH3C3HC3H2C2HC9H6C12PCSHCHC11H6SCH3CH5C4HC8H7FeH7CH3C7PC2HC3HC2H2SHCH2CHC4H3C2HC2H6C2HCHCHC2H2C5HFeC6HC6PC15H18CPC2H3CHCHCHSCFeCHCSC8HCH2C2H3CH2SC2H2C2H2C2HCPHC2H2C3HC4HCHC2H3C4HCHCPCHC3H2CHCHCHCH3CH2FeHSC3H2CH2C5H2CH2SC3H3C2SHSC2HC2HCHC3H2C2H2CHFeS2FeS2FeSFeS3H2SC5H3CHFeS2FeSHFeSFeS3C2H2CHSH2CHCHC8H5CH2C4HCHCH3CHC2HCH3CHC2HCSC2H3C6H4C3H4C6H4C2HC5HC4H2C7PCHC16H2CH3CHC2H3C2H6CH3CH3CHC2H3CH2C3HC8HPHCHCH2C3H3C2H2CH3C3HCHC3HC6HC2HC2HCH2C2H4C4H2CH2C2HC8PC13H11CH2SCPCHCH2CHC3HC2H3C3H2CHC3HCH5C5H3CHC3H2C4HPC2H2CHCH4CHSH2CH2CPH2C2HC2FeS2FeS2FeSFePS2CHSC4SH2CHC6H4CH2C2H4C2HC4H5C2H2C2H3FeC2H2SC2HC3HC6HCH5CHC7PHCHCH2C2HC2H3C2HC3H4C4HCH3CHCH5C7FeH2CHCHC2PC2H2C12HCH2CH4CHPHCHCHCHC2SH4CH3C3HCH2CHC2HSCHC2HCPC2HCFeHC3HSCFeHC2SH3CHCSH4C2H2CHC2SHC4SC4SFeHC2FeS2FeSHCSC2SHFeSHFeSFeS3C6H2FeH4C3HCH3C6H4FeC2H2CHCHPCHPH4CH2C6H2CPCHSC2HCHC7HC2SC3H7C2H3CHC3PC2HC3HC2HCHCH2C6HC4H3CSHC3H3CH2CH2SC4H7CH4CHC3H3FeC5HC2H2CH2C3HCH2CHCHSCH3FeCSFeS2FeHSHCFeS2FeSFe2S3CSCHC2HFeHSHC2H2PH2C3H4C6HC5H6C3H2C4HCH2C2H2C2H2C4H2C2H2CH3CHCHSH4CH4C2SH4SH2C2HC2H2C4SCSHC3H2SC2HC5HC2H2C2HC9PH2SCSH3CHC2HCFeC2HCHCH4C3H2C5HCHCHC2H3CHCH2CH2C2H2CH3CH4CHCHC3H3C5PHC2H4C2FeS2FeSFeSFeS3C2SFeS2FeS2FeSFeS3FeSHSHFeSFeSCH3CH2SHFeHFeSHFeS2FeSCSHC4HCHC8H4C2H2C7SC2HC4HC2HC3HC6H3C6H4C6H6C2H3C6H4C6H4C2H4CSH2C2HCHCSCH2CH2CH3FeH2CH2CSHPH2C6PC5HC7SH11CHC3HC2HC2HFeH2SHC2H2C2HC2HC3H3C2HCH2C3H2CHC2HCH3C6HC3HCH2CPH3C2H2FeC3H2C7PC11HC6H13C2H8CHC2PHC4HC6PC9H11CH2CFeHC3HC2H2CPH3CH2CHC3HC2HC2FeCPHCH4C3H2C4H2CHC2H2C2HC3HSCHCH2CHCHC3H6C3HC2PHC5H2C2H3CPSHSHSHC2HSC2H2C4SC2H2CH4C2HCHC4HCHC2SH9C8HC2H2C10SH2C4SCH3CHCH2C5HC2SHCH2C4H3CHCH3CH2C2HC2H2C2H2C4HPHC3HC2FeHS2HC4HFeS2FeS2FeSFeS3C3SC6H4C2H2C3H2C7H5C2HCH2CPSC3HFeCH3CHC4H2C2PHCHCHC2FeH3CH2CH4C2HC2HC2H3CH5C2HCH2CH7C3H4C6PC2HC2H2C2H5C3FeHCHCFeC5H2CH3CHC7PC3HC12SCH6C2HCH7SH3C3HC3HSCH2CHC4H2CH2CH2CHCSC4SCH4C4HC3H2C3HCSH2C4H2CPCHCH2CHCHC3H4C3SC3FeS2FeSHFeSFeS3CHCFeSCFeSH2CHFeS2FeSHFeSFeCS2HCS2C5H2C3H2SFeH3FeC2HSC2H3CS2CHSC7H4C6H2FeHC6H4C4HCHCHFeHC2H2C2SCH4PH3CSCHC6FeCH3CH4C2H5CH2CH3CH2C3HPHCHCHC2HC4HPC4FeSC3H5SH2SC2H5C7SPC3SC15SH2CHC2H4C2H4CSH2CH4C7HCHC4HCHCH2CH5CH3C2HCH2S2C5H2CHC2H2C2HCHC2H3SHCH2C4HC2HCH3FeCHC2H2C2SC3FeC2HFe2CHCHCHC3SHCSH2FeHCHC2HC3HCH2CH2CHC2HC3HCH3CH3PCFeS2FeS2FeSFeCS2C2S2CSC3H3CHCH3CHCFeSCHC6H4C6H4C2HCHC3H2C2H2CHC3PC16H2CH7CH3C3HC2H2CHC5HCH2SHCHCH2PC4HCH4C3H8CH4FeC2HCH2CH3PC4HCHSHC3H5FeCH2C9PC18H6CH12C4H2CFeC3SHC2H3CH3C6H2CHCSH2C2SH2C3H2CH2FeSCFeSHFeS2FeS2FeS2FeSFeS3CFeHSCHS2FeS2FeS2FeSFeS3HCFeS2FeS2FeSFeCS2HC5H4C8H4C3HCH3SHC6H4C6H4CHCSHC9H4C3HSC5HC5SHCH4C4H6C2H2CSC2HC3HCHCHCHCHCH2C3PH6C2HC6PC18H20C6PC9H8C3HSHCHCHCH2C2HCHCH3FeHPC5SC8H3C2H2CH7C3HCH2FeCH2C3HC3HC3H3FeCH3C3HFeHCH5C5H2C2HCH3CHC2H2SH7CH2C2H2FeC3HPCH4C2H3C2HC9SPC4HCHC3HCH4CPHC2H5C9HCH2SH2CHFeCHCH2CHC3HS2C2SCSCH3CHFeSFeHSFeS2CH3C3H2FeCSHCH3SHC3SC6HSH2C2SCHC3HCHC14H3SC5FeCH3CFeH2PH4C3SPHC3HCH2C3HCHC3HC3HC4FeC4H2CHCPC2H2C2H2C2HCSHCH4C2HCSHCHCHC3SC2HC3H2FeH2C4HCHC3H2SCHC4SHC6H4C2HCHCH3SFeH2C4H2PS2H3CH4CFeHC2H2CHCSHCH8CH2C2FeCHCHCSCHCH2FeSH2CH2SH2SC4SH4CSCHS2FeC3FeSFeHC4HC6H6C3HPH3C2H2C4H2CHCHC2HFeHC2HC2H2CHC2HC2HC3PHCH2CH2CH3CHCHC2HC5H2CHC2HCH2CHCH4C3SH2CHC3HCH3CHSHC6PHC10H5C3HC2H8CH5FeC7PC7HC3SH2C2H2FeCSC2H2CPHC2HC2H2C2H2CHCS2C2FeS2FeS2FeSFeS3HSFeS2FeS2FeSFeS3FeS2FeS2FeSFeS3FeS2HCFeSCHC2H2C2SC2H3C6H4C6H4C6H3C7H4C6H4C6H4C6H4C6H4C3H3CSHCH3C7PC3H2CHC2SC8H5C2H5CH6CH3SC4HC2H4C5H2CHCH3C3PC9HC7HCH16CSH2C2HCHCHC5HPC3HC8H2CFeCH2SHCH10C7H10C11HC2H5C6PC8H2C8HCH2CH5C2H6CHC6PC7SH3C2H6CH5C2HCHPC5PC5HCPC5HC6SC4SC2H3CHSCH2CH4PC2H2C2SC7HCH2FeCH4C2H3CFePC2H7PC2HC3HC2H2C2HC6FeHC2H2CH2CHC3H2C4HCHCHC3HCH2C3HC2HCHCH2C5FeCH3C2HC4HCHC3HC2H5CHCH2C2H2C5H4C4HCH3CSHFeC3HCHCH2CH6C2H2CHC6H2CPHCSC3HS2FeHC2PH2C2H3CHCHCHFeS2HC4S2CSHCSH3CHCH4C2H2CH2CHFeC3HC3H3CHCFeH2CH2C2H4C2HCHFeSC4HC2H3CSCHCH2C2HFeHC3HFeCPC4HC5HCFe2C2HPH2CH3CHCHC5HSH2PCH2PCSCHC5SCHC3SCHC3FeH3CH3C6HSCH2C2FeSFeS2FeSFeS3FeS2FeS2FeSFeS4H2C2SHCHPC4H2C7H4C6H3C7H4C6H4CHC4SH3CH3CH2C5HC2H3C3H2C2H4CH3C4H2C8H6CHCH2C4HCH2CH2CHCHPH4C3H2CHFeH3CH2C6PC18H6C2H5PH3FeCHSH2C3HCHCH3C4HCHC2H2CPC5HC2HC4PH3CHCHC2HPC4HCHC4HCH2C3H3CH4C2HCHC6HC7HC8PC11H15CHCHCHC2HCH2C4FeHCH6CHC2HCHC3HC2H5CHC3H2C3HCH2SH3C2HC2H2C2HSHC5H4C4HCH2SHC2H2CSCH2C3HC3H2C4HC4HCHSCFeS2FeS2FeSFeS4HFeSFeC2H2C2SC3HCH2C6H4C3H2C6H4C6H3C3H2FeC2FeCH2CHC4HCH2PH2CHC6H3C6PC4HC13H20C2FeHCHC6HC6H2CSC3HCHSHC4HCH2C2HC2HC3SH2CH3C8H6SC4HC2H2C2H2CHPHC4H2CHCHC2H2C3HCSH3CH4CH3CHC3HC3HC3HPC2H2PCH3CHPC2HCHCHCHCHCH2C4H2CH2C2SHSH7CH2SC2HCH2SCFeC3HCH2CFeC5SHC2HC2SCPH2C4HCHCH6C2HC2H4FeS2FeS2FeSFeCS2HCFeHSFeHSHFe2HSHFeS2FeS2FeSFeS2H2CFeHSC2HSH2CSH3C6H4CH2CSC11H4C3HCHC4HC2HCH2C6H4C4HCH3C3H2CHC6HPC11H9C2SHCHC2HC3PC15H3CHCH9C2HC2HC4H3C2H3C3H2CHFeCHC2SCHCH3CHFeHCHCHC7PC3HC4SC2HCH8CH2C5SHSC2HCS2H4C4HPCHC3H4C5HCH2CHC2HC3SCHCH3C2HC2H3C3H2C2H2CH2C3PCHC2FeSCHCSH2CH2CH7CSC3H4CH2CSCH2CH2CPC6HCH2CHCHC3H2C2HC2H2C2H3CH2C2HC3HC3H3C2HCH3SHC2H2CS3C3SC2FeS2FeS2FeSFeCS2FeHSFeS2FeS2Fe2S6HCHSH3C2S2CH2C4H3C2HSHC6H4C6H4C6H4CFeC7H4C6H5CHCHC2H2C6FeH2C6H2C7PC18H20C6PC4SC4HC8H6PCH2C3H10C2HCSC2HC2SHCH3CH2CHSHCHCHC3HCHC3HCH2C3HCFeCHC3SHCHCH3C3HC6PC11HC6H3CH8CHC3H2C2HC5H6C2HC2HSH4CH2FeCHCH2SHSHCSCH3C4HFePCHCSCHSH2C4H3C2FeC2H5C5HC2H2C2H2C4HCH2CHCPHC4HCH3PHCHPC2PCHCFeC2HC4FeH7CHC2Fe2CHC2H2C3SCFeSHCH2C2HC2HC5H2C3H2CH3C4SH2C2HCHCH2C5FeHCH2CPC2H3CHCH4C3H3C2H2C4HCH2SCHCH5SCHCHC3HC2SC2HCPCHFeS2FeS2FeCFeHS3C6H4CFeCH2C3HCH2PC6H2CHCH3C6H5C6PC2HFeCHC8HPC2H5CSC2H7C2H2CHC3H2CHCH2C2H3C3H2CH3C6HCH2CHC3H3C3HCHC5PCHCHC2H2CH2CHCPHC2SHSCH3S2HC2HSCFeHC2HC3PC2HCHCHFeSCH3CHSHC2H2CH2C4FeCSH4CSH3C3HC3HCFe2SCSCHC2HC2HCHC2HC3HC2H2CH2CHCH3C3H2C5HCHC3H2C2H2C2H2CH2C2HC3SH4FeS2C4HFeSCFeSHFeSFeS3C3HCHCH2C6H2CH3PC5H4CHC5H2C2H2CH2CHCHC2SC3HSC2HCHC2H2C4HC6H2C2H2C2HSHC3HC2H2CH3C2H2FeHCPHFe2C2FeSCHC2HCH2CFeHCH2CPH2SHCHC2H4CSCH3C2HCHC3HCHC2HC7H4C2HCH5C3HC3HPHC7PHC2PCHCHC3SC6H7C4HC3H2C2H2C3SCHC3PCH2CH2CHSCHC4HC3H4C3HC4HC3SHC2HC4HFeH6C4H2FePSHC4SCSC2FeC2HCH5C4HC6H2SCSCH2CHC2H2C3H2C2HCH2C2H4CH2CSC3H4C2HC2FeHC3PC5H2SCHCHSCH3CH4CHCH3SH3C2H2CHCH2C2H3C2H3C5H3C3HSH3C3HC3HCS2CH3CFeSCSCFeS2FeS2FeSFeS3C2H3C3H2CFeHSFeS2CFePS2FeS2FeS2FeSCHS2HSHCHFeSHSHCHSHC2HCH2C4H2C6H3SH2CH3CHC2HC6H4C6H4C4H4CHC2HCHCH3CH3C6H4CH2C5H4C3HCHC2HC4HC4PC18H17CH2C7PC19H19C4PC18H12C3PCH6CHCH2CH3C5SC2H2CHC2FeCH4CHC2HC3PHC6H3FeH2CFeCH2PHCH2CHC6HCHCH3CH2CHC4HC3HC4HCHFeHSH2CHFeHC2SC2HC2H2CH2SC3H3CHCHCH2CHCH2C4H2SH2SC2HC2H4FeH4CH2C3H2SHC2HSFeC7HCH2CHCSC2HFeC6FeSH2C3H2PHC2
_chemical_formula_sum              "C4320 H3456 S576 Fe288 P144"
_cell_length_a       77.2533
_cell_length_b       78.0508
_cell_length_c       77.6838
_cell_angle_alpha    74.1537
_cell_angle_beta     73.9129
_cell_angle_gamma    73.9027

_space_group_name_H-M_alt    "P 1"
_space_group_IT_number       1

loop_
  _space_group_symop_operation_xyz
  'x, y, z'

loop_
  _atom_site_type_symbol
  _atom_site_label
  _atom_site_symmetry_multiplicity
  _atom_site_fract_x
  _atom_site_fract_y
  _atom_site_fract_z
  _atom_site_occupancy
  C   C1        1.0  0.44730  0.15858  0.22709  1.0000
  H   H1        1.0  0.48951  0.04377  0.19308  1.0000
  H   H2        1.0  0.48636  0.08516  0.28596  1.0000
  C   C2        1.0  0.44418  0.02875  0.23452  1.0000
  C   C3        1.0  0.43902  0.11375  0.26208  1.0000
  S   S1        1.0  0.41484  0.13792  0.28255  1.0000
  C   C4        1.0  0.42343  0.12815  0.26312  1.0000
  H   H3        1.0  0.42681  0.20830  0.14170  1.0000
  C   C5        1.0  0.43935  0.21336  0.13801  1.0000
  S   S2        1.0  0.49183  0.08202  0.18106  1.0000
  H   H4        1.0  0.46080  0.21157  0.03452  1.0000
  C   C6        1.0  0.43676  0.02267  0.22328  1.0000
  H   H5        1.0  0.42352  0.99542  0.28927  1.0000
  C   C7        1.0  0.42639  0.05465  0.28832  1.0000
  H   H6        1.0  0.43216  0.06339  0.29281  1.0000
  C   C8        1.0  0.46403  0.13222  0.15949  1.0000
  C   C9        1.0  0.46600  0.13830  0.00106  1.0000
  C   C10       1.0  0.46930  0.13413  0.14049  1.0000
  C   C11       1.0  0.48959  0.00057  0.28211  1.0000
  H   H7        1.0  0.47586  0.19992  0.00597  1.0000
  H   H8        1.0  0.46857  0.19975  0.21621  1.0000
  C   C12       1.0  0.48843  0.15774  0.00706  1.0000
  H   H9        1.0  0.39442  0.16500  0.20506  1.0000
  C   C13       1.0  0.47699  0.16300  0.30163  1.0000
  Fe  Fe1       1.0  0.47834  0.09861  0.20264  1.0000
  C   C14       1.0  0.45341  0.20508  0.14780  1.0000
  S   S3        1.0  0.41740  0.09008  0.31498  1.0000
  C   C15       1.0  0.44632  0.05672  0.21136  1.0000
  H   H10       1.0  0.47349  0.15291  0.11443  1.0000
  C   C16       1.0  0.40007  0.04452  0.28679  1.0000
  H   H11       1.0  0.48683  0.13279  0.23981  1.0000
  C   C17       1.0  0.47216  0.22578  0.12695  1.0000
  C   C18       1.0  0.45853  0.14761  0.16721  1.0000
  H   H12       1.0  0.42449  0.21753  0.17618  1.0000
  C   C19       1.0  0.45188  0.16787  0.25250  1.0000
  C   C20       1.0  0.40100  0.17647  0.19866  1.0000
  H   H13       1.0  0.49169  0.99467  0.29584  1.0000
  C   C21       1.0  0.49258  0.99794  0.20053  1.0000
  H   H14       1.0  0.44716  0.17684  0.26208  1.0000
  H   H15       1.0  0.47214  0.02169  0.19234  1.0000
  H   H16       1.0  0.44354  0.15117  0.28933  1.0000
  H   H17       1.0  0.44884  0.20444  0.19452  1.0000
  H   H18       1.0  0.48168  0.02255  0.23304  1.0000
  H   H19       1.0  0.47031  0.12015  0.02670  1.0000
  H   H20       1.0  0.47235  0.11680  0.27309  1.0000
  C   C22       1.0  0.42197  0.12837  0.23223  1.0000
  H   H21       1.0  0.40596  0.02387  0.27123  1.0000
  C   C23       1.0  0.43916  0.05047  0.20015  1.0000
  C   C24       1.0  0.41486  0.13533  0.24822  1.0000
  C   C25       1.0  0.40028  0.20863  0.19333  1.0000
  C   C26       1.0  0.45765  0.16518  0.15593  1.0000
  H   H22       1.0  0.39306  0.22216  0.19553  1.0000
  C   C27       1.0  0.42761  0.18842  0.17939  1.0000
  C   C28       1.0  0.46997  0.21120  0.14198  1.0000
  H   H23       1.0  0.48066  0.01930  0.31615  1.0000
  H   H24       1.0  0.43733  0.05884  0.18686  1.0000
  H   H25       1.0  0.46331  0.18013  0.12762  1.0000
  H   H26       1.0  0.37800  0.19593  0.21021  1.0000
  H   H27       1.0  0.48146  0.20437  0.14857  1.0000
  H   H28       1.0  0.41527  0.13399  0.22077  1.0000
  C   C29       1.0  0.46837  0.15827  0.29041  1.0000
  C   C30       1.0  0.48452  0.14206  0.01980  1.0000
  H   H29       1.0  0.45543  0.14566  0.18201  1.0000
  H   H30       1.0  0.43905  0.15986  0.21741  1.0000
  C   C31       1.0  0.44165  0.22788  0.12294  1.0000
  C   C32       1.0  0.43816  0.04208  0.27815  1.0000
  S   S4        1.0  0.44747  0.10761  0.20982  1.0000
  H   H31       1.0  0.46462  0.11874  0.16831  1.0000
  C   C33       1.0  0.49387  0.16686  0.19271  1.0000
  H   H32       1.0  0.45889  0.09647  0.24482  1.0000
  C   C34       1.0  0.39177  0.19389  0.20157  1.0000
  H   H33       1.0  0.48153  0.18980  0.26762  1.0000
  C   C35       1.0  0.45006  0.15621  0.29704  1.0000
  C   C36       1.0  0.41181  0.03217  0.27623  1.0000
  H   H34       1.0  0.45283  0.04159  0.27486  1.0000
  C   C37       1.0  0.41877  0.17374  0.18755  1.0000
  C   C38       1.0  0.46903  0.01151  0.26095  1.0000
  C   C39       1.0  0.46885  0.15147  0.12915  1.0000
  C   C40       1.0  0.47410  0.14312  0.24005  1.0000
  C   C41       1.0  0.48264  0.16934  0.18050  1.0000
  H   H35       1.0  0.49440  0.22546  0.17152  1.0000
  H   H36       1.0  0.44988  0.06999  0.20685  1.0000
  H   H37       1.0  0.40272  0.14631  0.24906  1.0000
  C   C42       1.0  0.47261  0.19143  0.20605  1.0000
  C   C43       1.0  0.48366  0.01647  0.24678  1.0000
  H   H38       1.0  0.46795  0.13631  0.21768  1.0000
  S   S5        1.0  0.49426  0.12038  0.18887  1.0000
  C   C44       1.0  0.44141  0.16988  0.23971  1.0000
  C   C45       1.0  0.48518  0.11400  0.27743  1.0000
  C   C46       1.0  0.46179  0.22094  0.02127  1.0000
  H   H39       1.0  0.45398  0.05121  0.23714  1.0000
  C   C47       1.0  0.48120  0.16375  0.99128  1.0000
  H   H40       1.0  0.43267  0.00971  0.22770  1.0000
  C   C48       1.0  0.43811  0.11468  0.23077  1.0000
  C   C49       1.0  0.46988  0.15407  0.98814  1.0000
  C   C50       1.0  0.44871  0.04598  0.22851  1.0000
  H   H41       1.0  0.44539  0.10787  0.27373  1.0000
  H   H42       1.0  0.42852  0.17993  0.23983  1.0000
  C   C51       1.0  0.43433  0.03348  0.20613  1.0000
  Fe  Fe2       1.0  0.48170  0.23318  0.06506  1.0000
  C   C52       1.0  0.47219  0.00318  0.27853  1.0000
  Fe  Fe3       1.0  0.42186  0.11846  0.30809  1.0000
  P   P1        1.0  0.45113  0.18510  0.16596  1.0000
  C   C53       1.0  0.47039  0.21441  0.00523  1.0000
  P   P2        1.0  0.44608  0.01584  0.25732  1.0000
  C   C54       1.0  0.46305  0.16694  0.13679  1.0000
  C   C55       1.0  0.44660  0.10726  0.24575  1.0000
  C   C56       1.0  0.46613  0.18266  0.18112  1.0000
  C   C57       1.0  0.47239  0.22665  0.98827  1.0000
  C   C58       1.0  0.48549  0.01678  0.19585  1.0000
  H   H43       1.0  0.42880  0.02862  0.19743  1.0000
  C   C59       1.0  0.43098  0.03063  0.27214  1.0000
  C   C60       1.0  0.41810  0.20593  0.18231  1.0000
  H   H44       1.0  0.49151  0.16334  0.29744  1.0000
  H   H45       1.0  0.42536  0.16010  0.18557  1.0000
  C   C61       1.0  0.46806  0.15415  0.25306  1.0000
  H   H46       1.0  0.49435  0.05311  0.28774  1.0000
  C   C62       1.0  0.46363  0.14525  0.22725  1.0000
  C   C63       1.0  0.40737  0.05576  0.29284  1.0000
  H   H47       1.0  0.47428  0.12211  0.13458  1.0000
  C   C64       1.0  0.46137  0.19395  0.19379  1.0000
  C   C65       1.0  0.47331  0.13234  0.01681  1.0000
  P   P3        1.0  0.48181  0.15164  0.26932  1.0000
  H   H48       1.0  0.38532  0.04547  0.29021  1.0000
  H   H49       1.0  0.48677  0.16062  0.17076  1.0000
  H   H50       1.0  0.49025  0.13745  0.03196  1.0000
  S   S6        1.0  0.49095  0.20297  0.07505  1.0000
  H   H51       1.0  0.45997  0.98602  0.23795  1.0000
  C   C66       1.0  0.49544  0.02932  0.19604  1.0000
  H   H52       1.0  0.45734  0.13055  0.99910  1.0000
  H   H53       1.0  0.39833  0.06535  0.30102  1.0000
  C   C67       1.0  0.49337  0.12829  0.27642  1.0000
  H   H54       1.0  0.48507  0.23028  0.12229  1.0000
  C   C68       1.0  0.49306  0.09601  0.28483  1.0000
  H   H55       1.0  0.49596  0.98777  0.16193  1.0000
  C   C69       1.0  0.48872  0.17774  0.20564  1.0000
  H   H56       1.0  0.43470  0.22096  0.98780  1.0000
  H   H57       1.0  0.43097  0.23408  0.11514  1.0000
  S   S7        1.0  0.45004  0.11034  0.31431  1.0000
  H   H58       1.0  0.46100  0.99905  0.28952  1.0000
  C   C70       1.0  0.49422  0.18412  0.25888  1.0000
  C   C71       1.0  0.44113  0.99348  0.26245  1.0000
  H   H59       1.0  0.44492  0.18742  0.99306  1.0000
  C   C72       1.0  0.45803  0.23410  0.11744  1.0000
  C   C73       1.0  0.44018  0.15990  0.31413  1.0000
  C   C74       1.0  0.42994  0.98695  0.27929  1.0000
  C   C75       1.0  0.10461  0.99996  0.62173  1.0000
  C   C76       1.0  0.47333  0.10402  0.62756  1.0000
  H   H60       1.0  0.27692  0.02585  0.56804  1.0000
  Fe  Fe4       1.0  0.43489  0.11364  0.34272  1.0000
  H   H61       1.0  0.01588  0.19534  0.60786  1.0000
  Fe  Fe5       1.0  0.40511  0.09476  0.34344  1.0000
  S   S8        1.0  0.38183  0.08178  0.36125  1.0000
  C   C77       1.0  0.12031  0.13392  0.44656  1.0000
  S   S9        1.0  0.43182  0.08474  0.35265  1.0000
  C   C78       1.0  0.41244  0.02377  0.57274  1.0000
  C   C79       1.0  0.40241  0.02518  0.59047  1.0000
  C   C80       1.0  0.09306  0.20116  0.49206  1.0000
  C   C81       1.0  0.27942  0.03068  0.63556  1.0000
  H   H62       1.0  0.48248  0.00567  0.63370  1.0000
  P   P4        1.0  0.48145  0.04149  0.63897  1.0000
  C   C82       1.0  0.47788  0.06601  0.63453  1.0000
  Fe  Fe6       1.0  0.17894  0.07044  0.57408  1.0000
  S   S10       1.0  0.16676  0.09905  0.56141  1.0000
  S   S11       1.0  0.20429  0.06144  0.58590  1.0000
  Fe  Fe7       1.0  0.15026  0.05486  0.56757  1.0000
  S   S12       1.0  0.13527  0.08224  0.55458  1.0000
  S   S13       1.0  0.13884  0.02996  0.57208  1.0000
  Fe  Fe8       1.0  0.16351  0.08697  0.53977  1.0000
  S   S14       1.0  0.16588  0.10144  0.51008  1.0000
  Fe  Fe9       1.0  0.13960  0.09244  0.57700  1.0000
  S   S15       1.0  0.11832  0.11326  0.59144  1.0000
  S   S16       1.0  0.17822  0.05876  0.55093  1.0000
  S   S17       1.0  0.15197  0.06453  0.59158  1.0000
  C   C83       1.0  0.10964  0.13853  0.49271  1.0000
  Fe  Fe10      1.0  0.44437  0.08221  0.32365  1.0000
  C   C84       1.0  0.29864  0.01838  0.50645  1.0000
  Fe  Fe11      1.0  0.26108  0.10818  0.61182  1.0000
  S   S18       1.0  0.27786  0.08357  0.60074  1.0000
  S   S19       1.0  0.23127  0.11920  0.60950  1.0000
  C   C85       1.0  0.32715  0.03871  0.57263  1.0000
  H   H63       1.0  0.23215  0.06599  0.44880  1.0000
  Fe  Fe12      1.0  0.30126  0.09782  0.59103  1.0000
  S   S20       1.0  0.32194  0.09416  0.56453  1.0000
  H   H64       1.0  0.35441  0.04789  0.60326  1.0000
  S   S21       1.0  0.28373  0.12373  0.59919  1.0000
  Fe  Fe13      1.0  0.28986  0.11001  0.47443  1.0000
  S   S22       1.0  0.27849  0.08510  0.47901  1.0000
  S   S23       1.0  0.28605  0.12656  0.49527  1.0000
  Fe  Fe14      1.0  0.30273  0.11302  0.43330  1.0000
  S   S24       1.0  0.29241  0.08865  0.43417  1.0000
  S   S25       1.0  0.31644  0.13046  0.40783  1.0000
  Fe  Fe15      1.0  0.26729  0.09987  0.45394  1.0000
  S   S26       1.0  0.23946  0.10180  0.44872  1.0000
  Fe  Fe16      1.0  0.30457  0.07606  0.45897  1.0000
  S   S27       1.0  0.32357  0.04846  0.45957  1.0000
  S   S28       1.0  0.27662  0.12549  0.45082  1.0000
  S   S29       1.0  0.31690  0.09964  0.45666  1.0000
  Fe  Fe17      1.0  0.05848  0.19953  0.54267  1.0000
  S   S30       1.0  0.03868  0.20524  0.56876  1.0000
  S   S31       1.0  0.07489  0.17270  0.53561  1.0000
  H   H65       1.0  0.17743  0.14617  0.48569  1.0000
  H   H66       1.0  0.25076  0.12879  0.57411  1.0000
  C   C86       1.0  0.14228  0.99638  0.61878  1.0000
  H   H67       1.0  0.14287  0.16008  0.43667  1.0000
  C   C87       1.0  0.09520  0.20970  0.45930  1.0000
  C   C88       1.0  0.47930  0.11882  0.34309  1.0000
  C   C89       1.0  0.23975  0.05570  0.45817  1.0000
  S   S32       1.0  0.44249  0.12754  0.36046  1.0000
  C   C90       1.0  0.46711  0.16661  0.31875  1.0000
  H   H68       1.0  0.08348  0.22845  0.47753  1.0000
  C   C91       1.0  0.15077  0.15010  0.47977  1.0000
  H   H69       1.0  0.17651  0.15805  0.42866  1.0000
  C   C92       1.0  0.31711  0.03037  0.47710  1.0000
  C   C93       1.0  0.30316  0.03330  0.49260  1.0000
  H   H70       1.0  0.38420  0.14355  0.44406  1.0000
  H   H71       1.0  0.15596  0.08625  0.62044  1.0000
  H   H72       1.0  0.19387  0.15069  0.45313  1.0000
  H   H73       1.0  0.29592  0.04701  0.49396  1.0000
  H   H74       1.0  0.33705  0.01037  0.46339  1.0000
  C   C94       1.0  0.16928  0.15592  0.44291  1.0000
  C   C95       1.0  0.31231  0.10325  0.54505  1.0000
  C   C96       1.0  0.32031  0.09621  0.52912  1.0000
  C   C97       1.0  0.31215  0.10288  0.51380  1.0000
  C   C98       1.0  0.29628  0.11691  0.51428  1.0000
  C   C99       1.0  0.28854  0.12404  0.53007  1.0000
  C   C100      1.0  0.29630  0.11705  0.54554  1.0000
  H   H75       1.0  0.33262  0.08540  0.52877  1.0000
  H   H76       1.0  0.31830  0.09748  0.50153  1.0000
  H   H77       1.0  0.27644  0.13499  0.53025  1.0000
  H   H78       1.0  0.29003  0.12250  0.55777  1.0000
  C   C101      1.0  0.26499  0.02527  0.61400  1.0000
  H   H79       1.0  0.12958  0.19865  0.50293  1.0000
  H   H80       1.0  0.33578  0.18852  0.37304  1.0000
  H   H81       1.0  0.25811  0.03044  0.60271  1.0000
  H   H82       1.0  0.26803  0.05150  0.61460  1.0000
  C   C102      1.0  0.08736  0.15720  0.55139  1.0000
  C   C103      1.0  0.10341  0.14497  0.54490  1.0000
  C   C104      1.0  0.11301  0.13162  0.55714  1.0000
  C   C105      1.0  0.10659  0.13037  0.57602  1.0000
  C   C106      1.0  0.09075  0.14285  0.58255  1.0000
  C   C107      1.0  0.08125  0.15641  0.57024  1.0000
  H   H83       1.0  0.10846  0.14573  0.53034  1.0000
  H   H84       1.0  0.12532  0.12223  0.55193  1.0000
  H   H85       1.0  0.08554  0.14175  0.59714  1.0000
  H   H86       1.0  0.06886  0.16580  0.57535  1.0000
  C   C108      1.0  0.18685  0.09946  0.49366  1.0000
  C   C109      1.0  0.18619  0.10629  0.47520  1.0000
  C   C110      1.0  0.20249  0.10656  0.46171  1.0000
  C   C111      1.0  0.21967  0.10017  0.46650  1.0000
  C   C112      1.0  0.22048  0.09263  0.48494  1.0000
  C   C113      1.0  0.20398  0.09209  0.49848  1.0000
  H   H87       1.0  0.17300  0.11168  0.47132  1.0000
  H   H88       1.0  0.20176  0.11211  0.44749  1.0000
  H   H89       1.0  0.23372  0.08720  0.48872  1.0000
  H   H90       1.0  0.20438  0.08612  0.51261  1.0000
  C   C114      1.0  0.20982  0.07742  0.59450  1.0000
  C   C115      1.0  0.20084  0.09586  0.59140  1.0000
  C   C116      1.0  0.20692  0.10856  0.59684  1.0000
  C   C117      1.0  0.22212  0.10290  0.60511  1.0000
  C   C118      1.0  0.23035  0.08434  0.60914  1.0000
  C   C119      1.0  0.22422  0.07165  0.60384  1.0000
  H   H91       1.0  0.18952  0.10040  0.58449  1.0000
  H   H92       1.0  0.20017  0.12282  0.59424  1.0000
  H   H93       1.0  0.24147  0.07973  0.61632  1.0000
  H   H94       1.0  0.23104  0.05737  0.60653  1.0000
  C   C120      1.0  0.15440  0.01083  0.56468  1.0000
  C   C121      1.0  0.17316  0.01078  0.55806  1.0000
  H   H95       1.0  0.33437  0.07213  0.64581  1.0000
  H   H96       1.0  0.29528  0.99552  0.46402  1.0000
  C   C122      1.0  0.16529  0.03612  0.51213  1.0000
  C   C123      1.0  0.39732  0.16342  0.40516  1.0000
  H   H97       1.0  0.17838  0.02221  0.55797  1.0000
  H   H98       1.0  0.09292  0.22008  0.44716  1.0000
  H   H99       1.0  0.25786  0.15931  0.56109  1.0000
  H   H100      1.0  0.23284  0.16557  0.51631  1.0000
  H   H101      1.0  0.47192  0.03956  0.35515  1.0000
  C   C124      1.0  0.29389  0.03760  0.41021  1.0000
  H   H102      1.0  0.08173  0.15436  0.49973  1.0000
  H   H103      1.0  0.48090  0.99491  0.60731  1.0000
  C   C125      1.0  0.35845  0.17494  0.35469  1.0000
  H   H104      1.0  0.30022  0.04885  0.40199  1.0000
  H   H105      1.0  0.40215  0.03662  0.59596  1.0000
  H   H106      1.0  0.34804  0.01320  0.53856  1.0000
  H   H107      1.0  0.36041  0.13862  0.47273  1.0000
  C   C126      1.0  0.36286  0.09596  0.37270  1.0000
  C   C127      1.0  0.34986  0.08788  0.38660  1.0000
  C   C128      1.0  0.33557  0.09843  0.39737  1.0000
  C   C129      1.0  0.33377  0.11729  0.39380  1.0000
  C   C130      1.0  0.34625  0.12558  0.37930  1.0000
  C   C131      1.0  0.36088  0.11490  0.36880  1.0000
  H   H108      1.0  0.35120  0.07332  0.38939  1.0000
  H   H109      1.0  0.32608  0.09189  0.40851  1.0000
  H   H110      1.0  0.34479  0.14020  0.37641  1.0000
  H   H111      1.0  0.37065  0.12130  0.35786  1.0000
  C   C132      1.0  0.25797  0.00316  0.54407  1.0000
  H   H112      1.0  0.34529  0.10946  0.63269  1.0000
  C   C133      1.0  0.24530  0.16448  0.53805  1.0000
  C   C134      1.0  0.01610  0.23461  0.64582  1.0000
  H   H113      1.0  0.41448  0.99794  0.43383  1.0000
  H   H114      1.0  0.41990  0.03417  0.56444  1.0000
  C   C135      1.0  0.20260  0.00884  0.59066  1.0000
  H   H115      1.0  0.36437  0.01918  0.50612  1.0000
  H   H116      1.0  0.13357  0.12692  0.44991  1.0000
  H   H117      1.0  0.33292  0.13738  0.64730  1.0000
  C   C136      1.0  0.27577  0.04032  0.56631  1.0000
  C   C137      1.0  0.36415  0.08648  0.62227  1.0000
  C   C138      1.0  0.35103  0.10306  0.62100  1.0000
  C   C139      1.0  0.34488  0.11137  0.60476  1.0000
  C   C140      1.0  0.35132  0.10295  0.58980  1.0000
  C   C141      1.0  0.36403  0.08623  0.59102  1.0000
  C   C142      1.0  0.37049  0.07802  0.60716  1.0000
  H   H118      1.0  0.41240  0.02946  0.33413  1.0000
  C   C143      1.0  0.10835  0.15707  0.60952  1.0000
  H   H119      1.0  0.23524  0.05566  0.64914  1.0000
  S   S33       1.0  0.40697  0.12410  0.33586  1.0000
  C   C144      1.0  0.35596  0.04157  0.57743  1.0000
  H   H120      1.0  0.31950  0.01783  0.40840  1.0000
  C   C145      1.0  0.42732  0.02702  0.33074  1.0000
  H   H121      1.0  0.47660  0.06081  0.60134  1.0000
  C   C146      1.0  0.40054  0.18909  0.41512  1.0000
  P   P5        1.0  0.18881  0.02445  0.64659  1.0000
  H   H122      1.0  0.38512  0.02004  0.37095  1.0000
  C   C147      1.0  0.25238  0.00356  0.52827  1.0000
  C   C148      1.0  0.32644  0.01260  0.47547  1.0000
  C   C149      1.0  0.41795  0.18859  0.40334  1.0000
  C   C150      1.0  0.47790  0.04636  0.60280  1.0000
  H   H123      1.0  0.34603  0.10915  0.57743  1.0000
  H   H124      1.0  0.36853  0.07957  0.57951  1.0000
  H   H125      1.0  0.38006  0.06497  0.60782  1.0000
  H   H126      1.0  0.26111  0.99484  0.51910  1.0000
  H   H127      1.0  0.13476  0.15677  0.59119  1.0000
  H   H128      1.0  0.25187  0.02884  0.43335  1.0000
  C   C151      1.0  0.00253  0.19527  0.60604  1.0000
  C   C152      1.0  0.27483  0.04076  0.41709  1.0000
  H   H129      1.0  0.42779  0.05390  0.33223  1.0000
  S   S34       1.0  0.42669  0.99411  0.32564  1.0000
  C   C153      1.0  0.24037  0.03085  0.48502  1.0000
  C   C154      1.0  0.17339  0.01796  0.51105  1.0000
  C   C155      1.0  0.45963  0.00751  0.37052  1.0000
  H   H130      1.0  0.09228  0.13224  0.42036  1.0000
  C   C156      1.0  0.17904  0.15204  0.45669  1.0000
  H   H131      1.0  0.42968  0.07819  0.39816  1.0000
  H   H132      1.0  0.26642  0.05443  0.41423  1.0000
  C   C157      1.0  0.48940  0.14110  0.35968  1.0000
  C   C158      1.0  0.46067  0.09542  0.64140  1.0000
  H   H133      1.0  0.40269  0.02060  0.39271  1.0000
  H   H134      1.0  0.10373  0.17299  0.50296  1.0000
  C   C159      1.0  0.32215  0.99774  0.48940  1.0000
  H   H135      1.0  0.36566  0.99533  0.57481  1.0000
  C   C160      1.0  0.10327  0.19157  0.45792  1.0000
  C   C161      1.0  0.43603  0.04100  0.32931  1.0000
  C   C162      1.0  0.15026  0.15681  0.44753  1.0000
  P   P6        1.0  0.11642  0.15470  0.47195  1.0000
  P   P7        1.0  0.38383  0.14781  0.40542  1.0000
  C   C163      1.0  0.16976  0.14941  0.47507  1.0000
  H   H136      1.0  0.15681  0.99537  0.61731  1.0000
  H   H137      1.0  0.35245  0.18117  0.34279  1.0000
  H   H138      1.0  0.44173  0.04829  0.64286  1.0000
  C   C164      1.0  0.40268  0.05014  0.63164  1.0000
  C   C165      1.0  0.19440  0.16417  0.58627  1.0000
  C   C166      1.0  0.47799  0.02162  0.58948  1.0000
  H   H139      1.0  0.47492  0.04978  0.57521  1.0000
  C   C167      1.0  0.11986  0.23200  0.56866  1.0000
  C   C168      1.0  0.46580  0.02139  0.32043  1.0000
  C   C169      1.0  0.32892  0.00631  0.62951  1.0000
  H   H140      1.0  0.14959  0.17437  0.60866  1.0000
  H   H141      1.0  0.44122  0.16729  0.33851  1.0000
  C   C170      1.0  0.11918  0.18445  0.59176  1.0000
  C   C171      1.0  0.14100  0.15327  0.46601  1.0000
  H   H142      1.0  0.31587  0.00292  0.54220  1.0000
  C   C172      1.0  0.23573  0.01510  0.52445  1.0000
  C   C173      1.0  0.25930  0.02977  0.48273  1.0000
  C   C174      1.0  0.26827  0.04174  0.46838  1.0000
  C   C175      1.0  0.25840  0.05494  0.45639  1.0000
  C   C176      1.0  0.22485  0.02616  0.53680  1.0000
  C   C177      1.0  0.23058  0.02582  0.55248  1.0000
  C   C178      1.0  0.24712  0.01430  0.55611  1.0000
  C   C179      1.0  0.33019  0.00686  0.64690  1.0000
  C   C180      1.0  0.47333  0.00178  0.38080  1.0000
  H   H143      1.0  0.26718  0.01976  0.49199  1.0000
  H   H144      1.0  0.28284  0.04099  0.46656  1.0000
  H   H145      1.0  0.26521  0.06458  0.44563  1.0000
  H   H146      1.0  0.21188  0.03500  0.53455  1.0000
  H   H147      1.0  0.22204  0.03434  0.56198  1.0000
  H   H148      1.0  0.25147  0.01385  0.56837  1.0000
  C   C181      1.0  0.44221  0.00350  0.37811  1.0000
  C   C182      1.0  0.27568  0.00022  0.63741  1.0000
  C   C183      1.0  0.42071  0.09117  0.40007  1.0000
  C   C184      1.0  0.39266  0.11385  0.39640  1.0000
  C   C185      1.0  0.41311  0.03244  0.63105  1.0000
  C   C186      1.0  0.21529  0.04168  0.64792  1.0000
  C   C187      1.0  0.44685  0.03105  0.41933  1.0000
  C   C188      1.0  0.45213  0.03830  0.40063  1.0000
  C   C189      1.0  0.43901  0.04455  0.38978  1.0000
  C   C190      1.0  0.42055  0.04381  0.39762  1.0000
  C   C191      1.0  0.41529  0.03573  0.41623  1.0000
  C   C192      1.0  0.42848  0.02989  0.42715  1.0000
  P   P8        1.0  0.39145  0.03504  0.42668  1.0000
  C   C193      1.0  0.37883  0.03300  0.41121  1.0000
  S   S35       1.0  0.26243  0.99169  0.61193  1.0000
  H   H149      1.0  0.47543  0.11034  0.33653  1.0000
  C   C194      1.0  0.37795  0.02510  0.38333  1.0000
  H   H150      1.0  0.46261  0.01445  0.35637  1.0000
  C   C195      1.0  0.35952  0.03845  0.41503  1.0000
  C   C196      1.0  0.34954  0.03758  0.40291  1.0000
  C   C197      1.0  0.35876  0.03118  0.38691  1.0000
  C   C198      1.0  0.30480  0.02000  0.41396  1.0000
  C   C199      1.0  0.38792  0.02566  0.39562  1.0000
  C   C200      1.0  0.38153  0.05603  0.43473  1.0000
  C   C201      1.0  0.37320  0.07160  0.42337  1.0000
  C   C202      1.0  0.36537  0.08785  0.42958  1.0000
  C   C203      1.0  0.36622  0.08879  0.44701  1.0000
  C   C204      1.0  0.37495  0.07349  0.45824  1.0000
  C   C205      1.0  0.38272  0.05718  0.45208  1.0000
  H   H151      1.0  0.45699  0.02636  0.42777  1.0000
  H   H152      1.0  0.46635  0.03920  0.39455  1.0000
  H   H153      1.0  0.44307  0.05018  0.37528  1.0000
  H   H154      1.0  0.41047  0.04962  0.38909  1.0000
  H   H155      1.0  0.42455  0.02453  0.44173  1.0000
  H   H156      1.0  0.31612  0.01248  0.62503  1.0000
  S   S36       1.0  0.30454  0.13008  0.63536  1.0000
  C   C206      1.0  0.43782  0.01015  0.32721  1.0000
  H   H157      1.0  0.35215  0.04378  0.42717  1.0000
  H   H158      1.0  0.33471  0.04250  0.40572  1.0000
  H   H159      1.0  0.35108  0.03097  0.37726  1.0000
  C   C207      1.0  0.30815  0.00059  0.50480  1.0000
  H   H160      1.0  0.13565  0.11868  0.48928  1.0000
  H   H161      1.0  0.37281  0.07119  0.40968  1.0000
  H   H162      1.0  0.35856  0.09972  0.42088  1.0000
  H   H163      1.0  0.36001  0.10137  0.45181  1.0000
  H   H164      1.0  0.38955  0.04549  0.46087  1.0000
  C   C208      1.0  0.12205  0.16534  0.59696  1.0000
  C   C209      1.0  0.34421  0.04338  0.49828  1.0000
  C   C210      1.0  0.32770  0.05519  0.50424  1.0000
  C   C211      1.0  0.31845  0.05199  0.52264  1.0000
  H   H165      1.0  0.14386  0.14774  0.49412  1.0000
  C   C212      1.0  0.40294  0.99929  0.44540  1.0000
  C   C213      1.0  0.36667  0.14399  0.42643  1.0000
  C   C214      1.0  0.37563  0.16279  0.35300  1.0000
  C   C215      1.0  0.29156  0.04742  0.56240  1.0000
  C   C216      1.0  0.28957  0.06618  0.56058  1.0000
  C   C217      1.0  0.27213  0.07783  0.56217  1.0000
  C   C218      1.0  0.25646  0.07069  0.56635  1.0000
  C   C219      1.0  0.25823  0.05195  0.56850  1.0000
  H   H166      1.0  0.47164  0.11869  0.62496  1.0000
  H   H167      1.0  0.20786  0.15667  0.58893  1.0000
  H   H168      1.0  0.30345  0.04372  0.59482  1.0000
  H   H169      1.0  0.17013  0.06240  0.51067  1.0000
  H   H170      1.0  0.37557  0.07427  0.47175  1.0000
  H   H171      1.0  0.20393  0.05181  0.50571  1.0000
  H   H172      1.0  0.09454  0.10294  0.53665  1.0000
  Fe  Fe18      1.0  0.29249  0.11170  0.62612  1.0000
  H   H173      1.0  0.35105  0.04584  0.48392  1.0000
  H   H174      1.0  0.40846  0.06171  0.62341  1.0000
  H   H175      1.0  0.30566  0.06139  0.52672  1.0000
  H   H176      1.0  0.11065  0.14230  0.61330  1.0000
  H   H177      1.0  0.30161  0.07172  0.55783  1.0000
  H   H178      1.0  0.27076  0.09236  0.56047  1.0000
  H   H179      1.0  0.24293  0.07972  0.56764  1.0000
  C   C220      1.0  0.44867  0.16519  0.32494  1.0000
  H   H180      1.0  0.42691  0.03029  0.62252  1.0000
  H   H181      1.0  0.21642  0.04435  0.47306  1.0000
  H   H182      1.0  0.35345  0.03549  0.55315  1.0000
  C   C221      1.0  0.34615  0.03823  0.56645  1.0000
  C   C222      1.0  0.09148  0.15624  0.45129  1.0000
  C   C223      1.0  0.24620  0.13703  0.56185  1.0000
  C   C224      1.0  0.37256  0.00165  0.47495  1.0000
  C   C225      1.0  0.34907  0.17905  0.37173  1.0000
  C   C226      1.0  0.20384  0.02382  0.50652  1.0000
  C   C227      1.0  0.31813  0.04296  0.58980  1.0000
  P   P9        1.0  0.37166  0.07587  0.64361  1.0000
  C   C228      1.0  0.25030  0.15423  0.55442  1.0000
  C   C229      1.0  0.08832  0.18678  0.61120  1.0000
  H   H183      1.0  0.17421  0.18915  0.55103  1.0000
  C   C230      1.0  0.21679  0.00697  0.59942  1.0000
  C   C231      1.0  0.00793  0.23348  0.49552  1.0000
  C   C232      1.0  0.13052  0.01366  0.61695  1.0000
  H   H184      1.0  0.13608  0.02576  0.61366  1.0000
  C   C233      1.0  0.26664  0.02634  0.42787  1.0000
  C   C234      1.0  0.12185  0.12189  0.49757  1.0000
  H   H185      1.0  0.08890  0.20483  0.50534  1.0000
  H   H186      1.0  0.19963  0.99636  0.54554  1.0000
  S   S37       1.0  0.31124  0.08661  0.61720  1.0000
  H   H187      1.0  0.47721  0.01681  0.57794  1.0000
  C   C235      1.0  0.31283  0.00939  0.56850  1.0000
  H   H188      1.0  0.24906  0.17755  0.53195  1.0000
  H   H189      1.0  0.27097  0.99776  0.44018  1.0000
  C   C236      1.0  0.17640  0.04829  0.50991  1.0000
  H   H190      1.0  0.34267  0.99788  0.60441  1.0000
  C   C237      1.0  0.34945  0.14157  0.42609  1.0000
  C   C238      1.0  0.40594  0.01743  0.64190  1.0000
  C   C239      1.0  0.17519  0.18254  0.56496  1.0000
  C   C240      1.0  0.48387  0.04282  0.35697  1.0000
  H   H191      1.0  0.32096  0.04887  0.61419  1.0000
  H   H192      1.0  0.20472  0.17295  0.55736  1.0000
  H   H193      1.0  0.43197  0.00764  0.36978  1.0000
  C   C241      1.0  0.49092  0.07471  0.62112  1.0000
  C   C242      1.0  0.11174  0.01548  0.61820  1.0000
  H   H194      1.0  0.42616  0.15796  0.31928  1.0000
  C   C243      1.0  0.08553  0.15060  0.43870  1.0000
  C   C244      1.0  0.18442  0.01629  0.59849  1.0000
  H   H195      1.0  0.01363  0.17501  0.58942  1.0000
  H   H196      1.0  0.17338  0.01771  0.59178  1.0000
  H   H197      1.0  0.36046  0.00220  0.48607  1.0000
  H   H198      1.0  0.32943  0.13592  0.47162  1.0000
  H   H199      1.0  0.10739  0.18810  0.44457  1.0000
  H   H200      1.0  0.39499  0.19925  0.42349  1.0000
  C   C245      1.0  0.33601  0.13903  0.44229  1.0000
  C   C246      1.0  0.10592  0.17805  0.47371  1.0000
  H   H201      1.0  0.15244  0.21282  0.59442  1.0000
  C   C247      1.0  0.46589  0.12845  0.35542  1.0000
  H   H202      1.0  0.32185  0.06664  0.49446  1.0000
  C   C248      1.0  0.19257  0.01185  0.50810  1.0000
  H   H203      1.0  0.43830  0.17551  0.38287  1.0000
  C   C249      1.0  0.08995  0.21446  0.47639  1.0000
  C   C250      1.0  0.45517  0.03856  0.32314  1.0000
  H   H204      1.0  0.15040  0.04069  0.51492  1.0000
  H   H205      1.0  0.08068  0.16130  0.62595  1.0000
  C   C251      1.0  0.39271  0.01181  0.60118  1.0000
  C   C252      1.0  0.11432  0.12831  0.43398  1.0000
  C   C253      1.0  0.45710  0.00697  0.32311  1.0000
  C   C254      1.0  0.48110  0.01543  0.62089  1.0000
  C   C255      1.0  0.27753  0.00876  0.43177  1.0000
  H   H206      1.0  0.23350  0.11690  0.55939  1.0000
  Fe  Fe19      1.0  0.28632  0.07424  0.62763  1.0000
  C   C256      1.0  0.40393  0.09676  0.39451  1.0000
  C   C257      1.0  0.16143  0.17402  0.59725  1.0000
  C   C258      1.0  0.37358  0.15791  0.38571  1.0000
  C   C259      1.0  0.03061  0.20902  0.63081  1.0000
  C   C260      1.0  0.14249  0.22306  0.58751  1.0000
  C   C261      1.0  0.48009  0.00928  0.60598  1.0000
  H   H207      1.0  0.08221  0.16663  0.45834  1.0000
  C   C262      1.0  0.21016  0.17032  0.47995  1.0000
  C   C263      1.0  0.21986  0.16123  0.46579  1.0000
  C   C264      1.0  0.22917  0.14304  0.46989  1.0000
  C   C265      1.0  0.22928  0.13401  0.48809  1.0000
  C   C266      1.0  0.21977  0.14310  0.50242  1.0000
  C   C267      1.0  0.20998  0.16127  0.49819  1.0000
  P   P10       1.0  0.21875  0.13159  0.52618  1.0000
  C   C268      1.0  0.19457  0.13539  0.53735  1.0000
  C   C269      1.0  0.22883  0.10749  0.52839  1.0000
  C   C270      1.0  0.21797  0.09448  0.53651  1.0000
  C   C271      1.0  0.22590  0.07591  0.53747  1.0000
  C   C272      1.0  0.24474  0.07020  0.53040  1.0000
  C   C273      1.0  0.25583  0.08300  0.52330  1.0000
  C   C274      1.0  0.24791  0.10157  0.52232  1.0000
  C   C275      1.0  0.18884  0.13776  0.55546  1.0000
  C   C276      1.0  0.17004  0.14173  0.56365  1.0000
  C   C277      1.0  0.15681  0.14363  0.55371  1.0000
  C   C278      1.0  0.16241  0.14087  0.53577  1.0000
  C   C279      1.0  0.18123  0.13642  0.52774  1.0000
  C   C280      1.0  0.23136  0.14053  0.53691  1.0000
  C   C281      1.0  0.23601  0.15761  0.52922  1.0000
  C   C282      1.0  0.23666  0.13023  0.55326  1.0000
  H   H208      1.0  0.20275  0.18436  0.47678  1.0000
  H   H209      1.0  0.22009  0.16817  0.45163  1.0000
  H   H210      1.0  0.23631  0.13587  0.45891  1.0000
  H   H211      1.0  0.23666  0.11994  0.49078  1.0000
  H   H212      1.0  0.20219  0.16839  0.50905  1.0000
  H   H213      1.0  0.20335  0.09860  0.54179  1.0000
  H   H214      1.0  0.21733  0.06602  0.54364  1.0000
  H   H215      1.0  0.25086  0.05581  0.53104  1.0000
  H   H216      1.0  0.27061  0.07855  0.51877  1.0000
  H   H217      1.0  0.25662  0.11136  0.51672  1.0000
  H   H218      1.0  0.19883  0.13639  0.56335  1.0000
  H   H219      1.0  0.16582  0.14295  0.57783  1.0000
  H   H220      1.0  0.14226  0.14626  0.56021  1.0000
  H   H221      1.0  0.15219  0.14131  0.52840  1.0000
  H   H222      1.0  0.18538  0.13346  0.51417  1.0000
  H   H223      1.0  0.07191  0.15684  0.43591  1.0000
  H   H224      1.0  0.30735  0.01126  0.59693  1.0000
  H   H225      1.0  0.16615  0.02670  0.62143  1.0000
  C   C283      1.0  0.18039  0.02154  0.61521  1.0000
  P   P11       1.0  0.22863  0.01573  0.50384  1.0000
  C   C284      1.0  0.23081  0.04356  0.47223  1.0000
  C   C285      1.0  0.23556  0.99313  0.49899  1.0000
  H   H226      1.0  0.42083  0.00769  0.55208  1.0000
  H   H227      1.0  0.47454  0.07156  0.34635  1.0000
  H   H228      1.0  0.17634  0.05622  0.61849  1.0000
  C   C286      1.0  0.41292  0.00888  0.56577  1.0000
  H   H229      1.0  0.24592  0.04654  0.57201  1.0000
  C   C287      1.0  0.34225  0.02497  0.52911  1.0000
  H   H230      1.0  0.24195  0.00246  0.46947  1.0000
  C   C288      1.0  0.42493  0.17577  0.39222  1.0000
  H   H231      1.0  0.34941  0.17444  0.40013  1.0000
  S   S38       1.0  0.26839  0.09822  0.63944  1.0000
  C   C289      1.0  0.09697  0.13670  0.42999  1.0000
  Fe  Fe20      1.0  0.05346  0.22750  0.56501  1.0000
  C   C290      1.0  0.21287  0.01273  0.61588  1.0000
  H   H232      1.0  0.39973  0.08800  0.38845  1.0000
  C   C291      1.0  0.32567  0.03683  0.53529  1.0000
  S   S39       1.0  0.04008  0.21847  0.52427  1.0000
  C   C292      1.0  0.10124  0.18307  0.49070  1.0000
  C   C293      1.0  0.11638  0.10910  0.51333  1.0000
  C   C294      1.0  0.46286  0.07647  0.64487  1.0000
  C   C295      1.0  0.09145  0.16777  0.61660  1.0000
  C   C296      1.0  0.19461  0.02000  0.62391  1.0000
  C   C297      1.0  0.32802  0.04603  0.60081  1.0000
  C   C298      1.0  0.19558  0.04219  0.50715  1.0000
  C   C299      1.0  0.19260  0.17332  0.56848  1.0000
  H   H233      1.0  0.22404  0.01104  0.62251  1.0000
  C   C300      1.0  0.10909  0.14821  0.45499  1.0000
  H   H234      1.0  0.37533  0.11455  0.63127  1.0000
  H   H235      1.0  0.10284  0.02896  0.61601  1.0000
  C   C301      1.0  0.38326  0.15439  0.36841  1.0000
  C   C302      1.0  0.35674  0.17083  0.38712  1.0000
  H   H236      1.0  0.32256  0.13771  0.44176  1.0000
  H   H237      1.0  0.34630  0.14165  0.41333  1.0000
  H   H238      1.0  0.28786  0.02064  0.51844  1.0000
  C   C303      1.0  0.29671  0.00545  0.42482  1.0000
  H   H239      1.0  0.18030  0.15742  0.61443  1.0000
  H   H240      1.0  0.39671  0.14515  0.36679  1.0000
  S   S40       1.0  0.07462  0.22007  0.54049  1.0000
  C   C304      1.0  0.13121  0.19771  0.51660  1.0000
  C   C305      1.0  0.17882  0.16455  0.60064  1.0000
  H   H241      1.0  0.09007  0.00140  0.62256  1.0000
  H   H242      1.0  0.37053  0.04140  0.57247  1.0000
  C   C306      1.0  0.38489  0.05291  0.64293  1.0000
  C   C307      1.0  0.15939  0.18289  0.57931  1.0000
  H   H243      1.0  0.37970  0.11799  0.39210  1.0000
  H   H244      1.0  0.13340  0.99555  0.57024  1.0000
  C   C308      1.0  0.34692  0.04533  0.59467  1.0000
  C   C309      1.0  0.33991  0.13806  0.45908  1.0000
  H   H245      1.0  0.42007  0.15369  0.38402  1.0000
  C   C310      1.0  0.10210  0.19510  0.59883  1.0000
  P   P12       1.0  0.13676  0.19501  0.57505  1.0000
  H   H246      1.0  0.11609  0.17708  0.56070  1.0000
  C   C311      1.0  0.39823  0.12557  0.40359  1.0000
  C   C312      1.0  0.38945  0.01560  0.44548  1.0000
  H   H247      1.0  0.42596  0.19826  0.40267  1.0000
  H   H248      1.0  0.38516  0.01310  0.61493  1.0000
  C   C313      1.0  0.13499  0.19548  0.55216  1.0000
  C   C314      1.0  0.12374  0.18553  0.54934  1.0000
  C   C315      1.0  0.14410  0.20673  0.53698  1.0000
  H   H249      1.0  0.15238  0.21495  0.53887  1.0000
  C   C316      1.0  0.42611  0.10253  0.40776  1.0000
  C   C317      1.0  0.41483  0.11962  0.40970  1.0000
  C   C318      1.0  0.37072  0.14249  0.44340  1.0000
  C   C319      1.0  0.35734  0.13962  0.45966  1.0000
  H   H250      1.0  0.09914  0.20983  0.59471  1.0000
  C   C320      1.0  0.34415  0.99799  0.61779  1.0000
  H   H251      1.0  0.41928  0.12825  0.41562  1.0000
  C   C321      1.0  0.12190  0.18669  0.53162  1.0000
  C   C322      1.0  0.14232  0.20772  0.51927  1.0000
  H   H252      1.0  0.43927  0.09829  0.41176  1.0000
  H   H253      1.0  0.11296  0.17927  0.52957  1.0000
  H   H254      1.0  0.07511  0.19517  0.61629  1.0000
  C   C323      1.0  0.41460  0.16333  0.39300  1.0000
  C   C324      1.0  0.48533  0.06109  0.35187  1.0000
  C   C325      1.0  0.39017  0.17666  0.41592  1.0000
  C   C326      1.0  0.13291  0.21836  0.57714  1.0000
  H   H255      1.0  0.37650  0.17756  0.42473  1.0000
  C   C327      1.0  0.26790  0.00667  0.62195  1.0000
  H   H256      1.0  0.23082  0.00069  0.59374  1.0000
  C   C328      1.0  0.47677  0.04017  0.58794  1.0000
  P   P13       1.0  0.31442  0.03299  0.55938  1.0000
  C   C329      1.0  0.08615  0.12897  0.51912  1.0000
  H   H257      1.0  0.12305  0.11727  0.42752  1.0000
  C   C330      1.0  0.27068  0.03724  0.62077  1.0000
  C   C331      1.0  0.48047  0.03396  0.61930  1.0000
  C   C332      1.0  0.09859  0.11269  0.52420  1.0000
  H   H258      1.0  0.16478  0.00839  0.51314  1.0000
  H   H259      1.0  0.45705  0.15248  0.63463  1.0000
  C   C333      1.0  0.35154  0.02832  0.51072  1.0000
  H   H260      1.0  0.01796  0.22107  0.49316  1.0000
  C   C334      1.0  0.09158  0.14180  0.50335  1.0000
  H   H261      1.0  0.38298  0.15982  0.33972  1.0000
  C   C335      1.0  0.37393  0.01645  0.46007  1.0000
  H   H262      1.0  0.47399  0.16973  0.32757  1.0000
  C   C336      1.0  0.47104  0.13944  0.36379  1.0000
  H   H263      1.0  0.07244  0.13193  0.52768  1.0000
  H   H264      1.0  0.36276  0.02845  0.45980  1.0000
  H   H265      1.0  0.33459  0.12409  0.60399  1.0000
  C   C337      1.0  0.14790  0.99562  0.56499  1.0000
  H   H266      1.0  0.46075  0.14687  0.37331  1.0000
  H   H267      1.0  0.12605  0.09647  0.51718  1.0000
  Fe  Fe21      1.0  0.02151  0.22606  0.55015  1.0000
  H   H268      1.0  0.14933  0.21646  0.50762  1.0000
  S   S41       1.0  0.06221  0.23159  0.58864  1.0000
  C   C338      1.0  0.30963  0.00252  0.58753  1.0000
  C   C339      1.0  0.18522  0.99604  0.55105  1.0000
  C   C340      1.0  0.02844  0.22725  0.63131  1.0000
  H   H269      1.0  0.04015  0.20367  0.61936  1.0000
  H   H270      1.0  0.20560  0.00424  0.57797  1.0000
  C   C341      1.0  0.48846  0.09368  0.61745  1.0000
  H   H271      1.0  0.11179  0.22867  0.56111  1.0000
  H   H272      1.0  0.39429  0.13117  0.63847  1.0000
  C   C342      1.0  0.31422  0.99786  0.55687  1.0000
  C   C343      1.0  0.39575  0.11662  0.64390  1.0000
  C   C344      1.0  0.38493  0.10709  0.63992  1.0000
  C   C345      1.0  0.00128  0.18382  0.59559  1.0000
  C   C346      1.0  0.24098  0.99082  0.48080  1.0000
  H   H273      1.0  0.19838  0.99760  0.50776  1.0000
  H   H274      1.0  0.14189  0.09457  0.65068  1.0000
  C   C347      1.0  0.39283  0.99699  0.59412  1.0000
  H   H275      1.0  0.42330  0.15987  0.64646  1.0000
  H   H276      1.0  0.49322  0.14981  0.36605  1.0000
  S   S42       1.0  0.46571  0.05703  0.31829  1.0000
  C   C348      1.0  0.45190  0.98749  0.40639  1.0000
  C   C349      1.0  0.15847  0.07646  0.63292  1.0000
  C   C350      1.0  0.16984  0.05922  0.63187  1.0000
  H   H277      1.0  0.20851  0.05342  0.63910  1.0000
  H   H278      1.0  0.46519  0.99370  0.32099  1.0000
  H   H279      1.0  0.27076  0.99421  0.54702  1.0000
  C   C351      1.0  0.40329  0.99545  0.57646  1.0000
  C   C352      1.0  0.45115  0.14583  0.64833  1.0000
  S   S43       1.0  0.28807  0.04507  0.64355  1.0000
  H   H280      1.0  0.41408  0.00373  0.64170  1.0000
  S   S44       1.0  0.48670  0.12941  0.65036  1.0000
  C   C353      1.0  0.46934  0.99153  0.39881  1.0000
  C   C354      1.0  0.43833  0.99348  0.39606  1.0000
  H   H281      1.0  0.44936  0.10347  0.64964  1.0000
  C   C355      1.0  0.38634  0.08834  0.64746  1.0000
  C   C356      1.0  0.02037  0.19792  0.64483  1.0000
  H   H282      1.0  0.02200  0.18379  0.64438  1.0000
  C   C357      1.0  0.28148  0.01215  0.64416  1.0000
  H   H283      1.0  0.42508  0.98973  0.40170  1.0000
  C   C358      1.0  0.36228  0.99117  0.64073  1.0000
  C   C359      1.0  0.36091  0.99009  0.62338  1.0000
  C   C360      1.0  0.17316  0.04636  0.64787  1.0000
  H   H284      1.0  0.99712  0.19937  0.54508  1.0000
  H   H285      1.0  0.37415  0.98724  0.39535  1.0000
  C   C361      1.0  0.36468  0.98641  0.40862  1.0000
  C   C362      1.0  0.15063  0.08116  0.64995  1.0000
  H   H286      1.0  0.27728  0.98608  0.64423  1.0000
  H   H287      1.0  0.34171  0.98704  0.39795  1.0000
  C   C363      1.0  0.34633  0.98599  0.41022  1.0000
  H   H288      1.0  0.03634  0.23574  0.62030  1.0000
  Fe  Fe22      1.0  0.38562  0.12725  0.70186  1.0000
  S   S45       1.0  0.36092  0.13606  0.72357  1.0000
  S   S46       1.0  0.39998  0.14766  0.68030  1.0000
  Fe  Fe23      1.0  0.38326  0.08752  0.71391  1.0000
  S   S47       1.0  0.35890  0.09318  0.73669  1.0000
  S   S48       1.0  0.39514  0.06029  0.70587  1.0000
  Fe  Fe24      1.0  0.34824  0.11708  0.71606  1.0000
  S   S49       1.0  0.31904  0.11907  0.71433  1.0000
  Fe  Fe25      1.0  0.37396  0.11124  0.74207  1.0000
  S   S50       1.0  0.37494  0.10686  0.77179  1.0000
  S   S51       1.0  0.37175  0.11052  0.69292  1.0000
  S   S52       1.0  0.39943  0.10362  0.72080  1.0000
  H   H289      1.0  0.28410  0.19036  0.75597  1.0000
  H   H290      1.0  0.30960  0.13852  0.74131  1.0000
  S   S53       1.0  0.34062  0.00680  0.73211  1.0000
  C   C364      1.0  0.49607  0.04810  0.70351  1.0000
  C   C365      1.0  0.48475  0.14633  0.76116  1.0000
  C   C366      1.0  0.27093  0.00129  0.79038  1.0000
  C   C367      1.0  0.37782  0.17535  0.71971  1.0000
  C   C368      1.0  0.15438  0.06870  0.66593  1.0000
  H   H291      1.0  0.41976  0.17552  0.97673  1.0000
  H   H292      1.0  0.39814  0.18740  0.75418  1.0000
  H   H293      1.0  0.46438  0.10882  0.76490  1.0000
  C   C369      1.0  0.36727  0.05187  0.82998  1.0000
  H   H294      1.0  0.49337  0.09731  0.74282  1.0000
  Fe  Fe26      1.0  0.43674  0.10311  0.85569  1.0000
  S   S54       1.0  0.41813  0.13077  0.85688  1.0000
  S   S55       1.0  0.42660  0.07807  0.87337  1.0000
  Fe  Fe27      1.0  0.46634  0.11874  0.82613  1.0000
  S   S56       1.0  0.45025  0.14761  0.82490  1.0000
  H   H295      1.0  0.48841  0.05398  0.79665  1.0000
  Fe  Fe28      1.0  0.44382  0.13981  0.85569  1.0000
  S   S57       1.0  0.44122  0.15933  0.87391  1.0000
  Fe  Fe29      1.0  0.42604  0.13630  0.82617  1.0000
  S   S58       1.0  0.40566  0.15234  0.80825  1.0000
  S   S59       1.0  0.46185  0.11153  0.85692  1.0000
  S   S60       1.0  0.44275  0.10795  0.82501  1.0000
  C   C370      1.0  0.28345  0.02585  0.76838  1.0000
  C   C371      1.0  0.27771  0.15768  0.72979  1.0000
  H   H296      1.0  0.39401  0.16142  0.97948  1.0000
  H   H297      1.0  0.43508  0.17541  0.78916  1.0000
  C   C372      1.0  0.43334  0.14018  0.74206  1.0000
  H   H298      1.0  0.45592  0.01852  0.81332  1.0000
  S   S61       1.0  0.46878  0.00552  0.84541  1.0000
  H   H299      1.0  0.33992  0.13561  0.78088  1.0000
  H   H300      1.0  0.44348  0.18549  0.89269  1.0000
  C   C373      1.0  0.44444  0.13392  0.96825  1.0000
  H   H301      1.0  0.37221  0.17196  0.71005  1.0000
  C   C374      1.0  0.42974  0.12603  0.96981  1.0000
  H   H302      1.0  0.33852  0.02644  0.81561  1.0000
  C   C375      1.0  0.43145  0.01942  0.80471  1.0000
  C   C376      1.0  0.24779  0.99156  0.72262  1.0000
  C   C377      1.0  0.43926  0.05726  0.86733  1.0000
  C   C378      1.0  0.45708  0.05581  0.85631  1.0000
  C   C379      1.0  0.46619  0.03963  0.85008  1.0000
  C   C380      1.0  0.45740  0.02502  0.85454  1.0000
  C   C381      1.0  0.43985  0.02623  0.86605  1.0000
  C   C382      1.0  0.43092  0.04223  0.87268  1.0000
  H   H303      1.0  0.46368  0.06727  0.85232  1.0000
  H   H304      1.0  0.47992  0.03855  0.84146  1.0000
  H   H305      1.0  0.43322  0.01483  0.86984  1.0000
  H   H306      1.0  0.41724  0.04328  0.88141  1.0000
  H   H307      1.0  0.41446  0.01530  0.72552  1.0000
  C   C383      1.0  0.40397  0.17253  0.73265  1.0000
  H   H308      1.0  0.47926  0.22174  0.97576  1.0000
  H   H309      1.0  0.45834  0.15496  0.93327  1.0000
  C   C384      1.0  0.42981  0.00654  0.74700  1.0000
  C   C385      1.0  0.00791  0.20513  0.65932  1.0000
  C   C386      1.0  0.47730  0.19917  0.83233  1.0000
  C   C387      1.0  0.39266  0.18390  0.74451  1.0000
  H   H310      1.0  0.47393  0.14447  0.79009  1.0000
  C   C388      1.0  0.44107  0.15185  0.97065  1.0000
  H   H311      1.0  0.29225  0.21121  0.69750  1.0000
  C   C389      1.0  0.23382  0.01153  0.66993  1.0000
  H   H312      1.0  0.36452  0.07770  0.68254  1.0000
  H   H313      1.0  0.39307  0.01059  0.75944  1.0000
  H   H314      1.0  0.35905  0.15679  0.67537  1.0000
  C   C390      1.0  0.45679  0.15672  0.70230  1.0000
  H   H315      1.0  0.49291  0.20658  0.74610  1.0000
  C   C391      1.0  0.47774  0.15638  0.94817  1.0000
  C   C392      1.0  0.33131  0.16252  0.76490  1.0000
  H   H316      1.0  0.45300  0.07014  0.65580  1.0000
  C   C393      1.0  0.40794  0.10757  0.65549  1.0000
  H   H317      1.0  0.48984  0.15031  0.82305  1.0000
  H   H318      1.0  0.46273  0.14487  0.71161  1.0000
  H   H319      1.0  0.46086  0.02879  0.75522  1.0000
  C   C394      1.0  0.40940  0.08896  0.66309  1.0000
  H   H320      1.0  0.45846  0.12611  0.96497  1.0000
  C   C395      1.0  0.45866  0.20463  0.84038  1.0000
  C   C396      1.0  0.36662  0.18663  0.73155  1.0000
  H   H321      1.0  0.47457  0.02439  0.78193  1.0000
  C   C397      1.0  0.29160  0.16696  0.69764  1.0000
  S   S62       1.0  0.49604  0.20101  0.92766  1.0000
  C   C398      1.0  0.31591  0.12063  0.69229  1.0000
  C   C399      1.0  0.32770  0.12825  0.67666  1.0000
  H   H322      1.0  0.45762  0.00109  0.69688  1.0000
  H   H323      1.0  0.33922  0.13271  0.67795  1.0000
  H   H324      1.0  0.32497  0.20739  0.70726  1.0000
  C   C400      1.0  0.37897  0.04647  0.71217  1.0000
  C   C401      1.0  0.36362  0.04894  0.72658  1.0000
  C   C402      1.0  0.35116  0.03741  0.73203  1.0000
  C   C403      1.0  0.35423  0.02312  0.72324  1.0000
  C   C404      1.0  0.36912  0.02107  0.70827  1.0000
  C   C405      1.0  0.38155  0.03265  0.70284  1.0000
  H   H325      1.0  0.36175  0.05915  0.73414  1.0000
  H   H326      1.0  0.33969  0.03902  0.74361  1.0000
  H   H327      1.0  0.37120  0.01041  0.70102  1.0000
  H   H328      1.0  0.39319  0.03078  0.69154  1.0000
  C   C406      1.0  0.42414  0.14161  0.67271  1.0000
  C   C407      1.0  0.43556  0.12887  0.68375  1.0000
  C   C408      1.0  0.45489  0.12494  0.67714  1.0000
  H   H329      1.0  0.41615  0.10188  0.75262  1.0000
  H   H330      1.0  0.43664  0.19895  0.66792  1.0000
  H   H331      1.0  0.42960  0.12243  0.69749  1.0000
  H   H332      1.0  0.46372  0.11538  0.68576  1.0000
  C   C409      1.0  0.38521  0.11999  0.77966  1.0000
  C   C410      1.0  0.38154  0.13907  0.77470  1.0000
  C   C411      1.0  0.38791  0.14895  0.78351  1.0000
  C   C412      1.0  0.39842  0.13980  0.79681  1.0000
  C   C413      1.0  0.40253  0.12079  0.80122  1.0000
  C   C414      1.0  0.39576  0.11103  0.79283  1.0000
  H   H333      1.0  0.37331  0.14619  0.76462  1.0000
  H   H334      1.0  0.38445  0.16368  0.78032  1.0000
  H   H335      1.0  0.41019  0.11356  0.81171  1.0000
  H   H336      1.0  0.39827  0.09647  0.79701  1.0000
  C   C415      1.0  0.33674  0.07470  0.69420  1.0000
  C   C416      1.0  0.45418  0.01143  0.68507  1.0000
  H   H337      1.0  0.47587  0.15948  0.75742  1.0000
  C   C417      1.0  0.47820  0.15984  0.86667  1.0000
  C   C418      1.0  0.46026  0.16682  0.87548  1.0000
  C   C419      1.0  0.45734  0.18011  0.88571  1.0000
  C   C420      1.0  0.47222  0.18669  0.88672  1.0000
  C   C421      1.0  0.46268  0.13353  0.65940  1.0000
  H   H338      1.0  0.48053  0.14932  0.85919  1.0000
  C   C422      1.0  0.29773  0.11698  0.67288  1.0000
  C   C423      1.0  0.21786  0.00420  0.74927  1.0000
  C   C424      1.0  0.45262  0.11427  0.75848  1.0000
  C   C425      1.0  0.26782  0.14956  0.70664  1.0000
  H   H339      1.0  0.26678  0.99430  0.80447  1.0000
  H   H340      1.0  0.45833  0.14095  0.74881  1.0000
  C   C426      1.0  0.34647  0.03350  0.81969  1.0000
  C   C427      1.0  0.37236  0.05814  0.77148  1.0000
  C   C428      1.0  0.36096  0.04627  0.77367  1.0000
  C   C429      1.0  0.31422  0.16436  0.74219  1.0000
  C   C430      1.0  0.38758  0.02402  0.76245  1.0000
  C   C431      1.0  0.39914  0.03604  0.75973  1.0000
  C   C432      1.0  0.39133  0.05313  0.76444  1.0000
  P   P14       1.0  0.42397  0.02882  0.75261  1.0000
  C   C433      1.0  0.43378  0.02648  0.77182  1.0000
  H   H341      1.0  0.46536  0.17718  0.65707  1.0000
  C   C434      1.0  0.26640  0.23215  0.73226  1.0000
  C   C435      1.0  0.37400  0.19083  0.74402  1.0000
  C   C436      1.0  0.21850  0.01020  0.66451  1.0000
  C   C437      1.0  0.33196  0.19644  0.70007  1.0000
  C   C438      1.0  0.42745  0.98678  0.72882  1.0000
  C   C439      1.0  0.45238  0.02695  0.76897  1.0000
  C   C440      1.0  0.26644  0.14923  0.72504  1.0000
  C   C441      1.0  0.48363  0.13781  0.77968  1.0000
  C   C442      1.0  0.16577  0.05143  0.66489  1.0000
  C   C443      1.0  0.42345  0.02234  0.78978  1.0000
  C   C444      1.0  0.43290  0.04584  0.73350  1.0000
  C   C445      1.0  0.43352  0.06270  0.73626  1.0000
  C   C446      1.0  0.44016  0.07594  0.72155  1.0000
  C   C447      1.0  0.44602  0.07260  0.70387  1.0000
  C   C448      1.0  0.44585  0.05576  0.70102  1.0000
  C   C449      1.0  0.43956  0.04242  0.71576  1.0000
  H   H342      1.0  0.36650  0.07136  0.77506  1.0000
  H   H343      1.0  0.34622  0.05036  0.77870  1.0000
  C   C450      1.0  0.21481  0.99925  0.73454  1.0000
  H   H344      1.0  0.33789  0.16898  0.77127  1.0000
  H   H345      1.0  0.39977  0.06260  0.76296  1.0000
  H   H346      1.0  0.48209  0.14745  0.90637  1.0000
  C   C451      1.0  0.43602  0.01680  0.68270  1.0000
  H   H347      1.0  0.31817  0.01319  0.65592  1.0000
  C   C452      1.0  0.30622  0.00146  0.71385  1.0000
  C   C453      1.0  0.31981  0.07156  0.67370  1.0000
  H   H348      1.0  0.43244  0.11229  0.96766  1.0000
  H   H349      1.0  0.41817  0.08208  0.67280  1.0000
  H   H350      1.0  0.36102  0.05086  0.90558  1.0000
  C   C454      1.0  0.32521  0.18047  0.70433  1.0000
  C   C455      1.0  0.49304  0.04611  0.75124  1.0000
  H   H351      1.0  0.42904  0.06564  0.74974  1.0000
  H   H352      1.0  0.44054  0.08891  0.72378  1.0000
  H   H353      1.0  0.45099  0.08291  0.69246  1.0000
  H   H354      1.0  0.45086  0.05282  0.68749  1.0000
  H   H355      1.0  0.44019  0.02942  0.71317  1.0000
  H   H356      1.0  0.44375  0.08897  0.76613  1.0000
  C   C456      1.0  0.32063  0.07229  0.69122  1.0000
  H   H357      1.0  0.25131  0.02911  0.66913  1.0000
  H   H358      1.0  0.33721  0.07573  0.70770  1.0000
  H   H359      1.0  0.30867  0.07142  0.70242  1.0000
  C   C457      1.0  0.49015  0.17999  0.87748  1.0000
  H   H360      1.0  0.16900  0.04208  0.67730  1.0000
  H   H361      1.0  0.38312  0.00838  0.66220  1.0000
  H   H362      1.0  0.33055  0.15353  0.69896  1.0000
  C   C458      1.0  0.27519  0.00326  0.75774  1.0000
  H   H363      1.0  0.47199  0.05521  0.73558  1.0000
  C   C459      1.0  0.46025  0.02421  0.78396  1.0000
  C   C460      1.0  0.42164  0.12888  0.74293  1.0000
  H   H364      1.0  0.47801  0.15037  0.67911  1.0000
  H   H365      1.0  0.25683  0.14218  0.73564  1.0000
  H   H366      1.0  0.22753  0.98876  0.70995  1.0000
  C   C461      1.0  0.43328  0.18409  0.69602  1.0000
  H   H367      1.0  0.38228  0.98852  0.78740  1.0000
  H   H368      1.0  0.28916  0.03784  0.76535  1.0000
  C   C462      1.0  0.44509  0.20098  0.83407  1.0000
  C   C463      1.0  0.44975  0.02066  0.80178  1.0000
  C   C464      1.0  0.30600  0.02671  0.68752  1.0000
  H   H369      1.0  0.30716  0.07019  0.67126  1.0000
  C   C465      1.0  0.44549  0.19530  0.97916  1.0000
  C   C466      1.0  0.45852  0.17510  0.67144  1.0000
  C   C467      1.0  0.44025  0.16855  0.70843  1.0000
  C   C468      1.0  0.44532  0.03816  0.65470  1.0000
  C   C469      1.0  0.27001  0.21796  0.74718  1.0000
  C   C470      1.0  0.44639  0.21622  0.94356  1.0000
  C   C471      1.0  0.45226  0.19723  0.94639  1.0000
  C   C472      1.0  0.45236  0.18667  0.96418  1.0000
  H   H370      1.0  0.33065  0.00951  0.69587  1.0000
  P   P15       1.0  0.46020  0.16215  0.96790  1.0000
  H   H371      1.0  0.48662  0.07055  0.82018  1.0000
  C   C473      1.0  0.42550  0.11041  0.75150  1.0000
  H   H372      1.0  0.43070  0.20459  0.84081  1.0000
  C   C474      1.0  0.20897  0.02536  0.65358  1.0000
  H   H373      1.0  0.39928  0.06522  0.66591  1.0000
  H   H374      1.0  0.38143  0.01995  0.91003  1.0000
  C   C475      1.0  0.29071  0.16621  0.71615  1.0000
  C   C476      1.0  0.17868  0.00547  0.66052  1.0000
  C   C477      1.0  0.30926  0.12511  0.65731  1.0000
  H   H375      1.0  0.35981  0.01989  0.77089  1.0000
  H   H376      1.0  0.41750  0.03442  0.66597  1.0000
  H   H377      1.0  0.46092  0.20768  0.73927  1.0000
  C   C478      1.0  0.43601  0.17592  0.74491  1.0000
  C   C479      1.0  0.28674  0.03050  0.69155  1.0000
  H   H378      1.0  0.26225  0.02365  0.71004  1.0000
  H   H379      1.0  0.45717  0.19095  0.93460  1.0000
  C   C480      1.0  0.28637  0.21309  0.71143  1.0000
  H   H380      1.0  0.99993  0.19653  0.67014  1.0000
  H   H381      1.0  0.42428  0.16061  0.77118  1.0000
  H   H382      1.0  0.43957  0.18895  0.81493  1.0000
  C   C481      1.0  0.40809  0.15371  0.97644  1.0000
  C   C482      1.0  0.27784  0.01700  0.78655  1.0000
  C   C483      1.0  0.44232  0.18725  0.67754  1.0000
  H   H383      1.0  0.34793  0.99992  0.66596  1.0000
  C   C484      1.0  0.44032  0.99140  0.75708  1.0000
  H   H384      1.0  0.32297  0.05411  0.82846  1.0000
  C   C485      1.0  0.35151  0.07522  0.66215  1.0000
  C   C486      1.0  0.23947  0.02807  0.66487  1.0000
  C   C487      1.0  0.48612  0.14951  0.91783  1.0000
  H   H385      1.0  0.40495  0.15977  0.71080  1.0000
  C   C488      1.0  0.34811  0.19825  0.68664  1.0000
  C   C489      1.0  0.39640  0.16835  0.72023  1.0000
  C   C490      1.0  0.44649  0.18920  0.73599  1.0000
  C   C491      1.0  0.38840  0.02007  0.65340  1.0000
  C   C492      1.0  0.44901  0.13259  0.74960  1.0000
  C   C493      1.0  0.41157  0.13593  0.97387  1.0000
  H   H386      1.0  0.27921  0.04179  0.68290  1.0000
  C   C494      1.0  0.33240  0.14372  0.77041  1.0000
  C   C495      1.0  0.28030  0.15853  0.69295  1.0000
  H   H387      1.0  0.45352  0.19905  0.77333  1.0000
  C   C496      1.0  0.32415  0.13083  0.65928  1.0000
  C   C497      1.0  0.45270  0.19758  0.74623  1.0000
  H   H388      1.0  0.39041  0.03022  0.82224  1.0000
  C   C498      1.0  0.43950  0.21429  0.97627  1.0000
  H   H389      1.0  0.42355  0.01601  0.81856  1.0000
  H   H390      1.0  0.35228  0.19214  0.73098  1.0000
  C   C499      1.0  0.31521  0.14550  0.74798  1.0000
  C   C500      1.0  0.32425  0.13524  0.76204  1.0000
  H   H391      1.0  0.44718  0.22442  0.92974  1.0000
  H   H392      1.0  0.28608  0.11276  0.67146  1.0000
  H   H393      1.0  0.27645  0.15734  0.74410  1.0000
  H   H394      1.0  0.48272  0.05405  0.70021  1.0000
  C   C501      1.0  0.46794  0.01943  0.67229  1.0000
  C   C502      1.0  0.32226  0.17281  0.75084  1.0000
  C   C503      1.0  0.49307  0.08303  0.74545  1.0000
  C   C504      1.0  0.43159  0.03027  0.66764  1.0000
  H   H395      1.0  0.48189  0.01492  0.67437  1.0000
  H   H396      1.0  0.40933  0.13422  0.73749  1.0000
  C   C505      1.0  0.30089  0.11504  0.69038  1.0000
  H   H397      1.0  0.45477  0.21111  0.85199  1.0000
  H   H398      1.0  0.20087  0.00029  0.73342  1.0000
  C   C506      1.0  0.33513  0.16621  0.69536  1.0000
  C   C507      1.0  0.15274  0.99322  0.68092  1.0000
  H   H399      1.0  0.27906  0.02221  0.79764  1.0000
  C   C508      1.0  0.37580  0.03590  0.82322  1.0000
  C   C509      1.0  0.47268  0.15364  0.93324  1.0000
  C   C510      1.0  0.43478  0.06517  0.81955  1.0000
  C   C511      1.0  0.43826  0.06466  0.80111  1.0000
  C   C512      1.0  0.42428  0.06300  0.79390  1.0000
  C   C513      1.0  0.40699  0.06136  0.80520  1.0000
  C   C514      1.0  0.40357  0.06144  0.82388  1.0000
  C   C515      1.0  0.41748  0.06371  0.83087  1.0000
  P   P16       1.0  0.38059  0.06266  0.83789  1.0000
  C   C516      1.0  0.38145  0.04965  0.86083  1.0000
  C   C517      1.0  0.37179  0.08675  0.83722  1.0000
  C   C518      1.0  0.37780  0.09521  0.84765  1.0000
  C   C519      1.0  0.37282  0.11415  0.84578  1.0000
  C   C520      1.0  0.36190  0.12484  0.83342  1.0000
  C   C521      1.0  0.35604  0.11658  0.82284  1.0000
  C   C522      1.0  0.36119  0.09764  0.82450  1.0000
  C   C523      1.0  0.36971  0.05622  0.87611  1.0000
  C   C524      1.0  0.36983  0.04560  0.89381  1.0000
  C   C525      1.0  0.38130  0.02819  0.89633  1.0000
  C   C526      1.0  0.39266  0.02139  0.88117  1.0000
  C   C527      1.0  0.39286  0.03212  0.86347  1.0000
  C   C528      1.0  0.28685  0.00533  0.71818  1.0000
  H   H400      1.0  0.45174  0.06567  0.79244  1.0000
  H   H401      1.0  0.42684  0.06291  0.77959  1.0000
  H   H402      1.0  0.39615  0.06084  0.79915  1.0000
  H   H403      1.0  0.14864  0.07251  0.67909  1.0000
  H   H404      1.0  0.38694  0.08729  0.85676  1.0000
  H   H405      1.0  0.37804  0.12061  0.85342  1.0000
  H   H406      1.0  0.35872  0.13957  0.83146  1.0000
  H   H407      1.0  0.34844  0.12494  0.81257  1.0000
  H   H408      1.0  0.36041  0.06948  0.87443  1.0000
  H   H409      1.0  0.40151  0.00786  0.88318  1.0000
  H   H410      1.0  0.40192  0.02673  0.85187  1.0000
  C   C529      1.0  0.36548  0.02687  0.81794  1.0000
  H   H411      1.0  0.36533  0.19948  0.75331  1.0000
  H   H412      1.0  0.25944  0.14264  0.70294  1.0000
  S   S63       1.0  0.48360  0.01654  0.71852  1.0000
  C   C530      1.0  0.49306  0.16643  0.86758  1.0000
  P   P17       1.0  0.42833  0.16436  0.73213  1.0000
  C   C531      1.0  0.34807  0.05816  0.83219  1.0000
  H   H413      1.0  0.13872  0.99539  0.68896  1.0000
  C   C532      1.0  0.26967  0.99439  0.77604  1.0000
  H   H414      1.0  0.44539  0.06712  0.82497  1.0000
  H   H415      1.0  0.40936  0.02098  0.79230  1.0000
  C   C533      1.0  0.44856  0.19272  0.76539  1.0000
  H   H416      1.0  0.44534  0.99261  0.76828  1.0000
  C   C534      1.0  0.48092  0.05937  0.74146  1.0000
  C   C535      1.0  0.29049  0.19898  0.72635  1.0000
  C   C536      1.0  0.35217  0.07607  0.67978  1.0000
  H   H417      1.0  0.31407  0.99065  0.72254  1.0000
  C   C537      1.0  0.44014  0.22475  0.95846  1.0000
  C   C538      1.0  0.35128  0.16802  0.68200  1.0000
  H   H418      1.0  0.32185  0.18729  0.74645  1.0000
  H   H419      1.0  0.28689  0.02603  0.74007  1.0000
  H   H420      1.0  0.47220  0.08798  0.73014  1.0000
  C   C539      1.0  0.43203  0.15004  0.65504  1.0000
  C   C540      1.0  0.42312  0.00398  0.73303  1.0000
  C   C541      1.0  0.46880  0.18640  0.81154  1.0000
  H   H421      1.0  0.45015  0.19288  0.72118  1.0000
  H   H422      1.0  0.34104  0.06986  0.83828  1.0000
  C   C542      1.0  0.46361  0.03282  0.65696  1.0000
  H   H423      1.0  0.37228  0.01464  0.81257  1.0000
  C   C543      1.0  0.43821  0.17946  0.77432  1.0000
  C   C544      1.0  0.43200  0.17109  0.76411  1.0000
  C   C545      1.0  0.45014  0.19208  0.81951  1.0000
  H   H424      1.0  0.32554  0.12058  0.76597  1.0000
  C   C546      1.0  0.37785  0.03773  0.65391  1.0000
  H   H425      1.0  0.28760  0.00696  0.65604  1.0000
  H   H426      1.0  0.15209  0.02175  0.67122  1.0000
  H   H427      1.0  0.41475  0.06496  0.84494  1.0000
  H   H428      1.0  0.31335  0.03507  0.67579  1.0000
  H   H429      1.0  0.46982  0.19707  0.89443  1.0000
  C   C547      1.0  0.23036  0.04306  0.65367  1.0000
  C   C548      1.0  0.33775  0.04912  0.82685  1.0000
  C   C549      1.0  0.46575  0.15998  0.68386  1.0000
  C   C550      1.0  0.48109  0.07779  0.73835  1.0000
  C   C551      1.0  0.27718  0.01998  0.70687  1.0000
  H   H430      1.0  0.35779  0.09172  0.81512  1.0000
  H   H431      1.0  0.29168  0.10922  0.70246  1.0000
  H   H432      1.0  0.42075  0.19364  0.70055  1.0000
  C   C552      1.0  0.35776  0.18403  0.67761  1.0000
  H   H433      1.0  0.37054  0.18515  0.66754  1.0000
  C   C553      1.0  0.34689  0.99938  0.65250  1.0000
  C   C554      1.0  0.44092  0.10315  0.75933  1.0000
  C   C555      1.0  0.00569  0.22344  0.65981  1.0000
  H   H434      1.0  0.49167  0.20828  0.77778  1.0000
  H   H435      1.0  0.40019  0.12986  0.97489  1.0000
  C   C556      1.0  0.28212  0.01906  0.75401  1.0000
  C   C557      1.0  0.31573  0.01218  0.69864  1.0000
  C   C558      1.0  0.16050  0.00819  0.67098  1.0000
  C   C559      1.0  0.36859  0.02915  0.76928  1.0000
  H   H436      1.0  0.30113  0.17382  0.68676  1.0000
  P   P18       1.0  0.30502  0.17736  0.72232  1.0000
  C   C560      1.0  0.28186  0.20135  0.74426  1.0000
  C   C561      1.0  0.48259  0.18992  0.81786  1.0000
  H   H437      1.0  0.36441  0.03940  0.66314  1.0000
  H   H438      1.0  0.42535  0.01057  0.69252  1.0000
  C   C562      1.0  0.42277  0.16167  0.97485  1.0000
  H   H439      1.0  0.28158  0.15851  0.67868  1.0000
  C   C563      1.0  0.27450  0.22968  0.71439  1.0000
  H   H440      1.0  0.48458  0.17586  0.98145  1.0000
  H   H441      1.0  0.26346  0.21977  0.76103  1.0000
  H   H442      1.0  0.47242  0.17879  0.80082  1.0000
  H   H443      1.0  0.41570  0.11515  0.65914  1.0000
  C   C564      1.0  0.33522  0.07291  0.65924  1.0000
  H   H444      1.0  0.48738  0.20178  0.83796  1.0000
  S   S64       1.0  0.49403  0.11017  0.80785  1.0000
  H   H445      1.0  0.35336  0.21052  0.68342  1.0000
  H   H446      1.0  0.49326  0.03193  0.75254  1.0000
  C   C565      1.0  0.39861  0.07941  0.65914  1.0000
  H   H447      1.0  0.23789  0.00653  0.76233  1.0000
  H   H448      1.0  0.21434  0.99733  0.66888  1.0000
  C   C566      1.0  0.23589  0.00262  0.75083  1.0000
  P   P19       1.0  0.27449  0.99350  0.73941  1.0000
  H   H449      1.0  0.24159  0.99964  0.67776  1.0000
  H   H450      1.0  0.25926  0.98665  0.71214  1.0000
  C   C567      1.0  0.49523  0.12090  0.78465  1.0000
  C   C568      1.0  0.25101  0.99613  0.73756  1.0000
  H   H451      1.0  0.20623  0.00920  0.75954  1.0000
  C   C569      1.0  0.22979  0.99289  0.72125  1.0000
  C   C570      1.0  0.18856  0.98756  0.65950  1.0000
  Fe  Fe30      1.0  0.42138  0.34205  0.08587  1.0000
  S   S65       1.0  0.44434  0.34877  0.06236  1.0000
  S   S66       1.0  0.40694  0.31985  0.08823  1.0000
  Fe  Fe31      1.0  0.42279  0.37123  0.10397  1.0000
  S   S67       1.0  0.44589  0.38077  0.08175  1.0000
  S   S68       1.0  0.41382  0.38117  0.13028  1.0000
  Fe  Fe32      1.0  0.43046  0.37789  0.06249  1.0000
  S   S69       1.0  0.43146  0.39648  0.03461  1.0000
  Fe  Fe33      1.0  0.45786  0.35106  0.08331  1.0000
  P   P20       1.0  0.21321  0.48327  0.02339  1.0000
  S   S70       1.0  0.40592  0.37129  0.08458  1.0000
  S   S71       1.0  0.43626  0.34144  0.10702  1.0000
  C   C571      1.0  0.37376  0.37019  0.04570  1.0000
  H   H452      1.0  0.02632  0.47550  0.28139  1.0000
  S   S72       1.0  0.33393  0.42910  0.15221  1.0000
  C   C572      1.0  0.18380  0.46738  0.04506  1.0000
  C   C573      1.0  0.01083  0.45482  0.29596  1.0000
  C   C574      1.0  0.37727  0.33096  0.01244  1.0000
  C   C575      1.0  0.23586  0.46811  0.02135  1.0000
  S   S73       1.0  0.29934  0.44322  0.11906  1.0000
  H   H453      1.0  0.46555  0.43886  0.08057  1.0000
  H   H454      1.0  0.45427  0.31122  0.03867  1.0000
  C   C576      1.0  0.44004  0.26488  0.07475  1.0000
  H   H455      1.0  0.42527  0.43053  0.04500  1.0000
  C   C577      1.0  0.35541  0.41458  0.14585  1.0000
  C   C578      1.0  0.36623  0.40646  0.15890  1.0000
  C   C579      1.0  0.38389  0.39570  0.15408  1.0000
  C   C580      1.0  0.39076  0.39276  0.13623  1.0000
  C   C581      1.0  0.37969  0.40020  0.12329  1.0000
  C   C582      1.0  0.36203  0.41126  0.12807  1.0000
  H   H456      1.0  0.36112  0.40888  0.17267  1.0000
  H   H457      1.0  0.39238  0.38994  0.16412  1.0000
  H   H458      1.0  0.38492  0.39785  0.10953  1.0000
  H   H459      1.0  0.35358  0.41722  0.11802  1.0000
  C   C583      1.0  0.11891  0.47065  0.12010  1.0000
  H   H460      1.0  0.41829  0.36432  0.03824  1.0000
  H   H461      1.0  0.48759  0.46076  0.16389  1.0000
  C   C584      1.0  0.32903  0.45153  0.03010  1.0000
  C   C585      1.0  0.34256  0.39032  0.06553  1.0000
  H   H462      1.0  0.35372  0.37565  0.08933  1.0000
  H   H463      1.0  0.26139  0.48065  0.09228  1.0000
  H   H464      1.0  0.33072  0.39852  0.07315  1.0000
  H   H465      1.0  0.08977  0.44156  0.13232  1.0000
  C   C586      1.0  0.43306  0.36478  0.99257  1.0000
  C   C587      1.0  0.35556  0.37755  0.07463  1.0000
  H   H466      1.0  0.08148  0.46971  0.25427  1.0000
  C   C588      1.0  0.41116  0.28479  0.08597  1.0000
  C   C589      1.0  0.42031  0.29869  0.08351  1.0000
  C   C590      1.0  0.43957  0.29543  0.07737  1.0000
  C   C591      1.0  0.44950  0.27845  0.07301  1.0000
  H   H467      1.0  0.39635  0.28713  0.09097  1.0000
  H   H468      1.0  0.44667  0.30604  0.07591  1.0000
  H   H469      1.0  0.46431  0.27603  0.06796  1.0000
  H   H470      1.0  0.30697  0.38179  0.99726  1.0000
  H   H471      1.0  0.42333  0.26660  0.14023  1.0000
  C   C592      1.0  0.48652  0.30953  0.13549  1.0000
  C   C593      1.0  0.43232  0.38413  0.01849  1.0000
  H   H472      1.0  0.33624  0.36879  0.00758  1.0000
  H   H473      1.0  0.48324  0.38414  0.06036  1.0000
  C   C594      1.0  0.42473  0.36867  0.02402  1.0000
  C   C595      1.0  0.36060  0.38272  0.03649  1.0000
  H   H474      1.0  0.38808  0.29971  0.05780  1.0000
  H   H475      1.0  0.32528  0.43941  0.02945  1.0000
  H   H476      1.0  0.45174  0.34578  0.14565  1.0000
  Fe  Fe34      1.0  0.32208  0.44790  0.12874  1.0000
  C   C596      1.0  0.27171  0.44606  0.01805  1.0000
  C   C597      1.0  0.37373  0.36397  0.00535  1.0000
  H   H477      1.0  0.48354  0.35638  0.10837  1.0000
  H   H478      1.0  0.38111  0.35738  0.07177  1.0000
  S   S74       1.0  0.31873  0.44081  0.06728  1.0000
  C   C598      1.0  0.46524  0.31861  0.03297  1.0000
  C   C599      1.0  0.26600  0.45776  0.00253  1.0000
  H   H479      1.0  0.45799  0.41483  0.04028  1.0000
  C   C600      1.0  0.37107  0.36739  0.06472  1.0000
  C   C601      1.0  0.47749  0.31778  0.04359  1.0000
  C   C602      1.0  0.44028  0.38993  0.99995  1.0000
  H   H480      1.0  0.23275  0.45549  0.05032  1.0000
  C   C603      1.0  0.46628  0.26542  0.14485  1.0000
  C   C604      1.0  0.44951  0.26026  0.14802  1.0000
  C   C605      1.0  0.43630  0.27058  0.13789  1.0000
  C   C606      1.0  0.43990  0.28597  0.12448  1.0000
  C   C607      1.0  0.45672  0.29103  0.12111  1.0000
  C   C608      1.0  0.31877  0.42127  0.99518  1.0000
  H   H481      1.0  0.45985  0.24519  0.10559  1.0000
  C   C609      1.0  0.40055  0.41892  0.99986  1.0000
  H   H482      1.0  0.44607  0.40194  0.99562  1.0000
  H   H483      1.0  0.48175  0.37952  0.99741  1.0000
  H   H484      1.0  0.42961  0.29407  0.11671  1.0000
  H   H485      1.0  0.45938  0.30288  0.11043  1.0000
  H   H486      1.0  0.48618  0.27690  0.09642  1.0000
  C   C610      1.0  0.06261  0.46281  0.29997  1.0000
  H   H487      1.0  0.02289  0.44426  0.29849  1.0000
  C   C611      1.0  0.33494  0.46373  0.01391  1.0000
  C   C612      1.0  0.46881  0.28302  0.00270  1.0000
  C   C613      1.0  0.36990  0.34780  0.01760  1.0000
  C   C614      1.0  0.37755  0.44001  0.03761  1.0000
  C   C615      1.0  0.32764  0.45524  0.04711  1.0000
  C   C616      1.0  0.12633  0.46699  0.25560  1.0000
  C   C617      1.0  0.40147  0.27849  0.04254  1.0000
  P   P21       1.0  0.36392  0.38576  0.01199  1.0000
  H   H488      1.0  0.43269  0.45474  0.08546  1.0000
  C   C618      1.0  0.46542  0.33691  0.14424  1.0000
  H   H489      1.0  0.36124  0.34815  0.03114  1.0000
  C   C619      1.0  0.33308  0.47064  0.04790  1.0000
  H   H490      1.0  0.47718  0.35430  0.15283  1.0000
  H   H491      1.0  0.36288  0.47999  0.12304  1.0000
  C   C620      1.0  0.24816  0.46871  0.00418  1.0000
  C   C621      1.0  0.46722  0.32896  0.01503  1.0000
  H   H492      1.0  0.48250  0.34642  0.99386  1.0000
  C   C622      1.0  0.20046  0.47759  0.06120  1.0000
  C   C623      1.0  0.25954  0.44522  0.03517  1.0000
  H   H493      1.0  0.36986  0.48240  0.06049  1.0000
  H   H494      1.0  0.38997  0.39984  0.02334  1.0000
  H   H495      1.0  0.45734  0.31759  0.13508  1.0000
  C   C624      1.0  0.45630  0.25197  0.00333  1.0000
  C   C625      1.0  0.31485  0.39078  0.99841  1.0000
  H   H496      1.0  0.12015  0.44315  0.13600  1.0000
  C   C626      1.0  0.37355  0.46876  0.11855  1.0000
  C   C627      1.0  0.41652  0.27244  0.02908  1.0000
  C   C628      1.0  0.33150  0.38346  0.00422  1.0000
  H   H497      1.0  0.13218  0.47107  0.12189  1.0000
  H   H498      1.0  0.37630  0.48181  0.09027  1.0000
  H   H499      1.0  0.40902  0.42224  0.00698  1.0000
  H   H500      1.0  0.39746  0.42665  0.13528  1.0000
  C   C629      1.0  0.18915  0.47121  0.07786  1.0000
  C   C630      1.0  0.06725  0.46062  0.28187  1.0000
  C   C631      1.0  0.47482  0.27798  0.01924  1.0000
  C   C632      1.0  0.37880  0.40156  0.00001  1.0000
  H   H501      1.0  0.37619  0.44382  0.02347  1.0000
  C   C633      1.0  0.33531  0.41402  0.00112  1.0000
  H   H502      1.0  0.28401  0.46537  0.03855  1.0000
  H   H503      1.0  0.34305  0.42329  0.00199  1.0000
  H   H504      1.0  0.44860  0.24452  0.03289  1.0000
  C   C634      1.0  0.46990  0.28106  0.13155  1.0000
  H   H505      1.0  0.16614  0.45835  0.09110  1.0000
  C   C635      1.0  0.42762  0.29977  0.02486  1.0000
  H   H506      1.0  0.27554  0.45880  0.98928  1.0000
  H   H507      1.0  0.17316  0.45934  0.24165  1.0000
  H   H508      1.0  0.47831  0.41904  0.05792  1.0000
  H   H509      1.0  0.47597  0.30991  0.05752  1.0000
  H   H510      1.0  0.37323  0.45225  0.14581  1.0000
  C   C636      1.0  0.48114  0.33881  0.00789  1.0000
  C   C637      1.0  0.42093  0.26807  0.08143  1.0000
  C   C638      1.0  0.37940  0.45322  0.13133  1.0000
  C   C639      1.0  0.36816  0.42726  0.05015  1.0000
  C   C640      1.0  0.09503  0.45385  0.12603  1.0000
  C   C641      1.0  0.34204  0.39505  0.00525  1.0000
  C   C642      1.0  0.28411  0.47967  0.03608  1.0000
  Fe  Fe35      1.0  0.31508  0.45368  0.09095  1.0000
  H   H511      1.0  0.40963  0.42743  0.10235  1.0000
  H   H512      1.0  0.28599  0.46836  0.18078  1.0000
  C   C643      1.0  0.36936  0.42270  0.06852  1.0000
  H   H513      1.0  0.45796  0.32945  0.00659  1.0000
  C   C644      1.0  0.46875  0.32088  0.13795  1.0000
  H   H514      1.0  0.43728  0.30844  0.01771  1.0000
  C   C645      1.0  0.38929  0.44393  0.06195  1.0000
  C   C646      1.0  0.37993  0.43096  0.07441  1.0000
  P   P22       1.0  0.40249  0.45519  0.06945  1.0000
  C   C647      1.0  0.42655  0.44380  0.06559  1.0000
  C   C648      1.0  0.39955  0.29513  0.04717  1.0000
  H   H515      1.0  0.41120  0.31858  0.04207  1.0000
  H   H516      1.0  0.47635  0.25708  0.15268  1.0000
  C   C649      1.0  0.42990  0.28290  0.02041  1.0000
  C   C650      1.0  0.01276  0.47238  0.28645  1.0000
  C   C651      1.0  0.20866  0.47086  0.99463  1.0000
  C   C652      1.0  0.43814  0.44618  0.07545  1.0000
  C   C653      1.0  0.45677  0.43730  0.07265  1.0000
  C   C654      1.0  0.46398  0.42611  0.05989  1.0000
  C   C655      1.0  0.45257  0.42382  0.04991  1.0000
  C   C656      1.0  0.43392  0.43266  0.05271  1.0000
  C   C657      1.0  0.39396  0.45480  0.09369  1.0000
  C   C658      1.0  0.39991  0.43929  0.10665  1.0000
  C   C659      1.0  0.39290  0.43869  0.12538  1.0000
  C   C660      1.0  0.11214  0.45476  0.12810  1.0000
  H   H517      1.0  0.14793  0.44260  0.25566  1.0000
  C   C661      1.0  0.38102  0.46965  0.09983  1.0000
  H   H518      1.0  0.36172  0.41311  0.07830  1.0000
  H   H519      1.0  0.48314  0.36422  0.04083  1.0000
  C   C662      1.0  0.38970  0.40612  0.00913  1.0000
  H   H520      1.0  0.37461  0.31853  0.02205  1.0000
  H   H521      1.0  0.38037  0.42750  0.08874  1.0000
  H   H522      1.0  0.39140  0.27021  0.04952  1.0000
  H   H523      1.0  0.16119  0.45521  0.06195  1.0000
  C   C663      1.0  0.17224  0.46135  0.06175  1.0000
  H   H524      1.0  0.41358  0.25763  0.08288  1.0000
  P   P23       1.0  0.44855  0.27624  0.00196  1.0000
  H   H525      1.0  0.26409  0.43633  0.04725  1.0000
  C   C664      1.0  0.07794  0.47163  0.26823  1.0000
  H   H526      1.0  0.41908  0.34715  0.01541  1.0000
  C   C665      1.0  0.34497  0.39281  0.04654  1.0000
  H   H527      1.0  0.48958  0.27685  0.16696  1.0000
  C   C666      1.0  0.42506  0.35905  0.01108  1.0000
  H   H528      1.0  0.46682  0.27102  0.03166  1.0000
  C   C667      1.0  0.49143  0.28152  0.01981  1.0000
  C   C668      1.0  0.38827  0.44817  0.04341  1.0000
  S   S75       1.0  0.33907  0.45553  0.10058  1.0000
  H   H529      1.0  0.38609  0.36250  0.03820  1.0000
  H   H530      1.0  0.33480  0.40289  0.03979  1.0000
  H   H531      1.0  0.18156  0.46573  0.03251  1.0000
  H   H532      1.0  0.35952  0.42133  0.04570  1.0000
  C   C669      1.0  0.24171  0.45621  0.03685  1.0000
  H   H533      1.0  0.39548  0.45800  0.03347  1.0000
  H   H534      1.0  0.39410  0.31713  0.99091  1.0000
  H   H535      1.0  0.19140  0.47269  0.09049  1.0000
  C   C670      1.0  0.49134  0.32768  0.03652  1.0000
  C   C671      1.0  0.41263  0.30575  0.03835  1.0000
  C   C672      1.0  0.17499  0.46314  0.07816  1.0000
  H   H536      1.0  0.41764  0.25971  0.02541  1.0000
  C   C673      1.0  0.30858  0.40969  0.99371  1.0000
  H   H537      1.0  0.06254  0.45040  0.27840  1.0000
  H   H538      1.0  0.11559  0.45937  0.26163  1.0000
  C   C674      1.0  0.19805  0.47548  0.04470  1.0000
  H   H539      1.0  0.24409  0.47799  0.99210  1.0000
  C   C675      1.0  0.45481  0.23966  0.02033  1.0000
  C   C676      1.0  0.14471  0.45739  0.25221  1.0000
  H   H540      1.0  0.21911  0.45887  0.99824  1.0000
  S   S76       1.0  0.30837  0.47681  0.13115  1.0000
  C   C677      1.0  0.49473  0.38202  0.04887  1.0000
  H   H541      1.0  0.05434  0.45428  0.31052  1.0000
  C   C678      1.0  0.20311  0.48495  0.00435  1.0000
  C   C679      1.0  0.39956  0.47835  0.05621  1.0000
  H   H542      1.0  0.25600  0.47481  0.17192  1.0000
  C   C680      1.0  0.49302  0.33860  0.01881  1.0000
  P   P24       1.0  0.49116  0.28851  0.12765  1.0000
  C   C681      1.0  0.33910  0.47980  0.01472  1.0000
  C   C682      1.0  0.38814  0.33016  0.99489  1.0000
  H   H543      1.0  0.28566  0.43792  0.01696  1.0000
  C   C683      1.0  0.38451  0.36301  0.98770  1.0000
  Fe  Fe36      1.0  0.28688  0.47277  0.11897  1.0000
  H   H544      1.0  0.33640  0.46063  0.00082  1.0000
  C   C684      1.0  0.09142  0.48473  0.10784  1.0000
  C   C685      1.0  0.08469  0.46882  0.11588  1.0000
  C   C686      1.0  0.06857  0.47608  0.30441  1.0000
  H   H545      1.0  0.48983  0.45542  0.19625  1.0000
  S   S77       1.0  0.25643  0.48144  0.13054  1.0000
  C   C687      1.0  0.47974  0.34170  0.14828  1.0000
  Fe  Fe37      1.0  0.32365  0.48420  0.10207  1.0000
  H   H546      1.0  0.33268  0.47323  0.06097  1.0000
  C   C688      1.0  0.15893  0.46681  0.24433  1.0000
  C   C689      1.0  0.47964  0.29167  0.98677  1.0000
  S   S78       1.0  0.45108  0.24388  0.06832  1.0000
  H   H547      1.0  0.44682  0.24812  0.15816  1.0000
  H   H548      1.0  0.07142  0.46814  0.11428  1.0000
  H   H549      1.0  0.21123  0.48404  0.06120  1.0000
  C   C690      1.0  0.10853  0.48580  0.11000  1.0000
  H   H550      1.0  0.28608  0.47784  0.06344  1.0000
  C   C691      1.0  0.44070  0.38022  0.98700  1.0000
  S   S79       1.0  0.48792  0.33871  0.07837  1.0000
  H   H551      1.0  0.42866  0.47878  0.04862  1.0000
  H   H552      1.0  0.29597  0.41539  0.98872  1.0000
  H   H553      1.0  0.31421  0.43591  0.99114  1.0000
  H   H554      1.0  0.03948  0.48503  0.99246  1.0000
  C   C692      1.0  0.46561  0.24536  0.98735  1.0000
  C   C693      1.0  0.49484  0.37046  0.03789  1.0000
  H   H555      1.0  0.49462  0.41168  0.99653  1.0000
  H   H556      1.0  0.49407  0.43553  0.01227  1.0000
  C   C694      1.0  0.27943  0.48228  0.17541  1.0000
  H   H557      1.0  0.49610  0.27751  0.03256  1.0000
  C   C695      1.0  0.49621  0.29525  0.98742  1.0000
  C   C696      1.0  0.33883  0.48290  0.03170  1.0000
  S   S80       1.0  0.30092  0.48308  0.09005  1.0000
  H   H558      1.0  0.28160  0.48557  0.00809  1.0000
  C   C697      1.0  0.49331  0.37818  0.98578  1.0000
  C   C698      1.0  0.26249  0.48592  0.17053  1.0000
  C   C699      1.0  0.08402  0.48501  0.27257  1.0000
  C   C700      1.0  0.15479  0.48587  0.23982  1.0000
  S   S81       1.0  0.06296  0.45404  0.38817  1.0000
  C   C701      1.0  0.07535  0.28743  0.57952  1.0000
  C   C702      1.0  0.05754  0.32899  0.53810  1.0000
  C   C703      1.0  0.07421  0.27571  0.59682  1.0000
  C   C704      1.0  0.01629  0.47950  0.63741  1.0000
  S   S82       1.0  0.03475  0.24893  0.54866  1.0000
  Fe  Fe38      1.0  0.00332  0.39546  0.46371  1.0000
  H   H559      1.0  0.07193  0.47824  0.40553  1.0000
  C   C705      1.0  0.08573  0.44251  0.48480  1.0000
  C   C706      1.0  0.06829  0.45990  0.43196  1.0000
  Fe  Fe39      1.0  0.01098  0.35403  0.47486  1.0000
  S   S83       1.0  0.02934  0.37401  0.46321  1.0000
  S   S84       1.0  0.01758  0.33007  0.46167  1.0000
  Fe  Fe40      1.0  0.02577  0.37534  0.49248  1.0000
  S   S85       1.0  0.05072  0.37439  0.50233  1.0000
  H   H560      1.0  0.01054  0.38969  0.34826  1.0000
  C   C707      1.0  0.99895  0.44320  0.48607  1.0000
  S   S86       1.0  0.00950  0.35346  0.50420  1.0000
  C   C708      1.0  0.09348  0.42259  0.51286  1.0000
  C   C709      1.0  0.02729  0.29003  0.59437  1.0000
  S   S87       1.0  0.03938  0.35817  0.62898  1.0000
  H   H561      1.0  0.12538  0.24490  0.52716  1.0000
  Fe  Fe41      1.0  0.06744  0.32543  0.59608  1.0000
  S   S88       1.0  0.03862  0.34084  0.59496  1.0000
  H   H562      1.0  0.03106  0.40534  0.38214  1.0000
  Fe  Fe42      1.0  0.04723  0.36457  0.59823  1.0000
  S   S89       1.0  0.03520  0.39111  0.58103  1.0000
  Fe  Fe43      1.0  0.03267  0.33330  0.62551  1.0000
  S   S90       1.0  0.06089  0.31569  0.62658  1.0000
  S   S91       1.0  0.07693  0.34998  0.59655  1.0000
  S   S92       1.0  0.08226  0.30812  0.57520  1.0000
  C   C710      1.0  0.04583  0.37939  0.52412  1.0000
  C   C711      1.0  0.05944  0.37277  0.53442  1.0000
  C   C712      1.0  0.05605  0.37627  0.55191  1.0000
  C   C713      1.0  0.03927  0.38715  0.55892  1.0000
  C   C714      1.0  0.02573  0.39431  0.54845  1.0000
  C   C715      1.0  0.02891  0.39019  0.53113  1.0000
  H   H563      1.0  0.07252  0.36459  0.52900  1.0000
  H   H564      1.0  0.06655  0.37065  0.55991  1.0000
  Fe  Fe44      1.0  0.05031  0.48350  0.37785  1.0000
  H   H565      1.0  0.01836  0.39544  0.52321  1.0000
  H   H566      1.0  0.10666  0.26052  0.56370  1.0000
  H   H567      1.0  0.14022  0.27066  0.52280  1.0000
  H   H568      1.0  0.03255  0.44517  0.44712  1.0000
  C   C716      1.0  0.09775  0.29493  0.51566  1.0000
  C   C717      1.0  0.03070  0.31645  0.53025  1.0000
  C   C718      1.0  0.05568  0.48008  0.60308  1.0000
  H   H569      1.0  0.99972  0.44477  0.34484  1.0000
  C   C719      1.0  0.07195  0.28213  0.56515  1.0000
  H   H570      1.0  0.06765  0.33369  0.54173  1.0000
  H   H571      1.0  0.07280  0.29114  0.55182  1.0000
  H   H572      1.0  0.01068  0.37703  0.43197  1.0000
  C   C720      1.0  0.05202  0.27688  0.48837  1.0000
  C   C721      1.0  0.05727  0.28460  0.46975  1.0000
  C   C722      1.0  0.04639  0.30072  0.46171  1.0000
  C   C723      1.0  0.03064  0.30976  0.47239  1.0000
  C   C724      1.0  0.02524  0.30211  0.49106  1.0000
  C   C725      1.0  0.03577  0.28543  0.49901  1.0000
  H   H573      1.0  0.06977  0.27802  0.46148  1.0000
  H   H574      1.0  0.05043  0.30643  0.44723  1.0000
  H   H575      1.0  0.01279  0.30888  0.49923  1.0000
  H   H576      1.0  0.03163  0.27948  0.51339  1.0000
  Fe  Fe45      1.0  0.05462  0.23959  0.52427  1.0000
  C   C726      1.0  0.09624  0.33497  0.51022  1.0000
  C   C727      1.0  0.03953  0.33159  0.54868  1.0000
  H   H577      1.0  0.00435  0.27920  0.48743  1.0000
  H   H578      1.0  0.05179  0.30770  0.50793  1.0000
  C   C728      1.0  0.10321  0.33289  0.52574  1.0000
  H   H579      1.0  0.02361  0.46473  0.39162  1.0000
  C   C729      1.0  0.09808  0.31056  0.47360  1.0000
  H   H580      1.0  0.07565  0.28245  0.51633  1.0000
  P   P25       1.0  0.05278  0.46307  0.62411  1.0000
  C   C730      1.0  0.10499  0.36431  0.49797  1.0000
  H   H581      1.0  0.10084  0.41917  0.52379  1.0000
  P   P26       1.0  0.01343  0.25843  0.64555  1.0000
  H   H582      1.0  0.11795  0.37255  0.51472  1.0000
  H   H583      1.0  0.05195  0.23770  0.64499  1.0000
  H   H584      1.0  0.10773  0.30402  0.44686  1.0000
  H   H585      1.0  0.04672  0.39898  0.64394  1.0000
  C   C731      1.0  0.06753  0.26517  0.56794  1.0000
  H   H586      1.0  0.08061  0.32433  0.43514  1.0000
  H   H587      1.0  0.00156  0.36172  0.60113  1.0000
  C   C732      1.0  0.04500  0.44360  0.40232  1.0000
  C   C733      1.0  0.04877  0.42695  0.41475  1.0000
  C   C734      1.0  0.03419  0.41924  0.42664  1.0000
  C   C735      1.0  0.01588  0.42816  0.42604  1.0000
  C   C736      1.0  0.01223  0.44451  0.41333  1.0000
  C   C737      1.0  0.02670  0.45218  0.40147  1.0000
  H   H588      1.0  0.06291  0.42021  0.41541  1.0000
  H   H589      1.0  0.03712  0.40658  0.43638  1.0000
  C   C738      1.0  0.08635  0.44080  0.63192  1.0000
  P   P27       1.0  0.06210  0.43642  0.46644  1.0000
  C   C739      1.0  0.03752  0.43809  0.47456  1.0000
  H   H590      1.0  0.01265  0.40259  0.55393  1.0000
  S   S93       1.0  0.06654  0.25690  0.49776  1.0000
  C   C740      1.0  0.06779  0.33372  0.46023  1.0000
  C   C741      1.0  0.02640  0.44308  0.46167  1.0000
  H   H591      1.0  0.04223  0.39737  0.61411  1.0000
  C   C742      1.0  0.08231  0.41136  0.51264  1.0000
  H   H592      1.0  0.00354  0.43593  0.51353  1.0000
  C   C743      1.0  0.02911  0.43573  0.49333  1.0000
  C   C744      1.0  0.07283  0.41762  0.45507  1.0000
  C   C745      1.0  0.09061  0.41680  0.44380  1.0000
  C   C746      1.0  0.09966  0.40156  0.43610  1.0000
  C   C747      1.0  0.09127  0.38680  0.44008  1.0000
  C   C748      1.0  0.07380  0.38733  0.45167  1.0000
  C   C749      1.0  0.06452  0.40273  0.45904  1.0000
  H   H593      1.0  0.09312  0.25107  0.52375  1.0000
  C   C750      1.0  0.01199  0.43972  0.35046  1.0000
  C   C751      1.0  0.06863  0.47702  0.42026  1.0000
  S   S94       1.0  0.00617  0.32545  0.64252  1.0000
  C   C752      1.0  0.00600  0.37688  0.42010  1.0000
  C   C753      1.0  0.04781  0.42741  0.63566  1.0000
  C   C754      1.0  0.02935  0.41757  0.37158  1.0000
  H   H594      1.0  0.03716  0.43207  0.50367  1.0000
  H   H595      1.0  0.09751  0.42791  0.44103  1.0000
  H   H596      1.0  0.11325  0.40113  0.42719  1.0000
  H   H597      1.0  0.09833  0.37488  0.43432  1.0000
  H   H598      1.0  0.06755  0.37568  0.45517  1.0000
  H   H599      1.0  0.05106  0.40279  0.46816  1.0000
  H   H600      1.0  0.06507  0.26118  0.55671  1.0000
  C   C755      1.0  0.04860  0.31416  0.51942  1.0000
  C   C756      1.0  0.07017  0.25856  0.59952  1.0000
  H   H601      1.0  0.07094  0.44821  0.42593  1.0000
  H   H602      1.0  0.05531  0.42292  0.37154  1.0000
  H   H603      1.0  0.02028  0.31192  0.52691  1.0000
  C   C757      1.0  0.09709  0.35086  0.49639  1.0000
  H   H604      1.0  0.03321  0.28653  0.62053  1.0000
  C   C758      1.0  0.01353  0.27061  0.62211  1.0000
  C   C759      1.0  0.04333  0.42741  0.36544  1.0000
  C   C760      1.0  0.11210  0.36201  0.51336  1.0000
  P   P28       1.0  0.08516  0.31801  0.50866  1.0000
  C   C761      1.0  0.09679  0.46902  0.63953  1.0000
  C   C762      1.0  0.06217  0.32056  0.52313  1.0000
  H   H605      1.0  0.10428  0.44658  0.49884  1.0000
  C   C763      1.0  0.07441  0.45813  0.63105  1.0000
  C   C764      1.0  0.00343  0.26631  0.61197  1.0000
  C   C765      1.0  0.00990  0.43817  0.49903  1.0000
  H   H606      1.0  0.01032  0.32336  0.60454  1.0000
  C   C766      1.0  0.11671  0.25007  0.57027  1.0000
  C   C767      1.0  0.03380  0.47159  0.64142  1.0000
  H   H607      1.0  0.02421  0.46236  0.33441  1.0000
  C   C768      1.0  0.04355  0.41009  0.61618  1.0000
  H   H608      1.0  0.01209  0.32769  0.55281  1.0000
  C   C769      1.0  0.12621  0.25466  0.58064  1.0000
  H   H609      1.0  0.00091  0.38516  0.32226  1.0000
  H   H610      1.0  0.02713  0.25100  0.48191  1.0000
  C   C770      1.0  0.04810  0.44275  0.62111  1.0000
  C   C771      1.0  0.07396  0.43161  0.48485  1.0000
  C   C772      1.0  0.11117  0.34631  0.52726  1.0000
  C   C773      1.0  0.08176  0.32354  0.44893  1.0000
  C   C774      1.0  0.04285  0.42555  0.60195  1.0000
  C   C775      1.0  0.04499  0.44189  0.60441  1.0000
  H   H611      1.0  0.12335  0.26867  0.58212  1.0000
  C   C776      1.0  0.11621  0.29132  0.51712  1.0000
  C   C777      1.0  0.06892  0.33245  0.47822  1.0000
  C   C778      1.0  0.08388  0.32048  0.48519  1.0000
  C   C779      1.0  0.00722  0.44561  0.46741  1.0000
  H   H612      1.0  0.99813  0.45141  0.41274  1.0000
  H   H613      1.0  0.05795  0.34049  0.48678  1.0000
  H   H614      1.0  0.11191  0.42396  0.63857  1.0000
  C   C780      1.0  0.02589  0.44963  0.34447  1.0000
  S   S95       1.0  0.99714  0.41955  0.44103  1.0000
  H   H615      1.0  0.06447  0.40666  0.49842  1.0000
  C   C781      1.0  0.11776  0.25881  0.52393  1.0000
  C   C782      1.0  0.09956  0.26226  0.52214  1.0000
  C   C783      1.0  0.06391  0.45821  0.45106  1.0000
  H   H616      1.0  0.01401  0.48019  0.62407  1.0000
  H   H617      1.0  0.08101  0.39923  0.52336  1.0000
  H   H618      1.0  0.03647  0.29930  0.58756  1.0000
  C   C784      1.0  0.05893  0.47403  0.45821  1.0000
  H   H619      1.0  0.04080  0.42471  0.58896  1.0000
  H   H620      1.0  0.04430  0.45367  0.59321  1.0000
  C   C785      1.0  0.08961  0.28020  0.51798  1.0000
  H   H621      1.0  0.08780  0.45423  0.47384  1.0000
  H   H622      1.0  0.07599  0.46123  0.58775  1.0000
  S   S96       1.0  0.00128  0.39870  0.49199  1.0000
  C   C786      1.0  0.00355  0.39273  0.40647  1.0000
  C   C787      1.0  0.04148  0.44355  0.35211  1.0000
  C   C788      1.0  0.06679  0.25328  0.58511  1.0000
  C   C789      1.0  0.09531  0.43808  0.49886  1.0000
  H   H623      1.0  0.00480  0.43002  0.61983  1.0000
  H   H624      1.0  0.05578  0.34216  0.45518  1.0000
  H   H625      1.0  0.10202  0.32109  0.53693  1.0000
  H   H626      1.0  0.01971  0.29053  0.56967  1.0000
  H   H627      1.0  0.03600  0.33870  0.55974  1.0000
  H   H628      1.0  0.11616  0.34470  0.53947  1.0000
  H   H629      1.0  0.08154  0.48461  0.55932  1.0000
  C   C790      1.0  0.02609  0.32536  0.54476  1.0000
  H   H630      1.0  0.09108  0.35322  0.48469  1.0000
  H   H631      1.0  0.06977  0.24933  0.61274  1.0000
  H   H632      1.0  0.10511  0.37672  0.48747  1.0000
  H   H633      1.0  0.05200  0.45150  0.34804  1.0000
  C   C791      1.0  0.02529  0.28277  0.61319  1.0000
  H   H634      1.0  0.07693  0.27967  0.60795  1.0000
  C   C792      1.0  0.12608  0.27333  0.52148  1.0000
  C   C793      1.0  0.01767  0.28522  0.58430  1.0000
  C   C794      1.0  0.01333  0.42394  0.36444  1.0000
  H   H635      1.0  0.08290  0.42971  0.62869  1.0000
  H   H636      1.0  0.12318  0.30229  0.51460  1.0000
  H   H637      1.0  0.10988  0.30143  0.47854  1.0000
  Fe  Fe46      1.0  0.06832  0.34142  0.62726  1.0000
  C   C795      1.0  0.00017  0.26625  0.49246  1.0000
  C   C796      1.0  0.07279  0.41571  0.49858  1.0000
  C   C797      1.0  0.09697  0.31205  0.45557  1.0000
  C   C798      1.0  0.04980  0.24978  0.65023  1.0000
  C   C799      1.0  0.01308  0.25030  0.48916  1.0000
  H   H638      1.0  0.99882  0.44919  0.45733  1.0000
  C   C800      1.0  0.06841  0.47523  0.58742  1.0000
  C   C801      1.0  0.04594  0.41105  0.63303  1.0000
  H   H639      1.0  0.00400  0.34872  0.42921  1.0000
  H   H640      1.0  0.14639  0.24473  0.59739  1.0000
  C   C802      1.0  0.07988  0.47227  0.63468  1.0000
  H   H641      1.0  0.00530  0.28523  0.54843  1.0000
  H   H642      1.0  0.12093  0.44897  0.64572  1.0000
  C   C803      1.0  0.99745  0.39277  0.39103  1.0000
  C   C804      1.0  0.00209  0.36099  0.41860  1.0000
  C   C805      1.0  0.00560  0.27351  0.59311  1.0000
  H   H643      1.0  0.99726  0.27337  0.52628  1.0000
  C   C806      1.0  0.99762  0.39777  0.34478  1.0000
  H   H644      1.0  0.00605  0.40510  0.40816  1.0000
  H   H645      1.0  0.05457  0.47312  0.47288  1.0000
  C   C807      1.0  0.10307  0.43751  0.63722  1.0000
  H   H646      1.0  0.10076  0.47988  0.64272  1.0000
  C   C808      1.0  0.10823  0.45159  0.64112  1.0000
  H   H647      1.0  0.99822  0.26971  0.58527  1.0000
  S   S97       1.0  0.08848  0.33685  0.64511  1.0000
  C   C809      1.0  0.13911  0.24116  0.58925  1.0000
  H   H648      1.0  0.04964  0.42791  0.64887  1.0000
  H   H649      1.0  0.07100  0.48579  0.63400  1.0000
  H   H650      1.0  0.06478  0.47802  0.31839  1.0000
  Fe  Fe47      1.0  0.43149  0.39220  0.91385  1.0000
  C   C810      1.0  0.03203  0.35999  0.75498  1.0000
  S   S98       1.0  0.41413  0.41894  0.90257  1.0000
  Fe  Fe48      1.0  0.44861  0.35291  0.91008  1.0000
  S   S99       1.0  0.09743  0.37642  0.70253  1.0000
  S   S100      1.0  0.45074  0.33119  0.89488  1.0000
  Fe  Fe49      1.0  0.44118  0.36380  0.94676  1.0000
  H   H651      1.0  0.47551  0.29539  0.97379  1.0000
  S   S101      1.0  0.42272  0.36578  0.92805  1.0000
  H   H652      1.0  0.00415  0.25191  0.68539  1.0000
  C   C811      1.0  0.05037  0.36159  0.75077  1.0000
  Fe  Fe50      1.0  0.06000  0.42910  0.73386  1.0000
  S   S102      1.0  0.05020  0.45161  0.71146  1.0000
  S   S103      1.0  0.05030  0.43517  0.76235  1.0000
  Fe  Fe51      1.0  0.08036  0.40398  0.70670  1.0000
  S   S104      1.0  0.07298  0.42531  0.68252  1.0000
  Fe  Fe52      1.0  0.07924  0.44452  0.69570  1.0000
  Fe  Fe53      1.0  0.04491  0.42972  0.70119  1.0000
  S   S105      1.0  0.02029  0.43258  0.68956  1.0000
  S   S106      1.0  0.08926  0.42261  0.71845  1.0000
  S   S107      1.0  0.05216  0.40760  0.72503  1.0000
  C   C812      1.0  0.99824  0.46786  0.81647  1.0000
  S   S108      1.0  0.45576  0.37964  0.89425  1.0000
  C   C813      1.0  0.00294  0.43279  0.81101  1.0000
  H   H653      1.0  0.05052  0.35837  0.79628  1.0000
  C   C814      1.0  0.05801  0.30673  0.71834  1.0000
  C   C815      1.0  0.00445  0.48591  0.66784  1.0000
  H   H654      1.0  0.20572  0.46173  0.97197  1.0000
  Fe  Fe54      1.0  0.32652  0.46965  0.95123  1.0000
  H   H655      1.0  0.02360  0.47600  0.68574  1.0000
  S   S109      1.0  0.31146  0.47563  0.97869  1.0000
  H   H656      1.0  0.14096  0.43021  0.72390  1.0000
  C   C816      1.0  0.00966  0.47220  0.86693  1.0000
  C   C817      1.0  0.11216  0.47212  0.72260  1.0000
  H   H657      1.0  0.06549  0.37043  0.65768  1.0000
  H   H658      1.0  0.38983  0.45327  0.90580  1.0000
  P   P29       1.0  0.03037  0.33802  0.71314  1.0000
  H   H659      1.0  0.42999  0.32946  0.95422  1.0000
  H   H660      1.0  0.43146  0.26366  0.97949  1.0000
  C   C818      1.0  0.36514  0.44754  0.92533  1.0000
  C   C819      1.0  0.46591  0.27587  0.90686  1.0000
  C   C820      1.0  0.03624  0.47018  0.65902  1.0000
  H   H661      1.0  0.01517  0.45882  0.87440  1.0000
  H   H662      1.0  0.00166  0.36327  0.65962  1.0000
  H   H663      1.0  0.12725  0.47628  0.92862  1.0000
  H   H664      1.0  0.02387  0.38438  0.89916  1.0000
  C   C821      1.0  0.06298  0.44630  0.76999  1.0000
  C   C822      1.0  0.08158  0.44613  0.76196  1.0000
  C   C823      1.0  0.09174  0.45374  0.76927  1.0000
  C   C824      1.0  0.08331  0.46208  0.78431  1.0000
  C   C825      1.0  0.40078  0.42710  0.98142  1.0000
  C   C826      1.0  0.05445  0.45479  0.78494  1.0000
  H   H665      1.0  0.08833  0.43956  0.75053  1.0000
  C   C827      1.0  0.03933  0.36571  0.82265  1.0000
  C   C828      1.0  0.28678  0.44734  0.94589  1.0000
  C   C829      1.0  0.99724  0.40010  0.89451  1.0000
  C   C830      1.0  0.42270  0.30562  0.95194  1.0000
  C   C831      1.0  0.06446  0.46298  0.79187  1.0000
  H   H666      1.0  0.49206  0.27139  0.86700  1.0000
  H   H667      1.0  0.41776  0.27960  0.95270  1.0000
  H   H668      1.0  0.44702  0.38460  0.97277  1.0000
  H   H669      1.0  0.31868  0.44816  0.83316  1.0000
  H   H670      1.0  0.09165  0.42627  0.81189  1.0000
  H   H671      1.0  0.02017  0.40274  0.72201  1.0000
  C   C832      1.0  0.04672  0.38721  0.79411  1.0000
  C   C833      1.0  0.01019  0.31060  0.72974  1.0000
  C   C834      1.0  0.07286  0.29300  0.71263  1.0000
  H   H672      1.0  0.10632  0.45290  0.76340  1.0000
  H   H673      1.0  0.06930  0.38623  0.68008  1.0000
  C   C835      1.0  0.38998  0.42265  0.97225  1.0000
  C   C836      1.0  0.39207  0.42441  0.91630  1.0000
  C   C837      1.0  0.38321  0.41081  0.92809  1.0000
  C   C838      1.0  0.36514  0.41562  0.93824  1.0000
  H   H674      1.0  0.39009  0.42899  0.95793  1.0000
  C   C839      1.0  0.03363  0.37989  0.83218  1.0000
  H   H675      1.0  0.39010  0.39662  0.92907  1.0000
  H   H676      1.0  0.35818  0.40511  0.94716  1.0000
  C   C840      1.0  0.99644  0.41651  0.86328  1.0000
  C   C841      1.0  0.11878  0.45387  0.72125  1.0000
  H   H677      1.0  0.07995  0.28300  0.72256  1.0000
  H   H678      1.0  0.05789  0.46908  0.80366  1.0000
  C   C842      1.0  0.30800  0.45787  0.85832  1.0000
  C   C843      1.0  0.35073  0.45786  0.88676  1.0000
  H   H679      1.0  0.09063  0.28210  0.68952  1.0000
  H   H680      1.0  0.30990  0.45299  0.92422  1.0000
  C   C844      1.0  0.07886  0.29245  0.69405  1.0000
  C   C845      1.0  0.45835  0.30851  0.90610  1.0000
  C   C846      1.0  0.46201  0.30467  0.92353  1.0000
  C   C847      1.0  0.46690  0.28658  0.93290  1.0000
  H   H681      1.0  0.46048  0.31560  0.93012  1.0000
  H   H682      1.0  0.46899  0.28378  0.94667  1.0000
  C   C848      1.0  0.02409  0.35569  0.69402  1.0000
  C   C849      1.0  0.14685  0.45330  0.72961  1.0000
  H   H683      1.0  0.01734  0.28759  0.65993  1.0000
  H   H684      1.0  0.37052  0.40692  0.97425  1.0000
  C   C850      1.0  0.01267  0.43556  0.82251  1.0000
  H   H685      1.0  0.10787  0.47719  0.90759  1.0000
  H   H686      1.0  0.16032  0.44604  0.73221  1.0000
  H   H687      1.0  0.05194  0.39027  0.77938  1.0000
  C   C851      1.0  0.00774  0.40509  0.71733  1.0000
  H   H688      1.0  0.47856  0.39866  0.96688  1.0000
  C   C852      1.0  0.02231  0.38670  0.67619  1.0000
  H   H689      1.0  0.45749  0.29692  0.88424  1.0000
  S   S110      1.0  0.07457  0.48529  0.84296  1.0000
  H   H690      1.0  0.99703  0.38436  0.73913  1.0000
  H   H691      1.0  0.06568  0.41437  0.81123  1.0000
  H   H692      1.0  0.24239  0.45636  0.94142  1.0000
  H   H693      1.0  0.41693  0.31259  0.93999  1.0000
  C   C853      1.0  0.01449  0.35234  0.68277  1.0000
  H   H694      1.0  0.46724  0.26474  0.90046  1.0000
  H   H695      1.0  0.07493  0.30547  0.66673  1.0000
  H   H696      1.0  0.11057  0.44719  0.71710  1.0000
  H   H697      1.0  0.08885  0.44333  0.83540  1.0000
  C   C854      1.0  0.25719  0.45527  0.93755  1.0000
  C   C855      1.0  0.07878  0.37362  0.67754  1.0000
  S   S111      1.0  0.44777  0.39132  0.93407  1.0000
  H   H698      1.0  0.25707  0.46741  0.90923  1.0000
  H   H699      1.0  0.30121  0.42353  0.84348  1.0000
  H   H700      1.0  0.03546  0.37597  0.69897  1.0000
  H   H701      1.0  0.07821  0.24439  0.65207  1.0000
  S   S112      1.0  0.09688  0.46530  0.68345  1.0000
  H   H702      1.0  0.31581  0.46849  0.85366  1.0000
  H   H703      1.0  0.05369  0.30718  0.73274  1.0000
  C   C856      1.0  0.00360  0.47901  0.73585  1.0000
  C   C857      1.0  0.05640  0.34888  0.72398  1.0000
  H   H704      1.0  0.06599  0.34505  0.71180  1.0000
  C   C858      1.0  0.02590  0.35261  0.74384  1.0000
  C   C859      1.0  0.06998  0.30559  0.68120  1.0000
  H   H705      1.0  0.06046  0.48060  0.67633  1.0000
  H   H706      1.0  0.49538  0.31650  0.94073  1.0000
  C   C860      1.0  0.14042  0.47167  0.73068  1.0000
  C   C861      1.0  0.01618  0.39319  0.88910  1.0000
  C   C862      1.0  0.28838  0.43007  0.86998  1.0000
  C   C863      1.0  0.04622  0.43344  0.84869  1.0000
  S   S113      1.0  0.09732  0.46936  0.79429  1.0000
  C   C864      1.0  0.46892  0.27216  0.92459  1.0000
  S   S114      1.0  0.46619  0.34872  0.92996  1.0000
  H   H707      1.0  0.47379  0.35541  0.85418  1.0000
  C   C865      1.0  0.02033  0.48551  0.86060  1.0000
  C   C866      1.0  0.29984  0.43250  0.85248  1.0000
  C   C867      1.0  0.43016  0.31513  0.95988  1.0000
  H   H708      1.0  0.03353  0.43588  0.85885  1.0000
  H   H709      1.0  0.03406  0.48237  0.86314  1.0000
  S   S115      1.0  0.47339  0.24971  0.93737  1.0000
  C   C868      1.0  0.05519  0.31940  0.68682  1.0000
  C   C869      1.0  0.02530  0.39805  0.87082  1.0000
  H   H710      1.0  0.27797  0.43916  0.89524  1.0000
  C   C870      1.0  0.13600  0.44439  0.72493  1.0000
  C   C871      1.0  0.46033  0.29405  0.89774  1.0000
  C   C872      1.0  0.29521  0.45359  0.92764  1.0000
  C   C873      1.0  0.10536  0.34971  0.68361  1.0000
  C   C874      1.0  0.02808  0.37295  0.69056  1.0000
  H   H711      1.0  0.02281  0.30074  0.72622  1.0000
  C   C875      1.0  0.03450  0.39785  0.82268  1.0000
  C   C876      1.0  0.26778  0.44826  0.95087  1.0000
  H   H712      1.0  0.11294  0.32848  0.66851  1.0000
  H   H713      1.0  0.29504  0.44198  0.95619  1.0000
  C   C877      1.0  0.33255  0.45662  0.88874  1.0000
  C   C878      1.0  0.09339  0.36615  0.68677  1.0000
  H   H714      1.0  0.02857  0.37674  0.84685  1.0000
  C   C879      1.0  0.04099  0.40132  0.80363  1.0000
  C   C880      1.0  0.01547  0.40971  0.85776  1.0000
  C   C881      1.0  0.01619  0.47542  0.74711  1.0000
  C   C882      1.0  0.38300  0.44275  0.91493  1.0000
  C   C883      1.0  0.35618  0.43402  0.93697  1.0000
  C   C884      1.0  0.29648  0.45556  0.87593  1.0000
  C   C885      1.0  0.04753  0.42403  0.83517  1.0000
  C   C886      1.0  0.04900  0.31999  0.70548  1.0000
  C   C887      1.0  0.06256  0.35584  0.73542  1.0000
  P   P30       1.0  0.02759  0.41657  0.83441  1.0000
  H   H715      1.0  0.14928  0.47853  0.73371  1.0000
  H   H716      1.0  0.05978  0.44798  0.85901  1.0000
  S   S116      1.0  0.43379  0.35188  0.97699  1.0000
  C   C888      1.0  0.49171  0.36874  0.86020  1.0000
  S   S117      1.0  0.33377  0.44006  0.94984  1.0000
  H   H717      1.0  0.02523  0.40007  0.67374  1.0000
  H   H718      1.0  0.35813  0.46170  0.92390  1.0000
  H   H719      1.0  0.11657  0.34381  0.69070  1.0000
  C   C889      1.0  0.03040  0.27773  0.65874  1.0000
  H   H720      1.0  0.04909  0.32977  0.67643  1.0000
  C   C890      1.0  0.07659  0.36471  0.66489  1.0000
  C   C891      1.0  0.26557  0.46156  0.91930  1.0000
  H   H721      1.0  0.03874  0.35186  0.83003  1.0000
  C   C892      1.0  0.06417  0.42120  0.82209  1.0000
  Fe  Fe55      1.0  0.47133  0.37648  0.91563  1.0000
  C   C893      1.0  0.01003  0.45321  0.82533  1.0000
  C   C894      1.0  0.42329  0.28704  0.95904  1.0000
  H   H722      1.0  0.28089  0.41921  0.87455  1.0000
  C   C895      1.0  0.03804  0.34701  0.72820  1.0000
  H   H723      1.0  0.01556  0.44121  0.75266  1.0000
  C   C896      1.0  0.31820  0.47230  0.88893  1.0000
  H   H724      1.0  0.36173  0.44566  0.88697  1.0000
  H   H725      1.0  0.32971  0.44338  0.89035  1.0000
  H   H726      1.0  0.04014  0.45472  0.79140  1.0000
  H   H727      1.0  0.04168  0.41508  0.79621  1.0000
  C   C897      1.0  0.07908  0.42787  0.82244  1.0000
  C   C898      1.0  0.07749  0.43756  0.83568  1.0000
  C   C899      1.0  0.04592  0.36936  0.80363  1.0000
  H   H728      1.0  0.07678  0.35706  0.73220  1.0000
  H   H729      1.0  0.43616  0.23952  0.95611  1.0000
  C   C900      1.0  0.39147  0.34621  0.98247  1.0000
  C   C901      1.0  0.48641  0.35361  0.85864  1.0000
  C   C902      1.0  0.28672  0.44152  0.88170  1.0000
  C   C903      1.0  0.28464  0.46088  0.91422  1.0000
  C   C904      1.0  0.00386  0.43517  0.75553  1.0000
  H   H730      1.0  0.48885  0.36051  0.94493  1.0000
  C   C905      1.0  0.00646  0.41628  0.76187  1.0000
  H   H731      1.0  0.00827  0.39401  0.65400  1.0000
  C   C906      1.0  0.35470  0.47469  0.88514  1.0000
  H   H732      1.0  0.27144  0.24055  0.70281  1.0000
  C   C907      1.0  0.49150  0.38916  0.96858  1.0000
  C   C908      1.0  0.06109  0.44026  0.84887  1.0000
  H   H733      1.0  0.04006  0.39293  0.86686  1.0000
  H   H734      1.0  0.05518  0.36749  0.75920  1.0000
  H   H735      1.0  0.26125  0.44373  0.96507  1.0000
  C   C909      1.0  0.00984  0.32937  0.72510  1.0000
  H   H736      1.0  0.02305  0.48551  0.78150  1.0000
  C   C910      1.0  0.10328  0.34101  0.67102  1.0000
  H   H737      1.0  0.01675  0.45574  0.83459  1.0000
  H   H738      1.0  0.01987  0.40837  0.76420  1.0000
  C   C911      1.0  0.43143  0.27798  0.97402  1.0000
  H   H739      1.0  0.49222  0.32466  0.86255  1.0000
  H   H740      1.0  0.01358  0.46746  0.76099  1.0000
  C   C912      1.0  0.37898  0.41001  0.98152  1.0000
  C   C913      1.0  0.43952  0.28736  0.98166  1.0000
  H   H741      1.0  0.39996  0.34569  0.96888  1.0000
  H   H742      1.0  0.38786  0.37508  0.97791  1.0000
  C   C914      1.0  0.02165  0.47746  0.67210  1.0000
  H   H743      1.0  0.46775  0.25469  0.97416  1.0000
  H   H744      1.0  0.01167  0.35150  0.74747  1.0000
  H   H745      1.0  0.40937  0.43684  0.97420  1.0000
  C   C915      1.0  0.00457  0.41855  0.70175  1.0000
  H   H746      1.0  0.48330  0.38231  0.85676  1.0000
  H   H747      1.0  0.44378  0.31379  0.98095  1.0000
  H   H748      1.0  0.04363  0.29393  0.66720  1.0000
  H   H749      1.0  0.09887  0.47922  0.71940  1.0000
  C   C916      1.0  0.43835  0.30611  0.97480  1.0000
  H   H750      1.0  0.01130  0.33910  0.68512  1.0000
  C   C917      1.0  0.12280  0.48108  0.72765  1.0000
  H   H751      1.0  0.12413  0.48566  0.76301  1.0000
  C   C918      1.0  0.03247  0.26185  0.65250  1.0000
  C   C919      1.0  0.01271  0.38331  0.66510  1.0000
  C   C920      1.0  0.00893  0.36607  0.66831  1.0000
  H   H752      1.0  0.36875  0.47556  0.88405  1.0000
  H   H753      1.0  0.04269  0.47825  0.74871  1.0000
  H   H754      1.0  0.04924  0.46314  0.66287  1.0000
  C   C921      1.0  0.03253  0.48185  0.74037  1.0000
  C   C922      1.0  0.06256  0.26935  0.66050  1.0000
  C   C923      1.0  0.30966  0.44639  0.84666  1.0000
  C   C924      1.0  0.20090  0.47226  0.97989  1.0000
  C   C925      1.0  0.08911  0.34849  0.66143  1.0000
  P   P31       1.0  0.29494  0.47036  0.89085  1.0000
  H   H755      1.0  0.07426  0.27247  0.66318  1.0000
  C   C926      1.0  0.04534  0.28139  0.66283  1.0000
  C   C927      1.0  0.06477  0.25354  0.65423  1.0000
  H   H756      1.0  0.49577  0.29485  0.88061  1.0000
  H   H757      1.0  0.25713  0.24498  0.73454  1.0000
  H   H758      1.0  0.02253  0.36461  0.76680  1.0000
  H   H759      1.0  0.00404  0.41929  0.80910  1.0000
  C   C928      1.0  0.11369  0.48526  0.92944  1.0000
  C   C929      1.0  0.10276  0.48577  0.91762  1.0000
  Fe  Fe56      1.0  0.18066  0.58336  0.07957  1.0000
  S   S118      1.0  0.18820  0.55825  0.10056  1.0000
  S   S119      1.0  0.19674  0.60541  0.07075  1.0000
  Fe  Fe57      1.0  0.14963  0.57080  0.07324  1.0000
  S   S120      1.0  0.15414  0.54471  0.09412  1.0000
  Fe  Fe58      1.0  0.15763  0.56170  0.11142  1.0000
  S   S121      1.0  0.14671  0.55746  0.14200  1.0000
  Fe  Fe59      1.0  0.18416  0.54327  0.08171  1.0000
  S   S122      1.0  0.20381  0.51762  0.07486  1.0000
  S   S123      1.0  0.15028  0.58822  0.09181  1.0000
  S   S124      1.0  0.17940  0.56810  0.05941  1.0000
  C   C930      1.0  0.31616  0.54286  0.99706  1.0000
  C   C931      1.0  0.14063  0.51336  0.13783  1.0000
  S   S125      1.0  0.34193  0.50437  0.08975  1.0000
  Fe  Fe60      1.0  0.26869  0.61522  0.11120  1.0000
  S   S126      1.0  0.28874  0.59699  0.09320  1.0000
  S   S127      1.0  0.24132  0.60830  0.12618  1.0000
  Fe  Fe61      1.0  0.29443  0.64076  0.10437  1.0000
  S   S128      1.0  0.31665  0.62423  0.08656  1.0000
  S   S129      1.0  0.29886  0.66770  0.10568  1.0000
  Fe  Fe62      1.0  0.29413  0.62316  0.07426  1.0000
  S   S130      1.0  0.30164  0.62988  0.04367  1.0000
  Fe  Fe63      1.0  0.30924  0.59975  0.10721  1.0000
  S   S131      1.0  0.33239  0.57702  0.11554  1.0000
  S   S132      1.0  0.27207  0.64132  0.09078  1.0000
  S   S133      1.0  0.28896  0.61636  0.12659  1.0000
  Fe  Fe64      1.0  0.02089  0.65708  0.30777  1.0000
  S   S134      1.0  0.04646  0.66151  0.28654  1.0000
  H   H760      1.0  0.00082  0.60198  0.30272  1.0000
  S   S135      1.0  0.13582  0.54290  0.99010  1.0000
  H   H761      1.0  0.12705  0.48898  0.04018  1.0000
  Fe  Fe65      1.0  0.05603  0.66730  0.30870  1.0000
  S   S136      1.0  0.07131  0.69012  0.29909  1.0000
  Fe  Fe66      1.0  0.05821  0.63224  0.29783  1.0000
  S   S137      1.0  0.07586  0.61404  0.27848  1.0000
  C   C932      1.0  0.32448  0.68214  0.00598  1.0000
  H   H762      1.0  0.16123  0.72383  0.09796  1.0000
  H   H763      1.0  0.23468  0.65986  0.99821  1.0000
  H   H764      1.0  0.36052  0.70796  0.08328  1.0000
  C   C933      1.0  0.39401  0.59305  0.98708  1.0000
  H   H765      1.0  0.21261  0.57996  0.04912  1.0000
  H   H766      1.0  0.33962  0.60964  0.02046  1.0000
  S   S138      1.0  0.05174  0.56125  0.21474  1.0000
  H   H767      1.0  0.03134  0.59982  0.28172  1.0000
  Fe  Fe67      1.0  0.02633  0.54993  0.22913  1.0000
  H   H768      1.0  0.05025  0.51524  0.21890  1.0000
  Fe  Fe68      1.0  0.04376  0.56160  0.18889  1.0000
  S   S139      1.0  0.06238  0.55419  0.16270  1.0000
  H   H769      1.0  0.17069  0.61010  0.04978  1.0000
  Fe  Fe69      1.0  0.37415  0.69365  0.13001  1.0000
  S   S140      1.0  0.39173  0.69493  0.10163  1.0000
  S   S141      1.0  0.35980  0.67034  0.14397  1.0000
  Fe  Fe70      1.0  0.41264  0.70059  0.11320  1.0000
  S   S142      1.0  0.44263  0.68708  0.10488  1.0000
  C   C934      1.0  0.28312  0.49095  0.01889  1.0000
  S   S143      1.0  0.39584  0.69712  0.14204  1.0000
  H   H770      1.0  0.36036  0.60716  0.14890  1.0000
  C   C935      1.0  0.11724  0.55673  0.02014  1.0000
  C   C936      1.0  0.19113  0.63321  0.14341  1.0000
  C   C937      1.0  0.48063  0.62988  0.11600  1.0000
  C   C938      1.0  0.14380  0.61611  0.04388  1.0000
  H   H771      1.0  0.18735  0.61061  0.01778  1.0000
  C   C939      1.0  0.35611  0.64021  0.03981  1.0000
  H   H772      1.0  0.36587  0.51317  0.04093  1.0000
  C   C940      1.0  0.47236  0.69572  0.06153  1.0000
  C   C941      1.0  0.41513  0.72646  0.02685  1.0000
  C   C942      1.0  0.45606  0.68577  0.12035  1.0000
  C   C943      1.0  0.44777  0.68704  0.13852  1.0000
  C   C944      1.0  0.45856  0.68621  0.15067  1.0000
  C   C945      1.0  0.47763  0.68457  0.14460  1.0000
  C   C946      1.0  0.13066  0.49707  0.04744  1.0000
  C   C947      1.0  0.47527  0.68355  0.11443  1.0000
  H   H773      1.0  0.43308  0.68845  0.14331  1.0000
  H   H774      1.0  0.45211  0.68708  0.16475  1.0000
  H   H775      1.0  0.03696  0.50470  0.31473  1.0000
  H   H776      1.0  0.03303  0.70189  0.28454  1.0000
  C   C948      1.0  0.16257  0.61691  0.00722  1.0000
  C   C949      1.0  0.13023  0.56865  0.03834  1.0000
  H   H777      1.0  0.11457  0.53504  0.28894  1.0000
  H   H778      1.0  0.22251  0.54767  0.06454  1.0000
  C   C950      1.0  0.36943  0.55963  0.99438  1.0000
  C   C951      1.0  0.04495  0.53019  0.30119  1.0000
  C   C952      1.0  0.04444  0.54457  0.28581  1.0000
  C   C953      1.0  0.03068  0.52861  0.27225  1.0000
  C   C954      1.0  0.03013  0.51474  0.28814  1.0000
  C   C955      1.0  0.03704  0.51563  0.30270  1.0000
  C   C956      1.0  0.25581  0.57070  0.02308  1.0000
  S   S144      1.0  0.02551  0.58960  0.18695  1.0000
  C   C957      1.0  0.18879  0.49984  0.99980  1.0000
  C   C958      1.0  0.13643  0.49552  0.24322  1.0000
  H   H779      1.0  0.42557  0.69293  0.06085  1.0000
  C   C959      1.0  0.35182  0.58288  0.05970  1.0000
  C   C960      1.0  0.03734  0.54382  0.27132  1.0000
  C   C961      1.0  0.26164  0.55242  0.03160  1.0000
  C   C962      1.0  0.16221  0.64799  0.16960  1.0000
  H   H780      1.0  0.24663  0.53261  0.01116  1.0000
  C   C963      1.0  0.18076  0.50097  0.98536  1.0000
  C   C964      1.0  0.17008  0.72666  0.12083  1.0000
  H   H781      1.0  0.27714  0.69818  0.08044  1.0000
  C   C965      1.0  0.36543  0.56734  0.03447  1.0000
  C   C966      1.0  0.14719  0.56658  0.02555  1.0000
  C   C967      1.0  0.31364  0.53305  0.04415  1.0000
  H   H782      1.0  0.21816  0.55544  0.02047  1.0000
  C   C968      1.0  0.06473  0.61417  0.26151  1.0000
  C   C969      1.0  0.04846  0.62699  0.25895  1.0000
  C   C970      1.0  0.08473  0.53554  0.25599  1.0000
  C   C971      1.0  0.04682  0.61362  0.23476  1.0000
  C   C972      1.0  0.06301  0.60069  0.23739  1.0000
  C   C973      1.0  0.07215  0.60120  0.25051  1.0000
  H   H783      1.0  0.04251  0.63692  0.26745  1.0000
  H   H784      1.0  0.06865  0.59060  0.22902  1.0000
  H   H785      1.0  0.08494  0.59153  0.25219  1.0000
  C   C974      1.0  0.31789  0.66657  0.11445  1.0000
  C   C975      1.0  0.32716  0.68093  0.10797  1.0000
  C   C976      1.0  0.34033  0.68193  0.11677  1.0000
  C   C977      1.0  0.34434  0.66850  0.13205  1.0000
  C   C978      1.0  0.33553  0.65377  0.13818  1.0000
  C   C979      1.0  0.32256  0.65261  0.12918  1.0000
  H   H786      1.0  0.32409  0.69138  0.09619  1.0000
  H   H787      1.0  0.34701  0.69334  0.11207  1.0000
  H   H788      1.0  0.33857  0.64338  0.15005  1.0000
  H   H789      1.0  0.31556  0.64140  0.13415  1.0000
  C   C980      1.0  0.33820  0.52360  0.09888  1.0000
  C   C981      1.0  0.32067  0.53499  0.10253  1.0000
  C   C982      1.0  0.31874  0.55166  0.10733  1.0000
  C   C983      1.0  0.33417  0.55649  0.10929  1.0000
  C   C984      1.0  0.35153  0.54482  0.10610  1.0000
  C   C985      1.0  0.35360  0.52864  0.10052  1.0000
  H   H790      1.0  0.30879  0.53135  0.10084  1.0000
  H   H791      1.0  0.30534  0.56071  0.10951  1.0000
  H   H792      1.0  0.36349  0.54850  0.10754  1.0000
  H   H793      1.0  0.36717  0.51996  0.09748  1.0000
  H   H794      1.0  0.37751  0.63191  0.14030  1.0000
  H   H795      1.0  0.18012  0.49562  0.10994  1.0000
  C   C986      1.0  0.16546  0.50017  0.11523  1.0000
  C   C987      1.0  0.09029  0.50477  0.23378  1.0000
  H   H796      1.0  0.26994  0.61264  0.05392  1.0000
  H   H797      1.0  0.11719  0.50570  0.21567  1.0000
  H   H798      1.0  0.44079  0.61294  0.02325  1.0000
  C   C988      1.0  0.12307  0.55746  0.14783  1.0000
  C   C989      1.0  0.11352  0.55543  0.16621  1.0000
  C   C990      1.0  0.09467  0.55501  0.17093  1.0000
  C   C991      1.0  0.08551  0.55615  0.15732  1.0000
  C   C992      1.0  0.09515  0.55817  0.13900  1.0000
  C   C993      1.0  0.11378  0.55904  0.13423  1.0000
  H   H799      1.0  0.12075  0.55407  0.17675  1.0000
  H   H800      1.0  0.08732  0.55335  0.18509  1.0000
  H   H801      1.0  0.08815  0.55935  0.12838  1.0000
  H   H802      1.0  0.12098  0.56073  0.12000  1.0000
  C   C994      1.0  0.21038  0.60375  0.08606  1.0000
  C   C995      1.0  0.20447  0.59722  0.10486  1.0000
  C   C996      1.0  0.21432  0.59812  0.11717  1.0000
  C   C997      1.0  0.23008  0.60555  0.11067  1.0000
  C   C998      1.0  0.23648  0.61122  0.09181  1.0000
  C   C999      1.0  0.22665  0.61028  0.07952  1.0000
  H   H803      1.0  0.19199  0.59205  0.10994  1.0000
  H   H804      1.0  0.20957  0.59339  0.13174  1.0000
  H   H805      1.0  0.24870  0.61683  0.08668  1.0000
  H   H806      1.0  0.23137  0.61512  0.06496  1.0000
  C   C1000     1.0  0.21879  0.50804  0.09002  1.0000
  C   C1001     1.0  0.21325  0.51088  0.10793  1.0000
  H   H807      1.0  0.00501  0.69181  0.26865  1.0000
  H   H808      1.0  0.49467  0.59632  0.17753  1.0000
  H   H809      1.0  0.24174  0.50604  0.15820  1.0000
  H   H810      1.0  0.19975  0.51899  0.11249  1.0000
  C   C1002     1.0  0.39490  0.51333  0.03348  1.0000
  S   S145      1.0  0.03173  0.62720  0.31755  1.0000
  H   H811      1.0  0.43556  0.66403  0.08213  1.0000
  H   H812      1.0  0.33601  0.52786  0.05757  1.0000
  C   C1003     1.0  0.43638  0.72046  0.19188  1.0000
  C   C1004     1.0  0.17243  0.61317  0.02101  1.0000
  H   H813      1.0  0.16224  0.55748  0.00036  1.0000
  C   C1005     1.0  0.48950  0.64681  0.04267  1.0000
  H   H814      1.0  0.13657  0.61528  0.05809  1.0000
  C   C1006     1.0  0.43191  0.73141  0.16079  1.0000
  S   S146      1.0  0.12670  0.57706  0.05827  1.0000
  C   C1007     1.0  0.41487  0.48619  0.04720  1.0000
  H   H815      1.0  0.25566  0.72308  0.99494  1.0000
  H   H816      1.0  0.03743  0.55479  0.25929  1.0000
  C   C1008     1.0  0.25443  0.50372  0.16270  1.0000
  H   H817      1.0  0.14265  0.52742  0.07253  1.0000
  H   H818      1.0  0.21215  0.61517  0.98825  1.0000
  C   C1009     1.0  0.44033  0.73182  0.17445  1.0000
  H   H819      1.0  0.30159  0.49358  0.17608  1.0000
  H   H820      1.0  0.15531  0.52934  0.03962  1.0000
  H   H821      1.0  0.32828  0.65602  0.04160  1.0000
  Fe  Fe71      1.0  0.37297  0.70328  0.99609  1.0000
  H   H822      1.0  0.31780  0.51972  0.04075  1.0000
  H   H823      1.0  0.28234  0.71336  0.12165  1.0000
  C   C1010     1.0  0.36113  0.71306  0.06880  1.0000
  H   H824      1.0  0.99805  0.72550  0.26385  1.0000
  H   H825      1.0  0.18381  0.51078  0.00713  1.0000
  C   C1011     1.0  0.14381  0.63504  0.13665  1.0000
  S   S147      1.0  0.02387  0.52629  0.25340  1.0000
  H   H826      1.0  0.49246  0.62587  0.10545  1.0000
  P   P32       1.0  0.11711  0.50641  0.09964  1.0000
  H   H827      1.0  0.46039  0.67584  0.00969  1.0000
  H   H828      1.0  0.16582  0.49317  0.23361  1.0000
  C   C1012     1.0  0.42494  0.66511  0.07499  1.0000
  C   C1013     1.0  0.41935  0.68144  0.06296  1.0000
  C   C1014     1.0  0.40539  0.68311  0.05402  1.0000
  C   C1015     1.0  0.39683  0.66861  0.05725  1.0000
  C   C1016     1.0  0.40187  0.65239  0.06977  1.0000
  C   C1017     1.0  0.41643  0.65051  0.07819  1.0000
  P   P33       1.0  0.39111  0.63345  0.07363  1.0000
  C   C1018     1.0  0.38186  0.62503  0.09763  1.0000
  C   C1019     1.0  0.37142  0.64057  0.06310  1.0000
  C   C1020     1.0  0.35542  0.65210  0.07087  1.0000
  C   C1021     1.0  0.33999  0.65783  0.06302  1.0000
  C   C1022     1.0  0.34030  0.65180  0.04756  1.0000
  H   H829      1.0  0.48180  0.68256  0.10042  1.0000
  C   C1023     1.0  0.37165  0.63458  0.04752  1.0000
  C   C1024     1.0  0.37151  0.61151  0.10260  1.0000
  C   C1025     1.0  0.40852  0.61635  0.06302  1.0000
  C   C1026     1.0  0.41922  0.62167  0.04545  1.0000
  C   C1027     1.0  0.42516  0.58492  0.06331  1.0000
  C   C1028     1.0  0.41168  0.59788  0.07196  1.0000
  C   C1029     1.0  0.06648  0.70735  0.31143  1.0000
  S   S148      1.0  0.49069  0.68418  0.15994  1.0000
  H   H830      1.0  0.38624  0.67020  0.04993  1.0000
  H   H831      1.0  0.42093  0.63790  0.08747  1.0000
  H   H832      1.0  0.35487  0.65679  0.08297  1.0000
  H   H833      1.0  0.32777  0.66690  0.06899  1.0000
  H   H834      1.0  0.35589  0.71781  0.17849  1.0000
  H   H835      1.0  0.49248  0.59369  0.12387  1.0000
  H   H836      1.0  0.38366  0.62557  0.04128  1.0000
  H   H837      1.0  0.36904  0.60615  0.09222  1.0000
  H   H838      1.0  0.41697  0.63587  0.03828  1.0000
  H   H839      1.0  0.42741  0.57067  0.07022  1.0000
  H   H840      1.0  0.40383  0.59337  0.08556  1.0000
  C   C1030     1.0  0.28784  0.62642  0.03105  1.0000
  H   H841      1.0  0.07554  0.53588  0.24756  1.0000
  C   C1031     1.0  0.22039  0.66158  0.08954  1.0000
  C   C1032     1.0  0.43566  0.59032  0.04577  1.0000
  C   C1033     1.0  0.48257  0.62765  0.13401  1.0000
  H   H842      1.0  0.23158  0.66556  0.09216  1.0000
  C   C1034     1.0  0.24830  0.66402  0.01702  1.0000
  C   C1035     1.0  0.44800  0.64304  0.12481  1.0000
  H   H843      1.0  0.46204  0.63996  0.09746  1.0000
  C   C1036     1.0  0.36270  0.56753  0.05301  1.0000
  C   C1037     1.0  0.37958  0.50572  0.04260  1.0000
  H   H844      1.0  0.26515  0.57776  0.01216  1.0000
  Fe  Fe72      1.0  0.03183  0.58847  0.21376  1.0000
  H   H845      1.0  0.40712  0.69916  0.18415  1.0000
  H   H846      1.0  0.32189  0.58368  0.01862  1.0000
  S   S149      1.0  0.49397  0.68842  0.00131  1.0000
  H   H847      1.0  0.11895  0.62218  0.03396  1.0000
  C   C1038     1.0  0.18122  0.62180  0.15744  1.0000
  C   C1039     1.0  0.46701  0.63342  0.14729  1.0000
  H   H848      1.0  0.29326  0.66956  0.06984  1.0000
  H   H849      1.0  0.00746  0.69911  0.31171  1.0000
  C   C1040     1.0  0.12779  0.51342  0.12814  1.0000
  C   C1041     1.0  0.38366  0.63258  0.11137  1.0000
  H   H850      1.0  0.29979  0.58072  0.05652  1.0000
  C   C1042     1.0  0.36462  0.73038  0.06044  1.0000
  C   C1043     1.0  0.28404  0.50922  0.01558  1.0000
  H   H851      1.0  0.31839  0.73384  0.07183  1.0000
  C   C1044     1.0  0.13374  0.50706  0.11175  1.0000
  C   C1045     1.0  0.47804  0.69107  0.98799  1.0000
  C   C1046     1.0  0.28790  0.68157  0.06032  1.0000
  H   H852      1.0  0.26481  0.66931  0.03219  1.0000
  H   H853      1.0  0.15094  0.65370  0.17975  1.0000
  H   H854      1.0  0.16864  0.67388  0.15538  1.0000
  C   C1047     1.0  0.22272  0.66361  0.13004  1.0000
  C   C1048     1.0  0.26286  0.61494  0.02817  1.0000
  H   H855      1.0  0.44604  0.58026  0.03906  1.0000
  C   C1049     1.0  0.43304  0.71614  0.02261  1.0000
  H   H856      1.0  0.17477  0.55018  0.16943  1.0000
  H   H857      1.0  0.15874  0.57041  0.02766  1.0000
  C   C1050     1.0  0.28374  0.69630  0.02946  1.0000
  C   C1051     1.0  0.12924  0.63250  0.15187  1.0000
  C   C1052     1.0  0.13941  0.51862  0.06582  1.0000
  H   H858      1.0  0.17747  0.69168  0.09973  1.0000
  H   H859      1.0  0.29333  0.71730  0.08817  1.0000
  C   C1053     1.0  0.15266  0.50010  0.10557  1.0000
  H   H860      1.0  0.22056  0.50481  0.13412  1.0000
  C   C1054     1.0  0.25871  0.69076  0.17933  1.0000
  C   C1055     1.0  0.38189  0.48825  0.05379  1.0000
  H   H861      1.0  0.32689  0.55804  0.06594  1.0000
  C   C1056     1.0  0.29814  0.54567  0.03894  1.0000
  H   H862      1.0  0.13602  0.51882  0.15014  1.0000
  H   H863      1.0  0.18641  0.51457  0.03530  1.0000
  H   H864      1.0  0.24052  0.49493  0.07049  1.0000
  C   C1057     1.0  0.28452  0.67337  0.16092  1.0000
  C   C1058     1.0  0.41252  0.50362  0.03585  1.0000
  C   C1059     1.0  0.16916  0.71709  0.10842  1.0000
  C   C1060     1.0  0.22613  0.57217  0.04420  1.0000
  C   C1061     1.0  0.18685  0.65207  0.14244  1.0000
  C   C1062     1.0  0.23620  0.49717  0.08434  1.0000
  H   H865      1.0  0.46095  0.71043  0.02574  1.0000
  C   C1063     1.0  0.01118  0.71221  0.30572  1.0000
  C   C1064     1.0  0.06491  0.51286  0.21823  1.0000
  C   C1065     1.0  0.12331  0.49592  0.06625  1.0000
  H   H866      1.0  0.24577  0.69151  0.18939  1.0000
  C   C1066     1.0  0.21154  0.60251  0.98544  1.0000
  H   H867      1.0  0.99888  0.53827  0.30499  1.0000
  H   H868      1.0  0.28162  0.57316  0.03935  1.0000
  C   C1067     1.0  0.47670  0.63801  0.05610  1.0000
  P   P34       1.0  0.36038  0.58239  0.99856  1.0000
  H   H869      1.0  0.34795  0.69025  0.17540  1.0000
  H   H870      1.0  0.27192  0.55838  0.99118  1.0000
  H   H871      1.0  0.40086  0.69576  0.04480  1.0000
  C   C1068     1.0  0.31900  0.55471  0.05823  1.0000
  C   C1069     1.0  0.32228  0.58740  0.00409  1.0000
  H   H872      1.0  0.11331  0.51877  0.13335  1.0000
  H   H873      1.0  0.07211  0.51986  0.18873  1.0000
  Fe  Fe73      1.0  0.38007  0.72509  0.09768  1.0000
  C   C1070     1.0  0.07722  0.51547  0.20126  1.0000
  C   C1071     1.0  0.36050  0.54561  0.00516  1.0000
  C   C1072     1.0  0.10260  0.50747  0.21665  1.0000
  H   H874      1.0  0.06153  0.50620  0.24743  1.0000
  H   H875      1.0  0.30502  0.68781  0.14331  1.0000
  C   C1073     1.0  0.01302  0.59513  0.30814  1.0000
  C   C1074     1.0  0.20041  0.54097  0.17869  1.0000
  C   C1075     1.0  0.18964  0.54863  0.16554  1.0000
  C   C1076     1.0  0.19809  0.55414  0.14719  1.0000
  C   C1077     1.0  0.21729  0.55187  0.14187  1.0000
  C   C1078     1.0  0.22825  0.54403  0.15497  1.0000
  C   C1079     1.0  0.21963  0.53873  0.17345  1.0000
  P   P35       1.0  0.25314  0.54084  0.14844  1.0000
  C   C1080     1.0  0.26326  0.51810  0.15969  1.0000
  C   C1081     1.0  0.26024  0.54298  0.12390  1.0000
  C   C1082     1.0  0.26497  0.52758  0.11622  1.0000
  C   C1083     1.0  0.26790  0.52952  0.09728  1.0000
  C   C1084     1.0  0.26641  0.54686  0.08587  1.0000
  C   C1085     1.0  0.26245  0.56227  0.09331  1.0000
  C   C1086     1.0  0.25942  0.56034  0.11227  1.0000
  C   C1087     1.0  0.28022  0.51433  0.16486  1.0000
  C   C1088     1.0  0.34623  0.59779  0.02936  1.0000
  C   C1089     1.0  0.41640  0.70820  0.18153  1.0000
  C   C1090     1.0  0.33929  0.70362  0.17164  1.0000
  H   H876      1.0  0.01077  0.64889  0.21513  1.0000
  C   C1091     1.0  0.26066  0.55797  0.15441  1.0000
  C   C1092     1.0  0.24843  0.56962  0.16558  1.0000
  C   C1093     1.0  0.25464  0.58265  0.17020  1.0000
  C   C1094     1.0  0.27306  0.58412  0.16371  1.0000
  C   C1095     1.0  0.28522  0.57278  0.15234  1.0000
  C   C1096     1.0  0.27899  0.55990  0.14758  1.0000
  H   H877      1.0  0.19389  0.53660  0.19291  1.0000
  H   H878      1.0  0.35625  0.63564  0.02779  1.0000
  H   H879      1.0  0.18970  0.55998  0.13704  1.0000
  H   H880      1.0  0.22343  0.55609  0.12750  1.0000
  H   H881      1.0  0.22784  0.53268  0.18375  1.0000
  H   H882      1.0  0.26604  0.51408  0.12480  1.0000
  H   H883      1.0  0.27094  0.51755  0.09157  1.0000
  H   H884      1.0  0.26816  0.54834  0.07132  1.0000
  H   H885      1.0  0.26132  0.57574  0.08443  1.0000
  H   H886      1.0  0.25590  0.57240  0.11790  1.0000
  H   H887      1.0  0.28759  0.52490  0.16261  1.0000
  H   H888      1.0  0.39316  0.52665  0.02441  1.0000
  H   H889      1.0  0.02717  0.63695  0.24345  1.0000
  C   C1097     1.0  0.99651  0.65029  0.22255  1.0000
  C   C1098     1.0  0.12205  0.48616  0.25125  1.0000
  H   H890      1.0  0.23407  0.56891  0.17051  1.0000
  H   H891      1.0  0.24510  0.59178  0.17857  1.0000
  H   H892      1.0  0.27787  0.59426  0.16718  1.0000
  H   H893      1.0  0.29945  0.57407  0.14701  1.0000
  H   H894      1.0  0.28852  0.55127  0.13868  1.0000
  H   H895      1.0  0.28692  0.51045  0.05821  1.0000
  H   H896      1.0  0.10551  0.51510  0.18726  1.0000
  H   H897      1.0  0.45780  0.69580  0.06656  1.0000
  C   C1099     1.0  0.28618  0.50512  0.04703  1.0000
  H   H898      1.0  0.43622  0.70717  0.01323  1.0000
  C   C1100     1.0  0.26983  0.68418  0.00389  1.0000
  C   C1101     1.0  0.24405  0.66704  0.99994  1.0000
  P   P36       1.0  0.28531  0.54043  0.02550  1.0000
  H   H899      1.0  0.32418  0.53502  0.00712  1.0000
  C   C1102     1.0  0.29191  0.63280  0.01212  1.0000
  C   C1103     1.0  0.18029  0.71796  0.13432  1.0000
  C   C1104     1.0  0.13387  0.62001  0.03025  1.0000
  C   C1105     1.0  0.23177  0.55404  0.05284  1.0000
  H   H900      1.0  0.05719  0.54005  0.13026  1.0000
  C   C1106     1.0  0.08184  0.65952  0.19565  1.0000
  C   C1107     1.0  0.44982  0.64102  0.14268  1.0000
  C   C1108     1.0  0.10176  0.56194  0.21332  1.0000
  C   C1109     1.0  0.11849  0.55590  0.21898  1.0000
  C   C1110     1.0  0.11161  0.58922  0.19393  1.0000
  C   C1111     1.0  0.09822  0.57863  0.20103  1.0000
  P   P37       1.0  0.10665  0.61129  0.17892  1.0000
  C   C1112     1.0  0.08884  0.61146  0.16789  1.0000
  C   C1113     1.0  0.09331  0.60396  0.15228  1.0000
  C   C1114     1.0  0.07938  0.60347  0.14426  1.0000
  C   C1115     1.0  0.06091  0.61029  0.15182  1.0000
  C   C1116     1.0  0.05636  0.61777  0.16733  1.0000
  C   C1117     1.0  0.07023  0.61820  0.17543  1.0000
  C   C1118     1.0  0.12680  0.61483  0.16091  1.0000
  C   C1119     1.0  0.13933  0.59981  0.15462  1.0000
  C   C1120     1.0  0.15385  0.60237  0.13943  1.0000
  H   H901      1.0  0.09145  0.55374  0.21843  1.0000
  H   H902      1.0  0.12100  0.54312  0.22876  1.0000
  H   H903      1.0  0.08501  0.58315  0.19709  1.0000
  H   H904      1.0  0.10601  0.61098  0.21733  1.0000
  H   H905      1.0  0.10745  0.59807  0.14647  1.0000
  H   H906      1.0  0.08288  0.59732  0.13246  1.0000
  H   H907      1.0  0.05010  0.60937  0.14593  1.0000
  H   H908      1.0  0.04203  0.62275  0.17348  1.0000
  H   H909      1.0  0.06629  0.62337  0.18787  1.0000
  H   H910      1.0  0.13747  0.58607  0.16099  1.0000
  H   H911      1.0  0.16307  0.59065  0.13441  1.0000
  C   C1121     1.0  0.03031  0.59381  0.29617  1.0000
  H   H912      1.0  0.20236  0.62736  0.13339  1.0000
  H   H913      1.0  0.04988  0.55617  0.28497  1.0000
  C   C1122     1.0  0.22257  0.65756  0.07248  1.0000
  Fe  Fe74      1.0  0.00252  0.57584  0.20357  1.0000
  H   H914      1.0  0.17745  0.65314  0.10923  1.0000
  C   C1123     1.0  0.35876  0.70218  0.05836  1.0000
  C   C1124     1.0  0.27886  0.69778  0.06623  1.0000
  C   C1125     1.0  0.30125  0.72776  0.12479  1.0000
  H   H915      1.0  0.49401  0.60130  0.20777  1.0000
  C   C1126     1.0  0.23342  0.52874  0.01618  1.0000
  C   C1127     1.0  0.08378  0.55151  0.26134  1.0000
  H   H916      1.0  0.11977  0.64434  0.15624  1.0000
  H   H917      1.0  0.07451  0.67295  0.18992  1.0000
  C   C1128     1.0  0.16671  0.62919  0.17051  1.0000
  P   P38       1.0  0.20064  0.66632  0.12470  1.0000
  H   H918      1.0  0.25332  0.63299  0.15393  1.0000
  H   H919      1.0  0.36393  0.73097  0.01662  1.0000
  H   H920      1.0  0.10212  0.56571  0.04497  1.0000
  C   C1129     1.0  0.20050  0.53642  0.02813  1.0000
  H   H921      1.0  0.18814  0.54622  0.03247  1.0000
  H   H922      1.0  0.21038  0.64844  0.05569  1.0000
  C   C1130     1.0  0.28682  0.55590  0.98811  1.0000
  H   H923      1.0  0.16718  0.62188  0.11839  1.0000
  C   C1131     1.0  0.37544  0.59778  0.98580  1.0000
  C   C1132     1.0  0.19009  0.65447  0.09910  1.0000
  C   C1133     1.0  0.28539  0.71729  0.99117  1.0000
  H   H924      1.0  0.30337  0.63938  0.00583  1.0000
  C   C1134     1.0  0.48531  0.67935  0.06463  1.0000
  C   C1135     1.0  0.36065  0.70829  0.03939  1.0000
  H   H925      1.0  0.22266  0.63704  0.14834  1.0000
  C   C1136     1.0  0.08945  0.64639  0.18487  1.0000
  C   C1137     1.0  0.10660  0.53525  0.27937  1.0000
  Fe  Fe75      1.0  0.38428  0.72729  0.13433  1.0000
  C   C1138     1.0  0.29679  0.54719  0.00189  1.0000
  P   P39       1.0  0.29341  0.72507  0.14937  1.0000
  H   H926      1.0  0.00583  0.64049  0.28257  1.0000
  C   C1139     1.0  0.47815  0.71204  0.05255  1.0000
  H   H927      1.0  0.11696  0.50679  0.27902  1.0000
  H   H928      1.0  0.43798  0.64591  0.15282  1.0000
  H   H929      1.0  0.46805  0.63239  0.16115  1.0000
  H   H930      1.0  0.39017  0.64401  0.10806  1.0000
  C   C1140     1.0  0.36648  0.61202  0.13464  1.0000
  C   C1141     1.0  0.15604  0.61998  0.13034  1.0000
  C   C1142     1.0  0.22499  0.50274  0.12021  1.0000
  H   H931      1.0  0.07680  0.66513  0.22254  1.0000
  H   H932      1.0  0.14550  0.64870  0.12961  1.0000
  C   C1143     1.0  0.09457  0.55138  0.27313  1.0000
  C   C1144     1.0  0.09975  0.62454  0.21084  1.0000
  C   C1145     1.0  0.30980  0.68135  0.99904  1.0000
  C   C1146     1.0  0.09822  0.52613  0.10162  1.0000
  H   H933      1.0  0.23538  0.65822  0.06237  1.0000
  H   H934      1.0  0.08315  0.49768  0.29457  1.0000
  C   C1147     1.0  0.13181  0.56649  0.21219  1.0000
  H   H935      1.0  0.29168  0.66063  0.15672  1.0000
  C   C1148     1.0  0.06848  0.54051  0.11828  1.0000
  C   C1149     1.0  0.24937  0.54410  0.04646  1.0000
  H   H936      1.0  0.43752  0.67969  0.99102  1.0000
  H   H937      1.0  0.08766  0.64978  0.17090  1.0000
  C   C1150     1.0  0.10786  0.51928  0.27376  1.0000
  C   C1151     1.0  0.20407  0.66016  0.10297  1.0000
  H   H938      1.0  0.29698  0.66805  0.03779  1.0000
  C   C1152     1.0  0.34219  0.67192  0.00047  1.0000
  C   C1153     1.0  0.09849  0.62876  0.19236  1.0000
  C   C1154     1.0  0.36398  0.60496  0.12104  1.0000
  H   H939      1.0  0.18096  0.72537  0.14397  1.0000
  S   S150      1.0  0.02019  0.54773  0.20327  1.0000
  C   C1155     1.0  0.46342  0.63763  0.11144  1.0000
  H   H940      1.0  0.16942  0.50745  0.13848  1.0000
  C   C1156     1.0  0.09695  0.51935  0.26195  1.0000
  H   H941      1.0  0.25341  0.53011  0.05354  1.0000
  H   H942      1.0  0.13509  0.62434  0.00162  1.0000
  C   C1157     1.0  0.12839  0.58312  0.19972  1.0000
  H   H943      1.0  0.35592  0.59462  0.12474  1.0000
  C   C1158     1.0  0.34379  0.71912  0.17335  1.0000
  H   H944      1.0  0.18180  0.64545  0.07927  1.0000
  C   C1159     1.0  0.34376  0.59802  0.04784  1.0000
  C   C1160     1.0  0.43271  0.60870  0.03687  1.0000
  C   C1161     1.0  0.08312  0.65515  0.21401  1.0000
  H   H945      1.0  0.28327  0.51765  0.00208  1.0000
  H   H946      1.0  0.09318  0.56367  0.27785  1.0000
  H   H947      1.0  0.14472  0.56188  0.21669  1.0000
  H   H948      1.0  0.13871  0.59133  0.19475  1.0000
  H   H949      1.0  0.13346  0.51027  0.23949  1.0000
  H   H950      1.0  0.23960  0.58997  0.98783  1.0000
  C   C1162     1.0  0.08325  0.52543  0.11683  1.0000
  C   C1163     1.0  0.31307  0.72262  0.15894  1.0000
  C   C1164     1.0  0.07138  0.50764  0.23441  1.0000
  H   H951      1.0  0.48067  0.66698  0.07216  1.0000
  C   C1165     1.0  0.45794  0.72846  0.08795  1.0000
  C   C1166     1.0  0.44957  0.68554  0.98511  1.0000
  P   P40       1.0  0.09832  0.49876  0.25486  1.0000
  H   H952      1.0  0.11412  0.48676  0.07327  1.0000
  C   C1167     1.0  0.37627  0.62585  0.12980  1.0000
  C   C1168     1.0  0.09606  0.51277  0.20047  1.0000
  C   C1169     1.0  0.21744  0.54156  0.02142  1.0000
  C   C1170     1.0  0.23003  0.64787  0.14198  1.0000
  C   C1171     1.0  0.03969  0.62690  0.24542  1.0000
  H   H953      1.0  0.48487  0.65999  0.03414  1.0000
  H   H954      1.0  0.09264  0.63417  0.23596  1.0000
  C   C1172     1.0  0.09211  0.63770  0.22156  1.0000
  C   C1173     1.0  0.06846  0.72485  0.30163  1.0000
  H   H955      1.0  0.07391  0.56377  0.25703  1.0000
  H   H956      1.0  0.05953  0.58284  0.29342  1.0000
  H   H957      1.0  0.29317  0.58951  0.00814  1.0000
  C   C1174     1.0  0.14316  0.62074  0.01195  1.0000
  P   P41       1.0  0.28697  0.69482  0.00596  1.0000
  S   S151      1.0  0.40280  0.73103  0.10641  1.0000
  H   H958      1.0  0.04268  0.73129  0.27116  1.0000
  S   S152      1.0  0.36138  0.69323  0.02600  1.0000
  H   H959      1.0  0.15889  0.62035  0.18125  1.0000
  S   S153      1.0  0.00714  0.57721  0.23041  1.0000
  H   H960      1.0  0.24226  0.65442  0.02849  1.0000
  C   C1175     1.0  0.15946  0.50688  0.13130  1.0000
  C   C1176     1.0  0.04616  0.58423  0.30275  1.0000
  H   H961      1.0  0.42164  0.69980  0.20875  1.0000
  S   S154      1.0  0.36074  0.72346  0.12515  1.0000
  C   C1177     1.0  0.24239  0.49189  0.11458  1.0000
  C   C1178     1.0  0.26121  0.67248  0.01901  1.0000
  H   H962      1.0  0.43477  0.64954  0.12117  1.0000
  H   H963      1.0  0.34885  0.54821  0.01641  1.0000
  C   C1179     1.0  0.48272  0.62096  0.06692  1.0000
  C   C1180     1.0  0.20849  0.65211  0.06870  1.0000
  C   C1181     1.0  0.11526  0.56405  0.03529  1.0000
  C   C1182     1.0  0.27316  0.61761  0.03923  1.0000
  S   S155      1.0  0.03623  0.61460  0.21713  1.0000
  C   C1183     1.0  0.29016  0.68079  0.04210  1.0000
  C   C1184     1.0  0.19234  0.65041  0.08205  1.0000
  H   H964      1.0  0.18473  0.60723  0.15802  1.0000
  H   H965      1.0  0.42440  0.50948  0.02870  1.0000
  C   C1185     1.0  0.23799  0.58040  0.02920  1.0000
  H   H966      1.0  0.99901  0.49976  0.27663  1.0000
  H   H967      1.0  0.23348  0.59453  0.02269  1.0000
  H   H968      1.0  0.25911  0.71868  0.17655  1.0000
  H   H969      1.0  0.45590  0.72519  0.11683  1.0000
  C   C1186     1.0  0.21530  0.50574  0.02348  1.0000
  C   C1187     1.0  0.27456  0.71257  0.03543  1.0000
  H   H970      1.0  0.14741  0.51051  0.02313  1.0000
  C   C1188     1.0  0.08368  0.55750  0.08981  1.0000
  H   H971      1.0  0.25173  0.60787  0.03445  1.0000
  C   C1189     1.0  0.29335  0.56299  0.04331  1.0000
  C   C1190     1.0  0.30364  0.56740  0.05307  1.0000
  C   C1191     1.0  0.16304  0.61294  0.03922  1.0000
  C   C1192     1.0  0.28583  0.51641  0.02957  1.0000
  H   H972      1.0  0.40447  0.72551  0.02077  1.0000
  C   C1193     1.0  0.36307  0.72602  0.03117  1.0000
  H   H973      1.0  0.48328  0.73087  0.14303  1.0000
  C   C1194     1.0  0.27217  0.71329  0.05379  1.0000
  C   C1195     1.0  0.09838  0.54240  0.08824  1.0000
  S   S156      1.0  0.05727  0.52972  0.31725  1.0000
  H   H974      1.0  0.19735  0.69309  0.14601  1.0000
  H   H975      1.0  0.37413  0.55545  0.02956  1.0000
  H   H976      1.0  0.46697  0.71521  0.08761  1.0000
  H   H977      1.0  0.34262  0.49496  0.03241  1.0000
  H   H978      1.0  0.36882  0.55573  0.06228  1.0000
  H   H979      1.0  0.15759  0.49516  0.09300  1.0000
  H   H980      1.0  0.35895  0.51758  0.00921  1.0000
  H   H981      1.0  0.08328  0.49620  0.09994  1.0000
  H   H982      1.0  0.07215  0.72765  0.28681  1.0000
  C   C1196     1.0  0.14909  0.55951  0.00998  1.0000
  C   C1197     1.0  0.28131  0.63070  0.00125  1.0000
  C   C1198     1.0  0.12752  0.50682  0.07559  1.0000
  C   C1199     1.0  0.26708  0.62135  0.00906  1.0000
  C   C1200     1.0  0.17229  0.65941  0.15569  1.0000
  C   C1201     1.0  0.29211  0.68879  0.15340  1.0000
  C   C1202     1.0  0.24750  0.64552  0.14528  1.0000
  C   C1203     1.0  0.13404  0.55446  0.00737  1.0000
  H   H983      1.0  0.32126  0.69307  0.16290  1.0000
  C   C1204     1.0  0.32407  0.53764  0.05362  1.0000
  C   C1205     1.0  0.03102  0.73035  0.28270  1.0000
  H   H984      1.0  0.47273  0.61403  0.07712  1.0000
  H   H985      1.0  0.27161  0.65672  0.13880  1.0000
  C   C1206     1.0  0.44695  0.71795  0.02990  1.0000
  C   C1207     1.0  0.25779  0.65887  0.13678  1.0000
  C   C1208     1.0  0.25055  0.67471  0.12510  1.0000
  C   C1209     1.0  0.18875  0.68998  0.12297  1.0000
  C   C1210     1.0  0.28321  0.70530  0.15896  1.0000
  C   C1211     1.0  0.42458  0.70858  0.19534  1.0000
  C   C1212     1.0  0.02559  0.71376  0.29026  1.0000
  C   C1213     1.0  0.23308  0.67710  0.12172  1.0000
  C   C1214     1.0  0.48602  0.68325  0.12646  1.0000
  C   C1215     1.0  0.26818  0.72797  0.98807  1.0000
  S   S157      1.0  0.39408  0.72062  0.98570  1.0000
  H   H986      1.0  0.22791  0.68922  0.11222  1.0000
  H   H987      1.0  0.25881  0.68482  0.11825  1.0000
  C   C1216     1.0  0.07913  0.48723  0.29077  1.0000
  C   C1217     1.0  0.29310  0.72086  0.11479  1.0000
  C   C1218     1.0  0.17842  0.69881  0.10948  1.0000
  C   C1219     1.0  0.18958  0.69969  0.13541  1.0000
  S   S158      1.0  0.25555  0.61656  0.99488  1.0000
  C   C1220     1.0  0.48076  0.71929  0.18495  1.0000
  H   H988      1.0  0.02465  0.50317  0.28911  1.0000
  H   H989      1.0  0.08416  0.57008  0.07955  1.0000
  H   H990      1.0  0.26193  0.66236  0.17956  1.0000
  C   C1221     1.0  0.14668  0.51974  0.04707  1.0000
  H   H991      1.0  0.32241  0.69083  0.01545  1.0000
  C   C1222     1.0  0.28544  0.48677  0.05017  1.0000
  H   H992      1.0  0.08305  0.51336  0.12775  1.0000
  H   H993      1.0  0.35349  0.67270  0.00569  1.0000
  C   C1223     1.0  0.23238  0.51086  0.01727  1.0000
  C   C1224     1.0  0.31322  0.73257  0.08651  1.0000
  C   C1225     1.0  0.28824  0.49649  0.17266  1.0000
  C   C1226     1.0  0.42008  0.71964  0.16429  1.0000
  C   C1227     1.0  0.14223  0.50909  0.03783  1.0000
  H   H994      1.0  0.10986  0.54371  0.07664  1.0000
  C   C1228     1.0  0.30594  0.59062  0.99822  1.0000
  C   C1229     1.0  0.26780  0.67434  0.17382  1.0000
  S   S159      1.0  0.34381  0.49643  0.99473  1.0000
  H   H995      1.0  0.41361  0.71960  0.15362  1.0000
  C   C1230     1.0  0.00200  0.72729  0.31374  1.0000
  H   H996      1.0  0.35636  0.68870  0.06489  1.0000
  H   H997      1.0  0.01944  0.51046  0.00699  1.0000
  C   C1231     1.0  0.35688  0.58232  0.02258  1.0000
  C   C1232     1.0  0.06865  0.55652  0.10473  1.0000
  C   C1233     1.0  0.46254  0.68331  0.99560  1.0000
  C   C1234     1.0  0.26639  0.70619  0.17198  1.0000
  H   H998      1.0  0.44221  0.72099  0.20284  1.0000
  H   H999      1.0  0.46212  0.64438  0.05791  1.0000
  H   H1000     1.0  0.28440  0.63617  0.98679  1.0000
  C   C1235     1.0  0.19951  0.51850  0.02953  1.0000
  H   H1001     1.0  0.34952  0.58302  0.07410  1.0000
  C   C1236     1.0  0.32404  0.70533  0.16445  1.0000
  H   H1002     1.0  0.47270  0.71013  0.18461  1.0000
  H   H1003     1.0  0.10566  0.55263  0.01839  1.0000
  H   H1004     1.0  0.33543  0.60994  0.05301  1.0000
  C   C1237     1.0  0.33890  0.58866  0.99123  1.0000
  H   H1005     1.0  0.05741  0.56833  0.10613  1.0000
  H   H1006     1.0  0.24491  0.50122  0.01314  1.0000
  C   C1238     1.0  0.36608  0.52828  0.00108  1.0000
  C   C1239     1.0  0.29909  0.72328  0.09573  1.0000
  H   H1007     1.0  0.26937  0.72469  0.02596  1.0000
  C   C1240     1.0  0.02636  0.51322  0.99265  1.0000
  C   C1241     1.0  0.44280  0.72967  0.04210  1.0000
  H   H1008     1.0  0.01541  0.54223  0.98874  1.0000
  H   H1009     1.0  0.26522  0.72589  0.05835  1.0000
  C   C1242     1.0  0.22715  0.58819  0.98531  1.0000
  C   C1243     1.0  0.25254  0.67868  0.98488  1.0000
  H   H1010     1.0  0.15866  0.65332  0.99548  1.0000
  H   H1011     1.0  0.39934  0.58022  0.99562  1.0000
  C   C1244     1.0  0.24807  0.48922  0.09658  1.0000
  C   C1245     1.0  0.26542  0.68714  0.98682  1.0000
  C   C1246     1.0  0.34543  0.66088  0.98802  1.0000
  C   C1247     1.0  0.45174  0.73413  0.10460  1.0000
  H   H1012     1.0  0.14946  0.59438  0.98999  1.0000
  P   P42       1.0  0.46112  0.73316  0.05020  1.0000
  H   H1013     1.0  0.99648  0.62198  0.22567  1.0000
  C   C1248     1.0  0.31324  0.67039  0.98632  1.0000
  C   C1249     1.0  0.99714  0.48611  0.28356  1.0000
  C   C1250     1.0  0.38038  0.52486  0.98604  1.0000
  H   H1014     1.0  0.04790  0.56366  0.44788  1.0000
  C   C1251     1.0  0.07707  0.58685  0.41448  1.0000
  C   C1252     1.0  0.00882  0.67273  0.57223  1.0000
  Fe  Fe76      1.0  0.04090  0.52239  0.38397  1.0000
  H   H1015     1.0  0.10886  0.64434  0.33960  1.0000
  S   S160      1.0  0.02808  0.49822  0.39754  1.0000
  S   S161      1.0  0.04364  0.54016  0.40124  1.0000
  H   H1016     1.0  0.04463  0.60386  0.58272  1.0000
  C   C1253     1.0  0.05657  0.63439  0.48704  1.0000
  C   C1254     1.0  0.12195  0.59386  0.37027  1.0000
  C   C1255     1.0  0.99730  0.70255  0.54531  1.0000
  C   C1256     1.0  0.15748  0.62900  0.37408  1.0000
  H   H1017     1.0  0.08408  0.73398  0.50872  1.0000
  Fe  Fe77      1.0  0.08849  0.65698  0.50450  1.0000
  S   S162      1.0  0.08440  0.68682  0.50285  1.0000
  S   S163      1.0  0.09966  0.64394  0.48012  1.0000
  Fe  Fe78      1.0  0.07860  0.64786  0.54600  1.0000
  S   S164      1.0  0.07415  0.67683  0.54840  1.0000
  S   S165      1.0  0.07542  0.62318  0.56868  1.0000
  Fe  Fe79      1.0  0.05950  0.68336  0.52540  1.0000
  S   S166      1.0  0.03238  0.70327  0.52528  1.0000
  Fe  Fe80      1.0  0.09942  0.67800  0.52573  1.0000
  S   S167      1.0  0.12228  0.69159  0.52340  1.0000
  S   S168      1.0  0.06189  0.65429  0.52479  1.0000
  S   S169      1.0  0.10557  0.64825  0.52566  1.0000
  C   C1257     1.0  0.00756  0.65862  0.52636  1.0000
  C   C1258     1.0  0.03661  0.57588  0.40257  1.0000
  C   C1259     1.0  0.09734  0.58625  0.36210  1.0000
  S   S170      1.0  0.10368  0.69844  0.40315  1.0000
  C   C1260     1.0  0.10242  0.68428  0.42507  1.0000
  C   C1261     1.0  0.11624  0.66847  0.42752  1.0000
  C   C1262     1.0  0.11543  0.65639  0.44458  1.0000
  C   C1263     1.0  0.10088  0.66011  0.45936  1.0000
  C   C1264     1.0  0.08721  0.67616  0.45712  1.0000
  C   C1265     1.0  0.08791  0.68822  0.43989  1.0000
  H   H1018     1.0  0.12748  0.66542  0.41611  1.0000
  H   H1019     1.0  0.12605  0.64407  0.44630  1.0000
  H   H1020     1.0  0.07588  0.67905  0.46851  1.0000
  H   H1021     1.0  0.07718  0.70042  0.43806  1.0000
  C   C1266     1.0  0.01612  0.69498  0.54418  1.0000
  C   C1267     1.0  0.02187  0.68010  0.55771  1.0000
  H   H1022     1.0  0.03036  0.60404  0.40439  1.0000
  H   H1023     1.0  0.03635  0.67410  0.55694  1.0000
  C   C1268     1.0  0.11200  0.61201  0.36941  1.0000
  C   C1269     1.0  0.09719  0.71604  0.54231  1.0000
  C   C1270     1.0  0.11447  0.71231  0.53067  1.0000
  H   H1024     1.0  0.16020  0.69615  0.43164  1.0000
  H   H1025     1.0  0.08871  0.70611  0.54717  1.0000
  C   C1271     1.0  0.00348  0.64278  0.52494  1.0000
  C   C1272     1.0  0.05331  0.63219  0.62712  1.0000
  C   C1273     1.0  0.05238  0.64723  0.61234  1.0000
  C   C1274     1.0  0.05897  0.64464  0.59426  1.0000
  C   C1275     1.0  0.06641  0.62701  0.59100  1.0000
  C   C1276     1.0  0.06686  0.61201  0.60579  1.0000
  C   C1277     1.0  0.06026  0.61459  0.62380  1.0000
  H   H1026     1.0  0.04682  0.66086  0.61486  1.0000
  H   H1027     1.0  0.05825  0.65625  0.58293  1.0000
  H   H1028     1.0  0.07242  0.59834  0.60334  1.0000
  H   H1029     1.0  0.06059  0.60290  0.63511  1.0000
  H   H1030     1.0  0.06093  0.65885  0.36928  1.0000
  C   C1278     1.0  0.01502  0.71546  0.62650  1.0000
  C   C1279     1.0  0.05640  0.69176  0.63345  1.0000
  H   H1031     1.0  0.00369  0.56767  0.40164  1.0000
  C   C1280     1.0  0.07737  0.73197  0.46791  1.0000
  H   H1032     1.0  0.02344  0.63093  0.59314  1.0000
  H   H1033     1.0  0.18518  0.63009  0.37358  1.0000
  C   C1281     1.0  0.06089  0.70186  0.61548  1.0000
  P   P43       1.0  0.04180  0.63035  0.43491  1.0000
  S   S171      1.0  0.06486  0.50680  0.36639  1.0000
  C   C1282     1.0  0.00584  0.61552  0.61473  1.0000
  C   C1283     1.0  0.17005  0.68267  0.50906  1.0000
  C   C1284     1.0  0.13859  0.66512  0.47607  1.0000
  H   H1034     1.0  0.01942  0.69652  0.44976  1.0000
  Fe  Fe81      1.0  0.04656  0.51584  0.34611  1.0000
  C   C1285     1.0  0.07581  0.69407  0.60284  1.0000
  H   H1035     1.0  0.04797  0.59382  0.34992  1.0000
  H   H1036     1.0  0.04586  0.70172  0.58642  1.0000
  H   H1037     1.0  0.02180  0.68965  0.42005  1.0000
  C   C1286     1.0  0.05561  0.66209  0.41951  1.0000
  H   H1038     1.0  0.03800  0.50286  0.61485  1.0000
  C   C1287     1.0  0.11325  0.65169  0.36286  1.0000
  C   C1288     1.0  0.05253  0.60772  0.43068  1.0000
  C   C1289     1.0  0.08532  0.67606  0.60780  1.0000
  C   C1290     1.0  0.05245  0.64660  0.39783  1.0000
  H   H1039     1.0  0.00627  0.68716  0.51528  1.0000
  H   H1040     1.0  0.05449  0.66341  0.43329  1.0000
  C   C1291     1.0  0.08031  0.66584  0.62548  1.0000
  C   C1292     1.0  0.01707  0.63342  0.43780  1.0000
  P   P44       1.0  0.13382  0.71993  0.45527  1.0000
  H   H1041     1.0  0.06111  0.69007  0.33814  1.0000
  C   C1293     1.0  0.05953  0.65971  0.38333  1.0000
  H   H1042     1.0  0.02645  0.56942  0.34712  1.0000
  C   C1294     1.0  0.11967  0.71530  0.57620  1.0000
  H   H1043     1.0  0.16510  0.63999  0.51187  1.0000
  C   C1295     1.0  0.03284  0.60222  0.59402  1.0000
  C   C1296     1.0  0.15132  0.65739  0.46207  1.0000
  Fe  Fe82      1.0  0.08095  0.72350  0.39963  1.0000
  H   H1044     1.0  0.17241  0.66753  0.48883  1.0000
  H   H1045     1.0  0.07538  0.61553  0.40893  1.0000
  H   H1046     1.0  0.19295  0.71845  0.46949  1.0000
  C   C1297     1.0  0.00970  0.68798  0.43090  1.0000
  H   H1047     1.0  0.06534  0.51700  0.55853  1.0000
  H   H1048     1.0  0.04366  0.52594  0.58643  1.0000
  C   C1298     1.0  0.06598  0.67375  0.63834  1.0000
  H   H1049     1.0  0.17245  0.69775  0.56095  1.0000
  H   H1050     1.0  0.15482  0.64272  0.46352  1.0000
  H   H1051     1.0  0.03308  0.59493  0.45280  1.0000
  H   H1052     1.0  0.05528  0.50334  0.45196  1.0000
  C   C1299     1.0  0.02544  0.72872  0.62265  1.0000
  C   C1300     1.0  0.01498  0.70347  0.35056  1.0000
  H   H1053     1.0  0.19894  0.61845  0.34496  1.0000
  C   C1301     1.0  0.04172  0.64692  0.48065  1.0000
  C   C1302     1.0  0.02325  0.69017  0.36375  1.0000
  H   H1054     1.0  0.99686  0.62757  0.61921  1.0000
  C   C1303     1.0  0.03012  0.58481  0.60319  1.0000
  C   C1304     1.0  0.01522  0.58269  0.61809  1.0000
  H   H1055     1.0  0.07562  0.55851  0.42301  1.0000
  H   H1056     1.0  0.00994  0.61371  0.64914  1.0000
  H   H1057     1.0  0.13837  0.60048  0.40208  1.0000
  C   C1305     1.0  0.06283  0.67506  0.40500  1.0000
  H   H1058     1.0  0.12370  0.68977  0.48513  1.0000
  H   H1059     1.0  0.06048  0.63560  0.49892  1.0000
  H   H1060     1.0  0.01109  0.54970  0.45170  1.0000
  H   H1061     1.0  0.99883  0.65399  0.63123  1.0000
  H   H1062     1.0  0.03340  0.57089  0.41719  1.0000
  C   C1306     1.0  0.15915  0.66863  0.44613  1.0000
  C   C1307     1.0  0.05031  0.51173  0.58659  1.0000
  H   H1063     1.0  0.09164  0.57643  0.35909  1.0000
  C   C1308     1.0  0.03482  0.59462  0.39528  1.0000
  H   H1064     1.0  0.03988  0.57292  0.59907  1.0000
  H   H1065     1.0  0.01374  0.56900  0.62518  1.0000
  C   C1309     1.0  0.03448  0.71717  0.47966  1.0000
  H   H1066     1.0  0.09920  0.67604  0.32344  1.0000
  H   H1067     1.0  0.01334  0.66144  0.58277  1.0000
  H   H1068     1.0  0.13538  0.58960  0.37372  1.0000
  H   H1069     1.0  0.05109  0.56032  0.36309  1.0000
  H   H1070     1.0  0.01779  0.63841  0.40875  1.0000
  H   H1071     1.0  0.06740  0.68572  0.40787  1.0000
  H   H1072     1.0  0.08729  0.65168  0.62919  1.0000
  C   C1310     1.0  0.09089  0.73266  0.54794  1.0000
  C   C1311     1.0  0.11463  0.58104  0.36661  1.0000
  C   C1312     1.0  0.06945  0.57216  0.42543  1.0000
  H   H1073     1.0  0.12674  0.70998  0.42430  1.0000
  H   H1074     1.0  0.05242  0.73377  0.64188  1.0000
  H   H1075     1.0  0.08606  0.63062  0.36540  1.0000
  H   H1076     1.0  0.07989  0.70178  0.58905  1.0000
  C   C1313     1.0  0.12334  0.60673  0.42814  1.0000
  C   C1314     1.0  0.10893  0.61858  0.43732  1.0000
  C   C1315     1.0  0.09815  0.63328  0.42737  1.0000
  C   C1316     1.0  0.10192  0.63632  0.40825  1.0000
  C   C1317     1.0  0.11673  0.62489  0.39888  1.0000
  C   C1318     1.0  0.12715  0.60978  0.40899  1.0000
  P   P45       1.0  0.12153  0.62844  0.37421  1.0000
  C   C1319     1.0  0.14612  0.62461  0.36534  1.0000
  C   C1320     1.0  0.04226  0.56348  0.39106  1.0000
  H   H1077     1.0  0.08931  0.58456  0.40375  1.0000
  C   C1321     1.0  0.06460  0.67402  0.38691  1.0000
  C   C1322     1.0  0.16978  0.66729  0.50332  1.0000
  H   H1078     1.0  0.17889  0.61141  0.32896  1.0000
  H   H1079     1.0  0.99784  0.62346  0.37338  1.0000
  C   C1323     1.0  0.11370  0.66640  0.36979  1.0000
  C   C1324     1.0  0.10857  0.68437  0.36027  1.0000
  H   H1080     1.0  0.10877  0.69568  0.36574  1.0000
  H   H1081     1.0  0.13167  0.59532  0.43589  1.0000
  H   H1082     1.0  0.10631  0.61667  0.45211  1.0000
  H   H1083     1.0  0.08726  0.64267  0.43452  1.0000
  H   H1084     1.0  0.09346  0.64773  0.40080  1.0000
  C   C1325     1.0  0.10324  0.68782  0.34367  1.0000
  C   C1326     1.0  0.04524  0.59283  0.44194  1.0000
  C   C1327     1.0  0.01138  0.58665  0.32677  1.0000
  Fe  Fe83      1.0  0.01285  0.50711  0.37482  1.0000
  H   H1085     1.0  0.11818  0.66414  0.38243  1.0000
  C   C1328     1.0  0.17294  0.61612  0.34167  1.0000
  H   H1086     1.0  0.07075  0.60858  0.45496  1.0000
  C   C1329     1.0  0.15409  0.68761  0.44410  1.0000
  Fe  Fe84      1.0  0.04208  0.63592  0.33735  1.0000
  C   C1330     1.0  0.06686  0.62058  0.47777  1.0000
  C   C1331     1.0  0.05039  0.64766  0.41610  1.0000
  C   C1332     1.0  0.10838  0.65532  0.34586  1.0000
  C   C1333     1.0  0.00537  0.63169  0.45540  1.0000
  C   C1334     1.0  0.06416  0.49262  0.42748  1.0000
  H   H1087     1.0  0.03407  0.65783  0.48770  1.0000
  H   H1088     1.0  0.01188  0.58259  0.44294  1.0000
  C   C1335     1.0  0.05970  0.71772  0.33996  1.0000
  H   H1089     1.0  0.01685  0.72720  0.39366  1.0000
  H   H1090     1.0  0.04880  0.63553  0.39472  1.0000
  H   H1091     1.0  0.05644  0.71493  0.35476  1.0000
  C   C1336     1.0  0.13355  0.68407  0.47410  1.0000
  H   H1092     1.0  0.07005  0.68424  0.37569  1.0000
  C   C1337     1.0  0.13163  0.72693  0.57286  1.0000
  C   C1338     1.0  0.20538  0.63806  0.57481  1.0000
  C   C1339     1.0  0.20609  0.64307  0.59051  1.0000
  C   C1340     1.0  0.19133  0.65556  0.59844  1.0000
  C   C1341     1.0  0.17586  0.66310  0.59065  1.0000
  C   C1342     1.0  0.17515  0.65833  0.57471  1.0000
  C   C1343     1.0  0.18993  0.64558  0.56697  1.0000
  P   P46       1.0  0.15484  0.66760  0.56513  1.0000
  C   C1344     1.0  0.13784  0.65390  0.57668  1.0000
  C   C1345     1.0  0.14568  0.69082  0.56819  1.0000
  C   C1346     1.0  0.12659  0.69742  0.57360  1.0000
  H   H1093     1.0  0.17274  0.69485  0.49905  1.0000
  C   C1347     1.0  0.03884  0.60118  0.37630  1.0000
  C   C1348     1.0  0.16711  0.71893  0.46357  1.0000
  C   C1349     1.0  0.00288  0.72766  0.40154  1.0000
  C   C1350     1.0  0.12415  0.65394  0.56795  1.0000
  C   C1351     1.0  0.11121  0.64311  0.57661  1.0000
  C   C1352     1.0  0.11161  0.63233  0.59416  1.0000
  C   C1353     1.0  0.12496  0.63244  0.60311  1.0000
  C   C1354     1.0  0.13804  0.64317  0.59443  1.0000
  C   C1355     1.0  0.16126  0.66738  0.54091  1.0000
  C   C1356     1.0  0.16148  0.65179  0.53503  1.0000
  C   C1357     1.0  0.16560  0.65181  0.51631  1.0000
  C   C1358     1.0  0.00490  0.71184  0.47990  1.0000
  S   S172      1.0  0.03685  0.62485  0.36798  1.0000
  C   C1359     1.0  0.16585  0.68274  0.52774  1.0000
  H   H1094     1.0  0.21677  0.62828  0.56873  1.0000
  H   H1095     1.0  0.21806  0.63721  0.59658  1.0000
  H   H1096     1.0  0.19182  0.65935  0.61070  1.0000
  H   H1097     1.0  0.16443  0.67257  0.59712  1.0000
  H   H1098     1.0  0.18959  0.64139  0.55492  1.0000
  H   H1099     1.0  0.11698  0.68899  0.57543  1.0000
  C   C1360     1.0  0.14865  0.72818  0.46406  1.0000
  C   C1361     1.0  0.03706  0.64559  0.46500  1.0000
  H   H1100     1.0  0.02573  0.65562  0.46001  1.0000
  C   C1362     1.0  0.17870  0.72559  0.46995  1.0000
  H   H1101     1.0  0.12348  0.66231  0.55441  1.0000
  H   H1102     1.0  0.10080  0.64311  0.56972  1.0000
  H   H1103     1.0  0.10150  0.62397  0.60083  1.0000
  H   H1104     1.0  0.12516  0.62413  0.61678  1.0000
  H   H1105     1.0  0.14826  0.64297  0.60162  1.0000
  H   H1106     1.0  0.15806  0.63974  0.54487  1.0000
  H   H1107     1.0  0.04828  0.71183  0.48214  1.0000
  S   S173      1.0  0.02347  0.53276  0.36310  1.0000
  H   H1108     1.0  0.07874  0.61131  0.48253  1.0000
  H   H1109     1.0  0.16543  0.69510  0.53169  1.0000
  H   H1110     1.0  0.11648  0.72507  0.49285  1.0000
  C   C1363     1.0  0.06156  0.73530  0.33001  1.0000
  C   C1364     1.0  0.01310  0.67852  0.37706  1.0000
  C   C1365     1.0  0.02318  0.70511  0.48205  1.0000
  H   H1111     1.0  0.15163  0.63451  0.38635  1.0000
  C   C1366     1.0  0.14101  0.69546  0.45797  1.0000
  C   C1367     1.0  0.06886  0.60453  0.41726  1.0000
  C   C1368     1.0  0.06226  0.61915  0.46213  1.0000
  H   H1112     1.0  0.07406  0.60826  0.35773  1.0000
  S   S174      1.0  0.04631  0.63548  0.64969  1.0000
  C   C1369     1.0  0.04469  0.58882  0.36462  1.0000
  H   H1113     1.0  0.16889  0.66265  0.43521  1.0000
  H   H1114     1.0  0.01408  0.65829  0.53717  1.0000
  C   C1370     1.0  0.00816  0.69208  0.44776  1.0000
  H   H1115     1.0  0.02099  0.70279  0.62178  1.0000
  C   C1371     1.0  0.05371  0.57511  0.43936  1.0000
  C   C1372     1.0  0.08731  0.60419  0.36149  1.0000
  C   C1373     1.0  0.04642  0.56992  0.37203  1.0000
  C   C1374     1.0  0.09436  0.61694  0.36553  1.0000
  H   H1116     1.0  0.02306  0.71250  0.34046  1.0000
  H   H1117     1.0  0.13229  0.65647  0.48833  1.0000
  C   C1375     1.0  0.04718  0.63155  0.45571  1.0000
  H   H1118     1.0  0.03739  0.68921  0.36388  1.0000
  H   H1119     1.0  0.00530  0.58558  0.36977  1.0000
  C   C1376     1.0  0.10317  0.67330  0.33646  1.0000
  H   H1120     1.0  0.09641  0.66993  0.59787  1.0000
  H   H1121     1.0  0.07772  0.73528  0.55715  1.0000
  C   C1377     1.0  0.00925  0.63758  0.42243  1.0000
  H   H1122     1.0  0.02872  0.69064  0.48582  1.0000
  C   C1378     1.0  0.10569  0.72726  0.48567  1.0000
  S   S175      1.0  0.05647  0.72230  0.39020  1.0000
  C   C1379     1.0  0.04696  0.49852  0.60267  1.0000
  C   C1380     1.0  0.04472  0.71557  0.57845  1.0000
  C   C1381     1.0  0.99933  0.55983  0.44763  1.0000
  C   C1382     1.0  0.15392  0.61848  0.34889  1.0000
  S   S176      1.0  0.03436  0.49101  0.35577  1.0000
  C   C1383     1.0  0.99984  0.57832  0.44262  1.0000
  H   H1123     1.0  0.04542  0.69763  0.64367  1.0000
  H   H1124     1.0  0.09927  0.70177  0.33632  1.0000
  H   H1125     1.0  0.01088  0.62795  0.46760  1.0000
  H   H1126     1.0  0.14529  0.61576  0.34152  1.0000
  C   C1384     1.0  0.12859  0.73304  0.40187  1.0000
  C   C1385     1.0  0.13004  0.72335  0.41963  1.0000
  C   C1386     1.0  0.17649  0.62664  0.36681  1.0000
  C   C1387     1.0  0.15064  0.72051  0.56742  1.0000
  H   H1127     1.0  0.01947  0.66837  0.38735  1.0000
  C   C1388     1.0  0.05920  0.49115  0.44645  1.0000
  C   C1389     1.0  0.13466  0.73130  0.43148  1.0000
  C   C1390     1.0  0.12543  0.72534  0.52456  1.0000
  H   H1128     1.0  0.06415  0.50587  0.41831  1.0000
  H   H1129     1.0  0.17261  0.70665  0.45818  1.0000
  C   C1391     1.0  0.06206  0.70375  0.33062  1.0000
  C   C1392     1.0  0.11007  0.72529  0.46744  1.0000
  C   C1393     1.0  0.15768  0.70248  0.56525  1.0000
  H   H1130     1.0  0.12452  0.72702  0.39300  1.0000
  C   C1394     1.0  0.18423  0.62014  0.35065  1.0000
  S   S177      1.0  0.02932  0.66563  0.32903  1.0000
  H   H1131     1.0  0.13881  0.72252  0.51547  1.0000
  H   H1132     1.0  0.12238  0.56708  0.36714  1.0000
  C   C1395     1.0  0.00288  0.59804  0.62399  1.0000
  C   C1396     1.0  0.09571  0.72711  0.45885  1.0000
  C   C1397     1.0  0.04558  0.72977  0.58582  1.0000
  C   C1398     1.0  0.02734  0.57691  0.33320  1.0000
  H   H1133     1.0  0.10494  0.72042  0.58015  1.0000
  H   H1134     1.0  0.00688  0.70292  0.59483  1.0000
  C   C1399     1.0  0.08729  0.73219  0.49474  1.0000
  P   P47       1.0  0.04866  0.72511  0.60899  1.0000
  C   C1400     1.0  0.02080  0.61754  0.59987  1.0000
  H   H1135     1.0  0.00688  0.63013  0.53465  1.0000
  C   C1401     1.0  0.00318  0.67500  0.51388  1.0000
  H   H1136     1.0  0.04221  0.70803  0.55485  1.0000
  H   H1137     1.0  0.15988  0.72963  0.56465  1.0000
  C   C1402     1.0  0.04246  0.71911  0.56052  1.0000
  H   H1138     1.0  0.09851  0.72508  0.44505  1.0000
  C   C1403     1.0  0.04468  0.57585  0.32126  1.0000
  H   H1139     1.0  0.00529  0.73467  0.57710  1.0000
  C   C1404     1.0  0.99865  0.73068  0.47393  1.0000
  C   C1405     1.0  0.06259  0.50670  0.57090  1.0000
  C   C1406     1.0  0.99728  0.57512  0.37489  1.0000
  H   H1140     1.0  0.99969  0.48891  0.35244  1.0000
  H   H1141     1.0  0.05692  0.56785  0.32618  1.0000
  H   H1142     1.0  0.06662  0.73368  0.46081  1.0000
  H   H1143     1.0  0.00473  0.55060  0.32831  1.0000
  C   C1407     1.0  0.99747  0.73300  0.41837  1.0000
  C   C1408     1.0  0.99671  0.71852  0.63632  1.0000
  C   C1409     1.0  0.07310  0.73461  0.48585  1.0000
  S   S178      1.0  0.06974  0.63822  0.31864  1.0000
  C   C1410     1.0  0.07169  0.48846  0.57134  1.0000
  C   C1411     1.0  0.00169  0.48675  0.65057  1.0000
  C   C1412     1.0  0.30622  0.70246  0.94491  1.0000
  Fe  Fe85      1.0  0.18210  0.53288  0.93274  1.0000
  S   S179      1.0  0.17228  0.55206  0.90828  1.0000
  S   S180      1.0  0.20804  0.51123  0.92860  1.0000
  Fe  Fe86      1.0  0.15019  0.54882  0.96016  1.0000
  S   S181      1.0  0.13753  0.56956  0.93812  1.0000
  H   H1144     1.0  0.31481  0.71609  0.98420  1.0000
  Fe  Fe87      1.0  0.14421  0.54687  0.92301  1.0000
  S   S182      1.0  0.12148  0.54744  0.90918  1.0000
  Fe  Fe88      1.0  0.16649  0.57320  0.92496  1.0000
  S   S183      1.0  0.17186  0.60086  0.90952  1.0000
  S   S184      1.0  0.15458  0.52574  0.94615  1.0000
  S   S185      1.0  0.17853  0.55451  0.94828  1.0000
  C   C1413     1.0  0.18060  0.64057  0.97556  1.0000
  H   H1145     1.0  0.19269  0.68846  0.95766  1.0000
  C   C1414     1.0  0.00677  0.49062  0.71848  1.0000
  Fe  Fe89      1.0  0.29388  0.49909  0.96326  1.0000
  S   S186      1.0  0.31164  0.51851  0.95995  1.0000
  C   C1415     1.0  0.03075  0.50971  0.92511  1.0000
  Fe  Fe90      1.0  0.32633  0.50929  0.93382  1.0000
  S   S187      1.0  0.33526  0.52853  0.90740  1.0000
  H   H1146     1.0  0.23866  0.56043  0.98223  1.0000
  H   H1147     1.0  0.08453  0.51824  0.70830  1.0000
  C   C1416     1.0  0.00037  0.53492  0.78860  1.0000
  H   H1148     1.0  0.14135  0.60910  0.75791  1.0000
  Fe  Fe91      1.0  0.25145  0.63976  0.92939  1.0000
  S   S188      1.0  0.26696  0.61292  0.94276  1.0000
  S   S189      1.0  0.22892  0.64366  0.91429  1.0000
  Fe  Fe92      1.0  0.27489  0.66172  0.93768  1.0000
  S   S190      1.0  0.29212  0.63636  0.95119  1.0000
  H   H1149     1.0  0.15154  0.60923  0.87780  1.0000
  Fe  Fe93      1.0  0.29207  0.62446  0.92806  1.0000
  S   S191      1.0  0.31908  0.61129  0.91188  1.0000
  Fe  Fe94      1.0  0.26529  0.62766  0.96461  1.0000
  C   C1417     1.0  0.05958  0.52094  0.72883  1.0000
  S   S192      1.0  0.27672  0.65063  0.91334  1.0000
  S   S193      1.0  0.24785  0.65375  0.95231  1.0000
  H   H1150     1.0  0.03687  0.52247  0.75203  1.0000
  C   C1418     1.0  0.27265  0.54019  0.93446  1.0000
  S   S194      1.0  0.09983  0.58133  0.70756  1.0000
  S   S195      1.0  0.07400  0.52870  0.83960  1.0000
  C   C1419     1.0  0.09770  0.57392  0.73143  1.0000
  C   C1420     1.0  0.08781  0.56053  0.74186  1.0000
  C   C1421     1.0  0.09632  0.56191  0.76930  1.0000
  C   C1422     1.0  0.10598  0.57539  0.75885  1.0000
  C   C1423     1.0  0.10691  0.58115  0.73997  1.0000
  H   H1151     1.0  0.08098  0.55458  0.73531  1.0000
  H   H1152     1.0  0.11302  0.58121  0.76534  1.0000
  C   C1424     1.0  0.02588  0.51268  0.89484  1.0000
  C   C1425     1.0  0.23360  0.57106  0.89420  1.0000
  C   C1426     1.0  0.03765  0.49890  0.98448  1.0000
  H   H1153     1.0  0.00234  0.66930  0.65366  1.0000
  H   H1154     1.0  0.13417  0.54474  0.65409  1.0000
  S   S196      1.0  0.26388  0.50736  0.97615  1.0000
  Fe  Fe95      1.0  0.05687  0.56740  0.67695  1.0000
  H   H1155     1.0  0.20336  0.63267  0.95359  1.0000
  H   H1156     1.0  0.01891  0.55220  0.72897  1.0000
  H   H1157     1.0  0.02839  0.60335  0.78549  1.0000
  Fe  Fe96      1.0  0.05582  0.51267  0.83568  1.0000
  C   C1427     1.0  0.27683  0.59762  0.88071  1.0000
  C   C1428     1.0  0.05167  0.51875  0.74751  1.0000
  H   H1158     1.0  0.10009  0.57625  0.81436  1.0000
  S   S197      1.0  0.07716  0.58571  0.66667  1.0000
  C   C1429     1.0  0.31738  0.67421  0.93419  1.0000
  C   C1430     1.0  0.33538  0.67404  0.93501  1.0000
  H   H1159     1.0  0.31495  0.66352  0.92937  1.0000
  H   H1160     1.0  0.34665  0.66307  0.93099  1.0000
  H   H1161     1.0  0.14137  0.49253  0.88235  1.0000
  C   C1431     1.0  0.38369  0.55617  0.97916  1.0000
  S   S198      1.0  0.36169  0.68653  0.94245  1.0000
  S   S199      1.0  0.30705  0.49154  0.93596  1.0000
  C   C1432     1.0  0.31026  0.53604  0.85105  1.0000
  H   H1162     1.0  0.30625  0.58566  0.87551  1.0000
  S   S200      1.0  0.10762  0.50385  0.81482  1.0000
  C   C1433     1.0  0.08210  0.50754  0.75429  1.0000
  C   C1434     1.0  0.33027  0.55153  0.90885  1.0000
  C   C1435     1.0  0.31410  0.55911  0.92026  1.0000
  C   C1436     1.0  0.31000  0.57774  0.92059  1.0000
  C   C1437     1.0  0.32256  0.58856  0.91023  1.0000
  C   C1438     1.0  0.33860  0.58103  0.89865  1.0000
  C   C1439     1.0  0.34226  0.56266  0.89770  1.0000
  H   H1163     1.0  0.30478  0.55060  0.92879  1.0000
  H   H1164     1.0  0.29744  0.58365  0.92919  1.0000
  H   H1165     1.0  0.34827  0.58941  0.89046  1.0000
  H   H1166     1.0  0.35467  0.55694  0.88867  1.0000
  C   C1440     1.0  0.12014  0.53264  0.89603  1.0000
  C   C1441     1.0  0.10484  0.53703  0.88796  1.0000
  C   C1442     1.0  0.10281  0.52571  0.87765  1.0000
  C   C1443     1.0  0.11582  0.50946  0.87576  1.0000
  C   C1444     1.0  0.13125  0.50509  0.88369  1.0000
  C   C1445     1.0  0.13352  0.51672  0.89362  1.0000
  H   H1167     1.0  0.09433  0.54916  0.88993  1.0000
  H   H1168     1.0  0.09090  0.52925  0.87164  1.0000
  Fe  Fe97      1.0  0.40712  0.70320  0.96491  1.0000
  H   H1169     1.0  0.14536  0.51314  0.89976  1.0000
  C   C1446     1.0  0.18866  0.61114  0.91178  1.0000
  C   C1447     1.0  0.18981  0.62834  0.90060  1.0000
  C   C1448     1.0  0.20235  0.63770  0.90168  1.0000
  C   C1449     1.0  0.21411  0.63010  0.91392  1.0000
  C   C1450     1.0  0.21327  0.61270  0.92517  1.0000
  C   C1451     1.0  0.20047  0.60321  0.92413  1.0000
  H   H1170     1.0  0.18081  0.63458  0.89106  1.0000
  H   H1171     1.0  0.20286  0.65107  0.89296  1.0000
  H   H1172     1.0  0.22225  0.60670  0.93475  1.0000
  H   H1173     1.0  0.19966  0.58992  0.93289  1.0000
  C   C1452     1.0  0.22322  0.50990  0.94231  1.0000
  C   C1453     1.0  0.21739  0.51794  0.95756  1.0000
  C   C1454     1.0  0.22992  0.51690  0.96804  1.0000
  C   C1455     1.0  0.24836  0.50794  0.96320  1.0000
  H   H1174     1.0  0.04909  0.49659  0.71702  1.0000
  C   C1456     1.0  0.24150  0.50051  0.93786  1.0000
  H   H1175     1.0  0.20319  0.52463  0.96155  1.0000
  C   C1457     1.0  0.18926  0.67516  0.96269  1.0000
  H   H1176     1.0  0.08522  0.51727  0.95259  1.0000
  Fe  Fe98      1.0  0.08662  0.49004  0.81253  1.0000
  H   H1177     1.0  0.43200  0.72986  0.98256  1.0000
  C   C1458     1.0  0.08435  0.48788  0.67883  1.0000
  C   C1459     1.0  0.21581  0.57445  0.89129  1.0000
  H   H1178     1.0  0.24901  0.61404  0.88685  1.0000
  H   H1179     1.0  0.11131  0.56019  0.67763  1.0000
  C   C1460     1.0  0.01150  0.52281  0.80029  1.0000
  C   C1461     1.0  0.13077  0.53721  0.66808  1.0000
  S   S201      1.0  0.35365  0.72044  0.97796  1.0000
  C   C1462     1.0  0.24661  0.58055  0.88179  1.0000
  H   H1180     1.0  0.18135  0.48869  0.96348  1.0000
  H   H1181     1.0  0.09050  0.50225  0.76442  1.0000
  H   H1182     1.0  0.35929  0.65347  0.98344  1.0000
  H   H1183     1.0  0.25152  0.60053  0.85646  1.0000
  P   P48       1.0  0.26963  0.57630  0.88550  1.0000
  H   H1184     1.0  0.31980  0.52644  0.84317  1.0000
  H   H1185     1.0  0.25894  0.64269  0.88142  1.0000
  H   H1186     1.0  0.01888  0.50971  0.88602  1.0000
  C   C1463     1.0  0.03605  0.49245  0.72265  1.0000
  S   S202      1.0  0.06655  0.51634  0.80523  1.0000
  C   C1464     1.0  0.11781  0.54589  0.68128  1.0000
  H   H1187     1.0  0.10282  0.54306  0.70923  1.0000
  C   C1465     1.0  0.11311  0.53617  0.69926  1.0000
  C   C1466     1.0  0.03311  0.53474  0.96389  1.0000
  C   C1467     1.0  0.26363  0.61391  0.88258  1.0000
  C   C1468     1.0  0.30115  0.61431  0.87351  1.0000
  C   C1469     1.0  0.99794  0.52911  0.77401  1.0000
  C   C1470     1.0  0.01956  0.50502  0.79781  1.0000
  Fe  Fe99      1.0  0.08656  0.52973  0.80972  1.0000
  C   C1471     1.0  0.28560  0.56087  0.87165  1.0000
  H   H1188     1.0  0.16294  0.50109  0.84232  1.0000
  H   H1189     1.0  0.01428  0.52716  0.81114  1.0000
  H   H1190     1.0  0.26819  0.49208  0.94476  1.0000
  C   C1472     1.0  0.04419  0.52027  0.91755  1.0000
  H   H1191     1.0  0.07779  0.49838  0.90825  1.0000
  H   H1192     1.0  0.11468  0.59137  0.73197  1.0000
  H   H1193     1.0  0.29499  0.71360  0.94853  1.0000
  H   H1194     1.0  0.28020  0.53859  0.90632  1.0000
  C   C1473     1.0  0.28795  0.63045  0.87511  1.0000
  C   C1474     1.0  0.31548  0.55760  0.96554  1.0000
  H   H1195     1.0  0.14392  0.52463  0.77774  1.0000
  H   H1196     1.0  0.10999  0.61075  0.81273  1.0000
  H   H1197     1.0  0.02730  0.50426  0.93970  1.0000
  H   H1198     1.0  0.11905  0.54487  0.82640  1.0000
  H   H1199     1.0  0.28908  0.54167  0.83594  1.0000
  C   C1475     1.0  0.12154  0.51771  0.70430  1.0000
  H   H1200     1.0  0.19682  0.59022  0.87416  1.0000
  H   H1201     1.0  0.20565  0.56756  0.90125  1.0000
  C   C1476     1.0  0.10732  0.49670  0.94196  1.0000
  H   H1202     1.0  0.07981  0.54392  0.76881  1.0000
  H   H1203     1.0  0.14135  0.49482  0.69434  1.0000
  H   H1204     1.0  0.12670  0.53838  0.72691  1.0000
  C   C1477     1.0  0.13472  0.50909  0.69098  1.0000
  H   H1205     1.0  0.28849  0.56829  0.95949  1.0000
  H   H1206     1.0  0.32284  0.56171  0.95160  1.0000
  C   C1478     1.0  0.09020  0.51016  0.73546  1.0000
  C   C1479     1.0  0.07873  0.51652  0.72282  1.0000
  C   C1480     1.0  0.06666  0.49167  0.67552  1.0000
  H   H1207     1.0  0.18305  0.58163  0.97572  1.0000
  P   P49       1.0  0.05660  0.52480  0.93183  1.0000
  H   H1208     1.0  0.05942  0.60012  0.91047  1.0000
  C   C1481     1.0  0.14934  0.60320  0.97659  1.0000
  H   H1209     1.0  0.08618  0.57685  0.92017  1.0000
  C   C1482     1.0  0.04671  0.50247  0.96602  1.0000
  H   H1210     1.0  0.40822  0.63073  0.95864  1.0000
  C   C1483     1.0  0.05780  0.54861  0.92465  1.0000
  C   C1484     1.0  0.07332  0.55428  0.92520  1.0000
  H   H1211     1.0  0.00161  0.58881  0.79895  1.0000
  C   C1485     1.0  0.02292  0.49730  0.71195  1.0000
  C   C1486     1.0  0.04331  0.58033  0.91395  1.0000
  C   C1487     1.0  0.04278  0.56181  0.91894  1.0000
  C   C1488     1.0  0.02409  0.53111  0.98236  1.0000
  H   H1212     1.0  0.16128  0.57961  0.76949  1.0000
  P   P50       1.0  0.11502  0.50513  0.72752  1.0000
  C   C1489     1.0  0.39913  0.62152  0.96625  1.0000
  C   C1490     1.0  0.19517  0.58375  0.97847  1.0000
  C   C1491     1.0  0.17461  0.67232  0.97766  1.0000
  C   C1492     1.0  0.48372  0.72390  0.90291  1.0000
  Fe  Fe100     1.0  0.33061  0.49432  0.97317  1.0000
  S   S203      1.0  0.05303  0.54670  0.66382  1.0000
  C   C1493     1.0  0.12780  0.49882  0.75943  1.0000
  C   C1494     1.0  0.26866  0.56656  0.90952  1.0000
  C   C1495     1.0  0.13922  0.51880  0.67292  1.0000
  H   H1213     1.0  0.30700  0.55467  0.88678  1.0000
  H   H1214     1.0  0.03166  0.59044  0.90963  1.0000
  H   H1215     1.0  0.03057  0.55780  0.91854  1.0000
  H   H1216     1.0  0.11592  0.49653  0.95094  1.0000
  H   H1217     1.0  0.05672  0.50962  0.77475  1.0000
  S   S204      1.0  0.02505  0.52060  0.84567  1.0000
  H   H1218     1.0  0.99751  0.55641  0.85319  1.0000
  H   H1219     1.0  0.00292  0.52935  0.72717  1.0000
  S   S205      1.0  0.11242  0.49358  0.86506  1.0000
  C   C1496     1.0  0.02162  0.50597  0.91376  1.0000
  C   C1497     1.0  0.13817  0.61233  0.94856  1.0000
  H   H1220     1.0  0.00378  0.57577  0.67274  1.0000
  H   H1221     1.0  0.13006  0.61053  0.94009  1.0000
  H   H1222     1.0  0.05545  0.49122  0.95990  1.0000
  H   H1223     1.0  0.01133  0.49775  0.91957  1.0000
  H   H1224     1.0  0.14930  0.63360  0.92796  1.0000
  C   C1498     1.0  0.09248  0.50226  0.67759  1.0000
  C   C1499     1.0  0.13902  0.52073  0.76788  1.0000
  C   C1500     1.0  0.01211  0.58407  0.78776  1.0000
  C   C1501     1.0  0.19527  0.64358  0.96051  1.0000
  C   C1502     1.0  0.32423  0.70208  0.94607  1.0000
  C   C1503     1.0  0.02407  0.56449  0.76580  1.0000
  C   C1504     1.0  0.09299  0.57686  0.82836  1.0000
  S   S206      1.0  0.03240  0.59065  0.67765  1.0000
  P   P51       1.0  0.12718  0.57638  0.83411  1.0000
  C   C1505     1.0  0.10256  0.57754  0.84103  1.0000
  C   C1506     1.0  0.13856  0.55249  0.83684  1.0000
  C   C1507     1.0  0.13150  0.54032  0.83171  1.0000
  S   S207      1.0  0.27999  0.68887  0.93803  1.0000
  C   C1508     1.0  0.25932  0.57020  0.94106  1.0000
  C   C1509     1.0  0.16376  0.52752  0.84527  1.0000
  C   C1510     1.0  0.15501  0.54599  0.84329  1.0000
  C   C1511     1.0  0.09290  0.57821  0.85912  1.0000
  C   C1512     1.0  0.07417  0.57765  0.86449  1.0000
  C   C1513     1.0  0.06489  0.57660  0.85184  1.0000
  C   C1514     1.0  0.99718  0.61587  0.65928  1.0000
  C   C1515     1.0  0.24165  0.59314  0.86623  1.0000
  C   C1516     1.0  0.13458  0.58720  0.84787  1.0000
  C   C1517     1.0  0.14020  0.60385  0.84042  1.0000
  C   C1518     1.0  0.14627  0.61178  0.85119  1.0000
  C   C1519     1.0  0.14676  0.60318  0.86943  1.0000
  C   C1520     1.0  0.14115  0.58667  0.87691  1.0000
  C   C1521     1.0  0.13520  0.57867  0.86617  1.0000
  C   C1522     1.0  0.08724  0.55439  0.76082  1.0000
  S   S208      1.0  0.05190  0.60837  0.69887  1.0000
  H   H1225     1.0  0.14916  0.51200  0.66266  1.0000
  H   H1226     1.0  0.23693  0.56129  0.90635  1.0000
  C   C1523     1.0  0.38062  0.62642  0.96508  1.0000
  H   H1227     1.0  0.04895  0.56915  0.74615  1.0000
  C   C1524     1.0  0.13613  0.53312  0.75162  1.0000
  C   C1525     1.0  0.13902  0.60311  0.77247  1.0000
  H   H1228     1.0  0.16112  0.55507  0.84687  1.0000
  H   H1229     1.0  0.09979  0.57867  0.86927  1.0000
  H   H1230     1.0  0.06700  0.57762  0.87857  1.0000
  H   H1231     1.0  0.05050  0.57579  0.85607  1.0000
  C   C1526     1.0  0.30300  0.55216  0.87557  1.0000
  C   C1527     1.0  0.06516  0.52419  0.66989  1.0000
  H   H1232     1.0  0.14007  0.61070  0.82632  1.0000
  H   H1233     1.0  0.15067  0.62458  0.84540  1.0000
  H   H1234     1.0  0.14148  0.57997  0.89106  1.0000
  H   H1235     1.0  0.13125  0.56569  0.87209  1.0000
  C   C1528     1.0  0.06289  0.51176  0.76025  1.0000
  S   S209      1.0  0.43762  0.69645  0.95278  1.0000
  H   H1236     1.0  0.31569  0.61435  0.87082  1.0000
  H   H1237     1.0  0.15572  0.56551  0.80244  1.0000
  C   C1529     1.0  0.00253  0.54778  0.67801  1.0000
  H   H1238     1.0  0.29226  0.64300  0.87343  1.0000
  H   H1239     1.0  0.99834  0.52091  0.68135  1.0000
  H   H1240     1.0  0.38419  0.51151  0.98263  1.0000
  H   H1241     1.0  0.24959  0.68083  0.97152  1.0000
  C   C1530     1.0  0.29567  0.59796  0.87629  1.0000
  C   C1531     1.0  0.32251  0.59653  0.96663  1.0000
  C   C1532     1.0  0.99852  0.56607  0.66911  1.0000
  C   C1533     1.0  0.40581  0.60489  0.97731  1.0000
  C   C1534     1.0  0.45258  0.69483  0.96677  1.0000
  C   C1535     1.0  0.29617  0.56132  0.97003  1.0000
  C   C1536     1.0  0.25411  0.49948  0.94825  1.0000
  H   H1242     1.0  0.05231  0.59332  0.75920  1.0000
  C   C1537     1.0  0.27434  0.54766  0.91575  1.0000
  H   H1243     1.0  0.39013  0.56697  0.97003  1.0000
  C   C1538     1.0  0.46831  0.70219  0.95909  1.0000
  C   C1539     1.0  0.19948  0.66083  0.95408  1.0000
  C   C1540     1.0  0.32544  0.54812  0.97899  1.0000
  C   C1541     1.0  0.48083  0.70064  0.96977  1.0000
  H   H1244     1.0  0.27897  0.48843  0.85805  1.0000
  C   C1542     1.0  0.01668  0.49923  0.78354  1.0000
  H   H1245     1.0  0.27790  0.50075  0.90930  1.0000
  C   C1543     1.0  0.29298  0.54464  0.84699  1.0000
  H   H1246     1.0  0.16882  0.63712  0.94635  1.0000
  H   H1247     1.0  0.21981  0.60667  0.85171  1.0000
  C   C1544     1.0  0.05727  0.50981  0.67060  1.0000
  H   H1248     1.0  0.32258  0.59994  0.95209  1.0000
  H   H1249     1.0  0.00818  0.62960  0.67300  1.0000
  H   H1250     1.0  0.17609  0.52249  0.85080  1.0000
  H   H1251     1.0  0.13725  0.49384  0.78426  1.0000
  H   H1252     1.0  0.11586  0.62470  0.77961  1.0000
  C   C1545     1.0  0.32228  0.48918  0.88740  1.0000
  H   H1253     1.0  0.24585  0.49424  0.92618  1.0000
  H   H1254     1.0  0.13879  0.54663  0.74885  1.0000
  H   H1255     1.0  0.34038  0.54456  0.97533  1.0000
  C   C1546     1.0  0.12137  0.60395  0.80344  1.0000
  C   C1547     1.0  0.28012  0.49235  0.88428  1.0000
  H   H1256     1.0  0.05087  0.52621  0.71892  1.0000
  C   C1548     1.0  0.14895  0.62544  0.94175  1.0000
  H   H1257     1.0  0.26427  0.54551  0.96159  1.0000
  H   H1258     1.0  0.27742  0.52570  0.93912  1.0000
  S   S210      1.0  0.09612  0.55511  0.79286  1.0000
  S   S211      1.0  0.34711  0.48670  0.94674  1.0000
  C   C1549     1.0  0.22377  0.59656  0.86342  1.0000
  C   C1550     1.0  0.26126  0.51362  0.86376  1.0000
  C   C1551     1.0  0.25416  0.52502  0.87633  1.0000
  C   C1552     1.0  0.26028  0.52034  0.89265  1.0000
  C   C1553     1.0  0.27346  0.50426  0.89647  1.0000
  H   H1259     1.0  0.04267  0.52808  0.87249  1.0000
  H   H1260     1.0  0.08516  0.54456  0.92938  1.0000
  C   C1554     1.0  0.34050  0.49030  0.88553  1.0000
  H   H1261     1.0  0.27225  0.69566  0.97482  1.0000
  C   C1555     1.0  0.04852  0.52680  0.89848  1.0000
  C   C1556     1.0  0.14046  0.52193  0.83346  1.0000
  H   H1262     1.0  0.06732  0.57521  0.82387  1.0000
  H   H1263     1.0  0.04381  0.51273  0.66747  1.0000
  C   C1557     1.0  0.38920  0.53878  0.97509  1.0000
  C   C1558     1.0  0.08565  0.49799  0.91796  1.0000
  H   H1264     1.0  0.30237  0.66982  0.98033  1.0000
  C   C1559     1.0  0.16015  0.61640  0.96989  1.0000
  H   H1265     1.0  0.32694  0.71288  0.95046  1.0000
  C   C1560     1.0  0.00510  0.55650  0.72649  1.0000
  C   C1561     1.0  0.26095  0.57776  0.92234  1.0000
  H   H1266     1.0  0.37543  0.63942  0.95655  1.0000
  H   H1267     1.0  0.24373  0.53737  0.87359  1.0000
  H   H1268     1.0  0.25433  0.52887  0.90265  1.0000
  S   S212      1.0  0.38804  0.68390  0.97739  1.0000
  H   H1269     1.0  0.00930  0.55727  0.82028  1.0000
  C   C1562     1.0  0.03931  0.52308  0.88721  1.0000
  H   H1270     1.0  0.32868  0.53336  0.86854  1.0000
  H   H1271     1.0  0.21054  0.55669  0.97558  1.0000
  C   C1563     1.0  0.13510  0.50349  0.77164  1.0000
  C   C1564     1.0  0.12916  0.52836  0.73919  1.0000
  C   C1565     1.0  0.28069  0.55705  0.85720  1.0000
  C   C1566     1.0  0.12489  0.51116  0.74302  1.0000
  H   H1272     1.0  0.02537  0.50609  0.69850  1.0000
  C   C1567     1.0  0.09001  0.50863  0.94266  1.0000
  C   C1568     1.0  0.33885  0.68781  0.94118  1.0000
  H   H1273     1.0  0.25611  0.59233  0.91794  1.0000
  C   C1569     1.0  0.00583  0.51127  0.77170  1.0000
  H   H1274     1.0  0.03122  0.54872  0.95628  1.0000
  H   H1275     1.0  0.02289  0.55407  0.75972  1.0000
  H   H1276     1.0  0.25355  0.57900  0.95078  1.0000
  Fe  Fe101     1.0  0.03383  0.58836  0.70640  1.0000
  C   C1570     1.0  0.05890  0.58580  0.91445  1.0000
  H   H1277     1.0  0.10625  0.49933  0.67997  1.0000
  C   C1571     1.0  0.27414  0.49729  0.86772  1.0000
  C   C1572     1.0  0.31528  0.53989  0.86530  1.0000
  H   H1278     1.0  0.39993  0.53622  0.96312  1.0000
  H   H1279     1.0  0.29316  0.59826  0.97512  1.0000
  C   C1573     1.0  0.08277  0.52042  0.67341  1.0000
  C   C1574     1.0  0.15024  0.58648  0.77900  1.0000
  S   S213      1.0  0.39036  0.72037  0.94446  1.0000
  C   C1575     1.0  0.26524  0.55143  0.94712  1.0000
  C   C1576     1.0  0.07430  0.57633  0.83374  1.0000
  C   C1577     1.0  0.30271  0.68841  0.93913  1.0000
  Fe  Fe102     1.0  0.07497  0.58364  0.69670  1.0000
  C   C1578     1.0  0.16009  0.62734  0.95225  1.0000
  C   C1579     1.0  0.03891  0.57306  0.75800  1.0000
  H   H1280     1.0  0.34365  0.50320  0.88472  1.0000
  Fe  Fe103     1.0  0.09382  0.50176  0.84455  1.0000
  Fe  Fe104     1.0  0.37013  0.70228  0.95826  1.0000
  C   C1580     1.0  0.19534  0.60037  0.98216  1.0000
  H   H1281     1.0  0.22531  0.52311  0.97984  1.0000
  C   C1581     1.0  0.04063  0.58687  0.76525  1.0000
  H   H1282     1.0  0.47064  0.70930  0.94490  1.0000
  C   C1582     1.0  0.12465  0.61189  0.78470  1.0000
  H   H1283     1.0  0.01088  0.54364  0.68820  1.0000
  C   C1583     1.0  0.30137  0.72402  0.98214  1.0000
  C   C1584     1.0  0.01285  0.50310  0.85177  1.0000
  C   C1585     1.0  0.21084  0.58725  0.87599  1.0000
  S   S214      1.0  0.00684  0.59109  0.72660  1.0000
  H   H1284     1.0  0.26737  0.56346  0.85386  1.0000
  C   C1586     1.0  0.02717  0.59246  0.78007  1.0000
  S   S215      1.0  0.05672  0.56345  0.70672  1.0000
  H   H1285     1.0  0.08903  0.53152  0.67256  1.0000
  H   H1286     1.0  0.21068  0.66314  0.94232  1.0000
  Fe  Fe105     1.0  0.05230  0.60877  0.66982  1.0000
  H   H1287     1.0  0.35430  0.61920  0.97442  1.0000
  C   C1587     1.0  0.26920  0.63026  0.87962  1.0000
  H   H1288     1.0  0.48231  0.71571  0.89436  1.0000
  C   C1588     1.0  0.14701  0.57851  0.79773  1.0000
  C   C1589     1.0  0.01071  0.56970  0.78094  1.0000
  H   H1289     1.0  0.35178  0.59296  0.96222  1.0000
  C   C1590     1.0  0.18705  0.48737  0.97518  1.0000
  C   C1591     1.0  0.30596  0.59552  0.97955  1.0000
  C   C1592     1.0  0.15645  0.51548  0.84042  1.0000
  H   H1290     1.0  0.00407  0.50706  0.76027  1.0000
  C   C1593     1.0  0.13238  0.58709  0.81006  1.0000
  H   H1291     1.0  0.13468  0.51252  0.82996  1.0000
  H   H1292     1.0  0.33350  0.65172  0.97109  1.0000
  C   C1594     1.0  0.33899  0.59276  0.97243  1.0000
  H   H1293     1.0  0.25642  0.51721  0.85116  1.0000
  H   H1294     1.0  0.02815  0.49580  0.80692  1.0000
  C   C1595     1.0  0.17021  0.65513  0.98402  1.0000
  H   H1295     1.0  0.05916  0.53460  0.89230  1.0000
  C   C1596     1.0  0.33095  0.65999  0.98106  1.0000
  C   C1597     1.0  0.13840  0.60117  0.96597  1.0000
  H   H1296     1.0  0.99679  0.49469  0.70995  1.0000
  C   C1598     1.0  0.07391  0.57276  0.91998  1.0000
  C   C1599     1.0  0.36872  0.61477  0.97508  1.0000
  C   C1600     1.0  0.04453  0.52043  0.95558  1.0000
  H   H1297     1.0  0.49274  0.70667  0.96382  1.0000
  C   C1601     1.0  0.07916  0.50963  0.93044  1.0000
  H   H1298     1.0  0.31153  0.50145  0.88786  1.0000
  H   H1299     1.0  0.13034  0.59072  0.97116  1.0000
  H   H1300     1.0  0.42015  0.60119  0.97827  1.0000
  C   C1602     1.0  0.21080  0.56948  0.97838  1.0000
  H   H1301     1.0  0.06207  0.66571  0.65202  1.0000
  H   H1302     1.0  0.16999  0.51270  0.98174  1.0000
  H   H1303     1.0  0.16661  0.68346  0.98427  1.0000
  P   P52       1.0  0.17473  0.61844  0.98353  1.0000
  C   C1603     1.0  0.22670  0.57163  0.98200  1.0000
  Fe  Fe106     1.0  0.43371  0.82685  0.13005  1.0000
  S   S216      1.0  0.44524  0.83061  0.09982  1.0000
  S   S217      1.0  0.40953  0.81455  0.14736  1.0000
  Fe  Fe107     1.0  0.45982  0.84749  0.13577  1.0000
  S   S218      1.0  0.47346  0.85294  0.10579  1.0000
  S   S219      1.0  0.46573  0.85354  0.16045  1.0000
  Fe  Fe108     1.0  0.44486  0.85905  0.10070  1.0000
  S   S220      1.0  0.43425  0.88369  0.08028  1.0000
  Fe  Fe109     1.0  0.47284  0.82398  0.10718  1.0000
  C   C1604     1.0  0.48836  0.88415  0.17920  1.0000
  S   S221      1.0  0.43115  0.85610  0.13058  1.0000
  S   S222      1.0  0.46134  0.81789  0.13745  1.0000
  C   C1605     1.0  0.32068  0.80257  0.99425  1.0000
  C   C1606     1.0  0.25927  0.76493  0.17575  1.0000
  S   S223      1.0  0.40656  0.88032  0.01174  1.0000
  S   S224      1.0  0.40901  0.79780  0.00442  1.0000
  C   C1607     1.0  0.44029  0.75132  0.10544  1.0000
  S   S225      1.0  0.43782  0.83288  0.00028  1.0000
  C   C1608     1.0  0.48168  0.75993  0.03990  1.0000
  C   C1609     1.0  0.31044  0.85284  0.99133  1.0000
  C   C1610     1.0  0.47961  0.87105  0.17798  1.0000
  H   H1304     1.0  0.39539  0.90905  0.21163  1.0000
  H   H1305     1.0  0.32410  0.78843  0.02989  1.0000
  H   H1306     1.0  0.27841  0.79992  0.99097  1.0000
  C   C1611     1.0  0.37214  0.93159  0.21377  1.0000
  H   H1307     1.0  0.43754  0.76658  0.06083  1.0000
  C   C1612     1.0  0.47009  0.89873  0.27764  1.0000
  H   H1308     1.0  0.43957  0.81178  0.17874  1.0000
  H   H1309     1.0  0.47142  0.77719  0.99139  1.0000
  H   H1310     1.0  0.33700  0.74840  0.16861  1.0000
  C   C1613     1.0  0.33023  0.78472  0.99273  1.0000
  H   H1311     1.0  0.43460  0.94350  0.27508  1.0000
  C   C1614     1.0  0.46214  0.75555  0.14572  1.0000
  Fe  Fe110     1.0  0.41908  0.86008  0.99336  1.0000
  S   S226      1.0  0.47599  0.89646  0.25467  1.0000
  C   C1615     1.0  0.34394  0.80560  0.01662  1.0000
  H   H1312     1.0  0.42516  0.90339  0.11468  1.0000
  C   C1616     1.0  0.40201  0.79492  0.14798  1.0000
  C   C1617     1.0  0.40686  0.78610  0.13323  1.0000
  C   C1618     1.0  0.39951  0.77085  0.13481  1.0000
  C   C1619     1.0  0.38766  0.76434  0.15117  1.0000
  C   C1620     1.0  0.38291  0.77329  0.16567  1.0000
  C   C1621     1.0  0.38986  0.78852  0.16401  1.0000
  H   H1313     1.0  0.41590  0.79121  0.12062  1.0000
  H   H1314     1.0  0.40268  0.76432  0.12338  1.0000
  H   H1315     1.0  0.37366  0.76848  0.17827  1.0000
  H   H1316     1.0  0.38580  0.79541  0.17532  1.0000
  C   C1622     1.0  0.42765  0.88157  0.06102  1.0000
  C   C1623     1.0  0.43085  0.86483  0.05587  1.0000
  C   C1624     1.0  0.42488  0.86414  0.04046  1.0000
  C   C1625     1.0  0.41556  0.88014  0.03038  1.0000
  C   C1626     1.0  0.41230  0.89667  0.03572  1.0000
  C   C1627     1.0  0.41851  0.89741  0.05074  1.0000
  H   H1317     1.0  0.43782  0.85249  0.06376  1.0000
  H   H1318     1.0  0.42704  0.85125  0.03667  1.0000
  H   H1319     1.0  0.40494  0.90904  0.02816  1.0000
  H   H1320     1.0  0.41593  0.91036  0.05461  1.0000
  C   C1628     1.0  0.46385  0.96056  0.17059  1.0000
  C   C1629     1.0  0.45373  0.77246  0.13617  1.0000
  H   H1321     1.0  0.39900  0.78039  0.20867  1.0000
  C   C1630     1.0  0.46220  0.88424  0.30980  1.0000
  H   H1322     1.0  0.46140  0.90163  0.99280  1.0000
  C   C1631     1.0  0.44759  0.96237  0.18407  1.0000
  C   C1632     1.0  0.48663  0.88008  0.14494  1.0000
  C   C1633     1.0  0.39003  0.92323  0.20595  1.0000
  H   H1323     1.0  0.46891  0.87042  0.28760  1.0000
  H   H1324     1.0  0.36597  0.82041  0.00781  1.0000
  C   C1634     1.0  0.43506  0.76291  0.08970  1.0000
  C   C1635     1.0  0.46026  0.77808  0.11732  1.0000
  H   H1325     1.0  0.45396  0.79122  0.11007  1.0000
  H   H1326     1.0  0.44216  0.78136  0.14316  1.0000
  C   C1636     1.0  0.45259  0.73990  0.07204  1.0000
  H   H1327     1.0  0.25631  0.76801  0.18919  1.0000
  C   C1637     1.0  0.45565  0.93622  0.16288  1.0000
  C   C1638     1.0  0.43907  0.93818  0.17615  1.0000
  C   C1639     1.0  0.43532  0.95111  0.18700  1.0000
  P   P53       1.0  0.42403  0.92259  0.18094  1.0000
  C   C1640     1.0  0.42413  0.91683  0.15983  1.0000
  C   C1641     1.0  0.43251  0.90230  0.19686  1.0000
  C   C1642     1.0  0.42905  0.88542  0.19729  1.0000
  C   C1643     1.0  0.43542  0.86979  0.20977  1.0000
  C   C1644     1.0  0.44518  0.87091  0.22199  1.0000
  C   C1645     1.0  0.44862  0.88765  0.22169  1.0000
  C   C1646     1.0  0.44230  0.90330  0.20922  1.0000
  C   C1647     1.0  0.40996  0.92548  0.15023  1.0000
  C   C1648     1.0  0.41036  0.92067  0.13399  1.0000
  C   C1649     1.0  0.42484  0.90721  0.12723  1.0000
  C   C1650     1.0  0.41106  0.73837  0.03863  1.0000
  C   C1651     1.0  0.43859  0.90341  0.15287  1.0000
  C   C1652     1.0  0.40082  0.93318  0.19103  1.0000
  C   C1653     1.0  0.39339  0.95156  0.18401  1.0000
  C   C1654     1.0  0.47851  0.86905  0.16091  1.0000
  C   C1655     1.0  0.29129  0.86897  0.01497  1.0000
  H   H1328     1.0  0.43570  0.75579  0.11823  1.0000
  H   H1329     1.0  0.45947  0.92575  0.15500  1.0000
  C   C1656     1.0  0.43635  0.95745  0.27152  1.0000
  H   H1330     1.0  0.42159  0.88425  0.18788  1.0000
  H   H1331     1.0  0.43310  0.85675  0.20971  1.0000
  H   H1332     1.0  0.45031  0.85879  0.23153  1.0000
  H   H1333     1.0  0.45634  0.88851  0.23106  1.0000
  H   H1334     1.0  0.44519  0.91607  0.20927  1.0000
  H   H1335     1.0  0.39858  0.93587  0.15516  1.0000
  H   H1336     1.0  0.39942  0.92733  0.12662  1.0000
  C   C1657     1.0  0.47400  0.83171  0.03063  1.0000
  H   H1337     1.0  0.48018  0.77131  0.09325  1.0000
  H   H1338     1.0  0.44957  0.89664  0.16005  1.0000
  H   H1339     1.0  0.40146  0.95945  0.17246  1.0000
  C   C1658     1.0  0.34417  0.78380  0.04580  1.0000
  C   C1659     1.0  0.36719  0.80204  0.03364  1.0000
  C   C1660     1.0  0.46791  0.94744  0.16006  1.0000
  H   H1340     1.0  0.06718  0.75233  0.30309  1.0000
  C   C1661     1.0  0.32118  0.77246  0.99061  1.0000
  C   C1662     1.0  0.44138  0.75732  0.07301  1.0000
  H   H1341     1.0  0.37932  0.80564  0.03466  1.0000
  H   H1342     1.0  0.36601  0.78190  0.05889  1.0000
  C   C1663     1.0  0.46777  0.91536  0.28257  1.0000
  H   H1343     1.0  0.48890  0.88565  0.19247  1.0000
  C   C1664     1.0  0.49382  0.94123  0.30546  1.0000
  C   C1665     1.0  0.33623  0.79230  0.03062  1.0000
  C   C1666     1.0  0.29815  0.86845  0.99644  1.0000
  C   C1667     1.0  0.47400  0.77268  0.00500  1.0000
  C   C1668     1.0  0.46718  0.75789  0.01683  1.0000
  H   H1344     1.0  0.35334  0.84661  0.98737  1.0000
  C   C1669     1.0  0.47497  0.76679  0.10781  1.0000
  H   H1345     1.0  0.45940  0.78522  0.16627  1.0000
  H   H1346     1.0  0.47531  0.83809  0.00156  1.0000
  S   S227      1.0  0.47951  0.93087  0.20793  1.0000
  H   H1347     1.0  0.47349  0.86252  0.19038  1.0000
  C   C1670     1.0  0.42752  0.96902  0.28376  1.0000
  H   H1348     1.0  0.44492  0.97207  0.19269  1.0000
  C   C1671     1.0  0.48771  0.79012  0.19198  1.0000
  H   H1349     1.0  0.39737  0.74676  0.04158  1.0000
  H   H1350     1.0  0.48444  0.76369  0.17149  1.0000
  P   P54       1.0  0.33243  0.81780  0.99805  1.0000
  C   C1672     1.0  0.48311  0.74976  0.11713  1.0000
  C   C1673     1.0  0.44060  0.76731  0.18047  1.0000
  C   C1674     1.0  0.31608  0.83767  0.00477  1.0000
  C   C1675     1.0  0.39071  0.77440  0.00007  1.0000
  H   H1351     1.0  0.29128  0.85424  0.04280  1.0000
  C   C1676     1.0  0.47673  0.74412  0.13601  1.0000
  H   H1352     1.0  0.45927  0.75139  0.01208  1.0000
  H   H1353     1.0  0.45946  0.92944  0.30502  1.0000
  H   H1354     1.0  0.48502  0.75494  0.05330  1.0000
  H   H1355     1.0  0.29426  0.82172  0.99460  1.0000
  C   C1677     1.0  0.30247  0.77790  0.99013  1.0000
  C   C1678     1.0  0.47084  0.75150  0.03442  1.0000
  C   C1679     1.0  0.31788  0.73818  0.16047  1.0000
  H   H1356     1.0  0.36709  0.75072  0.03523  1.0000
  H   H1357     1.0  0.00089  0.75579  0.31202  1.0000
  H   H1358     1.0  0.45015  0.88806  0.13158  1.0000
  H   H1359     1.0  0.34471  0.78027  0.99316  1.0000
  H   H1360     1.0  0.37606  0.75608  0.99684  1.0000
  H   H1361     1.0  0.43229  0.75154  0.00082  1.0000
  H   H1362     1.0  0.35609  0.76805  0.12580  1.0000
  H   H1363     1.0  0.42784  0.90848  0.99414  1.0000
  C   C1680     1.0  0.46712  0.88328  0.29131  1.0000
  H   H1364     1.0  0.48017  0.94828  0.30318  1.0000
  H   H1365     1.0  0.42323  0.95218  0.19808  1.0000
  H   H1366     1.0  0.37600  0.76366  0.09562  1.0000
  H   H1367     1.0  0.39013  0.76856  0.01446  1.0000
  Fe  Fe111     1.0  0.41977  0.82283  0.98873  1.0000
  C   C1681     1.0  0.46191  0.91652  0.30120  1.0000
  C   C1682     1.0  0.29664  0.85383  0.02843  1.0000
  H   H1368     1.0  0.31290  0.82664  0.03401  1.0000
  C   C1683     1.0  0.43542  0.79882  0.18305  1.0000
  H   H1369     1.0  0.42611  0.77620  0.09047  1.0000
  H   H1370     1.0  0.31013  0.75173  0.15576  1.0000
  C   C1684     1.0  0.35965  0.78868  0.04730  1.0000
  H   H1371     1.0  0.36392  0.92386  0.22535  1.0000
  H   H1372     1.0  0.45518  0.95459  0.24564  1.0000
  H   H1373     1.0  0.40956  0.80943  0.19996  1.0000
  P   P55       1.0  0.45443  0.74820  0.17019  1.0000
  C   C1685     1.0  0.38289  0.76723  0.99005  1.0000
  C   C1686     1.0  0.42338  0.76622  0.19252  1.0000
  C   C1687     1.0  0.44789  0.96370  0.25493  1.0000
  C   C1688     1.0  0.44657  0.78373  0.17598  1.0000
  H   H1374     1.0  0.48983  0.79266  0.00117  1.0000
  C   C1689     1.0  0.41838  0.79757  0.19494  1.0000
  H   H1375     1.0  0.45934  0.83742  0.03410  1.0000
  S   S228      1.0  0.47932  0.98249  0.20131  1.0000
  H   H1376     1.0  0.41795  0.75408  0.19599  1.0000
  C   C1690     1.0  0.43895  0.89860  0.13669  1.0000
  C   C1691     1.0  0.27656  0.74538  0.15429  1.0000
  C   C1692     1.0  0.41242  0.78123  0.19979  1.0000
  H   H1377     1.0  0.47619  0.78443  0.20082  1.0000
  H   H1378     1.0  0.47012  0.92732  0.27204  1.0000
  H   H1379     1.0  0.36987  0.97407  0.18642  1.0000
  H   H1380     1.0  0.48087  0.94544  0.15013  1.0000
  H   H1381     1.0  0.33858  0.77315  0.05629  1.0000
  Fe  Fe112     1.0  0.49327  0.95267  0.20816  1.0000
  C   C1693     1.0  0.37549  0.95987  0.19186  1.0000
  H   H1382     1.0  0.26954  0.75401  0.12761  1.0000
  H   H1383     1.0  0.47704  0.82391  0.05867  1.0000
  C   C1694     1.0  0.02188  0.74550  0.29049  1.0000
  C   C1695     1.0  0.45945  0.90082  0.31485  1.0000
  C   C1696     1.0  0.35948  0.81043  0.01832  1.0000
  C   C1697     1.0  0.38580  0.87572  0.08518  1.0000
  C   C1698     1.0  0.38979  0.87091  0.10255  1.0000
  C   C1699     1.0  0.39194  0.85277  0.11207  1.0000
  C   C1700     1.0  0.39039  0.83935  0.10414  1.0000
  C   C1701     1.0  0.38631  0.84404  0.08665  1.0000
  C   C1702     1.0  0.38419  0.86238  0.07719  1.0000
  P   P56       1.0  0.38600  0.82647  0.07562  1.0000
  C   C1703     1.0  0.40950  0.81694  0.06530  1.0000
  C   C1704     1.0  0.37654  0.80806  0.09178  1.0000
  C   C1705     1.0  0.38058  0.79097  0.08719  1.0000
  C   C1706     1.0  0.37293  0.77675  0.09930  1.0000
  C   C1707     1.0  0.36148  0.77932  0.11620  1.0000
  C   C1708     1.0  0.35727  0.79632  0.12082  1.0000
  C   C1709     1.0  0.36447  0.81076  0.10853  1.0000
  C   C1710     1.0  0.41374  0.81100  0.04880  1.0000
  C   C1711     1.0  0.43196  0.80332  0.04122  1.0000
  C   C1712     1.0  0.44605  0.80173  0.04993  1.0000
  C   C1713     1.0  0.44192  0.80712  0.06656  1.0000
  C   C1714     1.0  0.42369  0.81458  0.07428  1.0000
  C   C1715     1.0  0.37215  0.83614  0.05851  1.0000
  C   C1716     1.0  0.37924  0.84662  0.04151  1.0000
  C   C1717     1.0  0.36835  0.85463  0.02850  1.0000
  C   C1718     1.0  0.35041  0.85201  0.03220  1.0000
  C   C1719     1.0  0.34327  0.84150  0.04904  1.0000
  C   C1720     1.0  0.35404  0.83366  0.06220  1.0000
  H   H1384     1.0  0.38466  0.88973  0.07758  1.0000
  H   H1385     1.0  0.39172  0.88118  0.10841  1.0000
  H   H1386     1.0  0.39521  0.84902  0.12548  1.0000
  H   H1387     1.0  0.39280  0.82528  0.11157  1.0000
  H   H1388     1.0  0.38179  0.86650  0.06345  1.0000
  H   H1389     1.0  0.38953  0.78859  0.07422  1.0000
  C   C1721     1.0  0.30895  0.83821  0.02338  1.0000
  H   H1390     1.0  0.34859  0.79822  0.13405  1.0000
  H   H1391     1.0  0.36065  0.82392  0.11222  1.0000
  H   H1392     1.0  0.40313  0.81223  0.04169  1.0000
  H   H1393     1.0  0.43513  0.79865  0.02852  1.0000
  H   H1394     1.0  0.46015  0.79626  0.04388  1.0000
  H   H1395     1.0  0.45286  0.80541  0.07352  1.0000
  H   H1396     1.0  0.42071  0.81835  0.08732  1.0000
  H   H1397     1.0  0.39311  0.84887  0.03838  1.0000
  H   H1398     1.0  0.37386  0.86309  0.01563  1.0000
  H   H1399     1.0  0.34206  0.85820  0.02204  1.0000
  H   H1400     1.0  0.32937  0.83946  0.05195  1.0000
  H   H1401     1.0  0.34816  0.82572  0.07520  1.0000
  C   C1722     1.0  0.25365  0.77246  0.14513  1.0000
  C   C1723     1.0  0.24988  0.77649  0.16244  1.0000
  C   C1724     1.0  0.45045  0.98157  0.25053  1.0000
  C   C1725     1.0  0.27250  0.74938  0.17174  1.0000
  H   H1402     1.0  0.24632  0.78140  0.13483  1.0000
  H   H1403     1.0  0.23966  0.78856  0.16555  1.0000
  C   C1726     1.0  0.48743  0.74930  0.17751  1.0000
  Fe  Fe113     1.0  0.49172  0.91509  0.23220  1.0000
  C   C1727     1.0  0.48454  0.78123  0.01053  1.0000
  C   C1728     1.0  0.36487  0.94990  0.20675  1.0000
  C   C1729     1.0  0.29288  0.79570  0.99148  1.0000
  S   S229      1.0  0.37780  0.74547  0.15444  1.0000
  H   H1404     1.0  0.47111  0.81061  0.17468  1.0000
  C   C1730     1.0  0.48394  0.82404  0.04444  1.0000
  C   C1731     1.0  0.48855  0.77472  0.02795  1.0000
  H   H1405     1.0  0.48571  0.87885  0.13171  1.0000
  H   H1406     1.0  0.41910  0.96402  0.29693  1.0000
  H   H1407     1.0  0.43413  0.74041  0.14752  1.0000
  C   C1732     1.0  0.43668  0.75456  0.98608  1.0000
  H   H1408     1.0  0.47357  0.96888  0.16885  1.0000
  H   H1409     1.0  0.35103  0.95636  0.21288  1.0000
  H   H1410     1.0  0.16287  0.74082  0.11999  1.0000
  C   C1733     1.0  0.33310  0.73639  0.16775  1.0000
  C   C1734     1.0  0.48482  0.80468  0.17718  1.0000
  C   C1735     1.0  0.48299  0.83209  0.01231  1.0000
  C   C1736     1.0  0.06570  0.73881  0.31085  1.0000
  C   C1737     1.0  0.26688  0.75692  0.14107  1.0000
  C   C1738     1.0  0.30194  0.80804  0.99351  1.0000
  H   H1411     1.0  0.02643  0.75823  0.28493  1.0000
  H   H1412     1.0  0.28183  0.88111  0.01890  1.0000
  C   C1739     1.0  0.00739  0.74402  0.30593  1.0000
  H   H1413     1.0  0.42086  0.74909  0.05555  1.0000
  C   C1740     1.0  0.49584  0.89286  0.14613  1.0000
  S   S230      1.0  0.36961  0.74317  0.07310  1.0000
  H   H1414     1.0  0.32142  0.74325  0.12259  1.0000
  H   H1415     1.0  0.49453  0.74105  0.10971  1.0000
  C   C1741     1.0  0.47528  0.73827  0.17890  1.0000
  C   C1742     1.0  0.39906  0.78926  0.99158  1.0000
  S   S231      1.0  0.49609  0.80509  0.09220  1.0000
  H   H1416     1.0  0.27960  0.74047  0.18224  1.0000
  H   H1417     1.0  0.32878  0.75875  0.98931  1.0000
  C   C1743     1.0  0.31507  0.73753  0.11534  1.0000
  C   C1744     1.0  0.32103  0.73986  0.09631  1.0000
  C   C1745     1.0  0.36477  0.73718  0.04175  1.0000
  H   H1418     1.0  0.33196  0.74707  0.08919  1.0000
  H   H1419     1.0  0.44256  0.78014  0.98527  1.0000
  C   C1746     1.0  0.42469  0.73983  0.04641  1.0000
  H   H1420     1.0  0.29401  0.88018  0.98599  1.0000
  H   H1421     1.0  0.29543  0.76833  0.98872  1.0000
  Fe  Fe114     1.0  0.43286  0.96722  0.34473  1.0000
  S   S232      1.0  0.42507  0.96651  0.37479  1.0000
  C   C1747     1.0  0.01113  0.82804  0.38128  1.0000
  Fe  Fe115     1.0  0.44419  0.92656  0.34933  1.0000
  S   S233      1.0  0.43721  0.92218  0.38003  1.0000
  H   H1422     1.0  0.36599  0.92917  0.59107  1.0000
  Fe  Fe116     1.0  0.41183  0.94380  0.37663  1.0000
  S   S234      1.0  0.38427  0.94110  0.39537  1.0000
  S   S235      1.0  0.41737  0.94622  0.34631  1.0000
  Fe  Fe117     1.0  0.10516  0.80303  0.48516  1.0000
  S   S236      1.0  0.12175  0.79562  0.50675  1.0000
  S   S237      1.0  0.11720  0.79103  0.45982  1.0000
  Fe  Fe118     1.0  0.07219  0.82452  0.50786  1.0000
  S   S238      1.0  0.08605  0.81920  0.53144  1.0000
  S   S239      1.0  0.04280  0.84124  0.50885  1.0000
  Fe  Fe119     1.0  0.11134  0.82487  0.50993  1.0000
  S   S240      1.0  0.13455  0.83651  0.51243  1.0000
  Fe  Fe120     1.0  0.09568  0.79064  0.52666  1.0000
  S   S241      1.0  0.09359  0.76613  0.54977  1.0000
  S   S242      1.0  0.09672  0.83269  0.48642  1.0000
  S   S243      1.0  0.07998  0.79540  0.50497  1.0000
  C   C1748     1.0  0.41859  0.93578  0.64276  1.0000
  Fe  Fe121     1.0  0.06904  0.76417  0.39825  1.0000
  H   H1423     1.0  0.49452  0.93147  0.41826  1.0000
  S   S244      1.0  0.07464  0.79001  0.40141  1.0000
  C   C1749     1.0  0.44159  0.81269  0.44859  1.0000
  H   H1424     1.0  0.12912  0.90988  0.59511  1.0000
  S   S245      1.0  0.05885  0.75343  0.34065  1.0000
  S   S246      1.0  0.04345  0.76663  0.38849  1.0000
  Fe  Fe122     1.0  0.16955  0.90656  0.54568  1.0000
  S   S247      1.0  0.16834  0.92277  0.56629  1.0000
  S   S248      1.0  0.14259  0.90135  0.54342  1.0000
  Fe  Fe123     1.0  0.21137  0.90147  0.53351  1.0000
  S   S249      1.0  0.21340  0.91642  0.55328  1.0000
  S   S250      1.0  0.23610  0.88982  0.51346  1.0000
  Fe  Fe124     1.0  0.19297  0.90149  0.57352  1.0000
  S   S251      1.0  0.19486  0.88867  0.60302  1.0000
  Fe  Fe125     1.0  0.18889  0.93654  0.54449  1.0000
  S   S252      1.0  0.19366  0.96492  0.53845  1.0000
  S   S253      1.0  0.19287  0.88431  0.55447  1.0000
  S   S254      1.0  0.18811  0.92255  0.52307  1.0000
  H   H1425     1.0  0.33875  0.87836  0.62300  1.0000
  C   C1750     1.0  0.41461  0.88943  0.45970  1.0000
  Fe  Fe126     1.0  0.35984  0.93866  0.49638  1.0000
  S   S255      1.0  0.33108  0.94569  0.49175  1.0000
  S   S256      1.0  0.38610  0.94225  0.47569  1.0000
  Fe  Fe127     1.0  0.34801  0.92411  0.53701  1.0000
  S   S257      1.0  0.31805  0.92955  0.53657  1.0000
  S   S258      1.0  0.36110  0.91044  0.56105  1.0000
  Fe  Fe128     1.0  0.32813  0.91878  0.51081  1.0000
  S   S259      1.0  0.31792  0.89786  0.50363  1.0000
  Fe  Fe129     1.0  0.32306  0.95603  0.51774  1.0000
  C   C1751     1.0  0.33022  0.95647  0.64167  1.0000
  S   S260      1.0  0.35781  0.91078  0.51296  1.0000
  S   S261      1.0  0.35211  0.95164  0.52067  1.0000
  H   H1426     1.0  0.41272  0.83980  0.42115  1.0000
  C   C1752     1.0  0.03313  0.82153  0.45345  1.0000
  C   C1753     1.0  0.34865  0.89278  0.59567  1.0000
  C   C1754     1.0  0.34472  0.90786  0.58167  1.0000
  C   C1755     1.0  0.32807  0.92074  0.58442  1.0000
  C   C1756     1.0  0.31541  0.91850  0.60136  1.0000
  H   H1427     1.0  0.48490  0.91736  0.32312  1.0000
  H   H1428     1.0  0.36131  0.88268  0.59332  1.0000
  H   H1429     1.0  0.32503  0.93240  0.57355  1.0000
  H   H1430     1.0  0.30250  0.92836  0.60361  1.0000
  C   C1757     1.0  0.34376  0.92639  0.63510  1.0000
  C   C1758     1.0  0.30849  0.98431  0.59478  1.0000
  C   C1759     1.0  0.25826  0.89338  0.51124  1.0000
  C   C1760     1.0  0.27306  0.88336  0.50048  1.0000
  C   C1761     1.0  0.29109  0.88498  0.49850  1.0000
  C   C1762     1.0  0.29466  0.89691  0.50697  1.0000
  C   C1763     1.0  0.27990  0.90727  0.51766  1.0000
  C   C1764     1.0  0.26165  0.90543  0.51986  1.0000
  H   H1431     1.0  0.27057  0.87404  0.49383  1.0000
  H   H1432     1.0  0.30235  0.87688  0.49032  1.0000
  H   H1433     1.0  0.28254  0.91640  0.52442  1.0000
  H   H1434     1.0  0.25029  0.91318  0.52825  1.0000
  C   C1765     1.0  0.20241  0.89850  0.61686  1.0000
  C   C1766     1.0  0.21296  0.91190  0.60968  1.0000
  C   C1767     1.0  0.21825  0.91935  0.62163  1.0000
  H   H1435     1.0  0.43362  0.85322  0.46082  1.0000
  C   C1768     1.0  0.43275  0.84358  0.45357  1.0000
  H   H1436     1.0  0.23580  0.94873  0.52075  1.0000
  H   H1437     1.0  0.21692  0.91658  0.59500  1.0000
  H   H1438     1.0  0.45078  0.82143  0.46792  1.0000
  S   S262      1.0  0.01330  0.73773  0.42789  1.0000
  H   H1439     1.0  0.15481  0.96950  0.55726  1.0000
  C   C1769     1.0  0.13627  0.85407  0.52211  1.0000
  C   C1770     1.0  0.12080  0.86538  0.53085  1.0000
  C   C1771     1.0  0.12298  0.87960  0.53752  1.0000
  C   C1772     1.0  0.14063  0.88248  0.53590  1.0000
  C   C1773     1.0  0.15611  0.87088  0.52758  1.0000
  C   C1774     1.0  0.15390  0.85689  0.52061  1.0000
  H   H1440     1.0  0.10716  0.86327  0.53235  1.0000
  H   H1441     1.0  0.11092  0.88847  0.54394  1.0000
  H   H1442     1.0  0.16976  0.87294  0.52615  1.0000
  H   H1443     1.0  0.16597  0.84824  0.51392  1.0000
  C   C1775     1.0  0.10242  0.79108  0.44604  1.0000
  C   C1776     1.0  0.10035  0.77447  0.44411  1.0000
  C   C1777     1.0  0.09137  0.77393  0.43085  1.0000
  C   C1778     1.0  0.08442  0.79012  0.41938  1.0000
  C   C1779     1.0  0.08592  0.80683  0.42171  1.0000
  C   C1780     1.0  0.09486  0.80733  0.43501  1.0000
  H   H1444     1.0  0.10611  0.76194  0.45257  1.0000
  H   H1445     1.0  0.09035  0.76100  0.42910  1.0000
  H   H1446     1.0  0.08050  0.81940  0.41292  1.0000
  H   H1447     1.0  0.09647  0.82022  0.43629  1.0000
  C   C1781     1.0  0.11631  0.98263  0.62376  1.0000
  H   H1448     1.0  0.47584  0.90579  0.38686  1.0000
  C   C1782     1.0  0.39566  0.96188  0.62118  1.0000
  S   S263      1.0  0.46041  0.94782  0.34524  1.0000
  H   H1449     1.0  0.12050  0.94326  0.58343  1.0000
  C   C1783     1.0  0.02534  0.83085  0.50834  1.0000
  C   C1784     1.0  0.99845  0.78836  0.55490  1.0000
  C   C1785     1.0  0.38803  0.95114  0.63774  1.0000
  C   C1786     1.0  0.38506  0.94062  0.41783  1.0000
  C   C1787     1.0  0.40061  0.94365  0.42140  1.0000
  C   C1788     1.0  0.40079  0.94424  0.43921  1.0000
  C   C1789     1.0  0.38561  0.94134  0.45357  1.0000
  C   C1790     1.0  0.37022  0.93789  0.45010  1.0000
  C   C1791     1.0  0.36994  0.93755  0.43223  1.0000
  H   H1450     1.0  0.41248  0.94567  0.41046  1.0000
  H   H1451     1.0  0.41272  0.94692  0.44182  1.0000
  H   H1452     1.0  0.35859  0.93537  0.46116  1.0000
  H   H1453     1.0  0.35814  0.93461  0.42970  1.0000
  C   C1792     1.0  0.26053  0.86493  0.61456  1.0000
  C   C1793     1.0  0.47394  0.88000  0.38320  1.0000
  C   C1794     1.0  0.99884  0.74827  0.63823  1.0000
  H   H1454     1.0  0.39899  0.89579  0.59575  1.0000
  S   S264      1.0  0.30363  0.89954  0.63614  1.0000
  C   C1795     1.0  0.07413  0.74756  0.59754  1.0000
  C   C1796     1.0  0.33390  0.94426  0.63022  1.0000
  C   C1797     1.0  0.30140  0.97143  0.45270  1.0000
  C   C1798     1.0  0.21245  0.91385  0.64070  1.0000
  C   C1799     1.0  0.49203  0.93733  0.39022  1.0000
  H   H1455     1.0  0.01527  0.80840  0.54415  1.0000
  C   C1800     1.0  0.14369  0.94307  0.61507  1.0000
  C   C1801     1.0  0.44251  0.82551  0.45766  1.0000
  C   C1802     1.0  0.12802  0.93798  0.59434  1.0000
  C   C1803     1.0  0.31926  0.90312  0.61518  1.0000
  C   C1804     1.0  0.02602  0.80943  0.44827  1.0000
  S   S265      1.0  0.08736  0.74780  0.37766  1.0000
  H   H1456     1.0  0.44915  0.79870  0.45180  1.0000
  C   C1805     1.0  0.02972  0.82864  0.37416  1.0000
  H   H1457     1.0  0.05329  0.82425  0.46643  1.0000
  H   H1458     1.0  0.47980  0.98591  0.40683  1.0000
  H   H1459     1.0  0.06748  0.79120  0.47234  1.0000
  H   H1460     1.0  0.46386  0.87751  0.39587  1.0000
  C   C1806     1.0  0.23616  0.86798  0.56981  1.0000
  C   C1807     1.0  0.24590  0.86030  0.55470  1.0000
  C   C1808     1.0  0.26459  0.86052  0.54780  1.0000
  C   C1809     1.0  0.27352  0.86853  0.55588  1.0000
  H   H1461     1.0  0.22168  0.86780  0.57526  1.0000
  H   H1462     1.0  0.23887  0.85460  0.54806  1.0000
  H   H1463     1.0  0.27200  0.85496  0.53580  1.0000
  H   H1464     1.0  0.28789  0.86867  0.55005  1.0000
  H   H1465     1.0  0.33596  0.88469  0.53977  1.0000
  H   H1466     1.0  0.30207  0.89356  0.54747  1.0000
  C   C1810     1.0  0.42107  0.83598  0.43131  1.0000
  C   C1811     1.0  0.32867  0.86503  0.58526  1.0000
  H   H1467     1.0  0.15770  0.91840  0.63108  1.0000
  H   H1468     1.0  0.24903  0.97162  0.46309  1.0000
  C   C1812     1.0  0.99784  0.77261  0.58651  1.0000
  S   S266      1.0  0.26034  0.93874  0.62412  1.0000
  C   C1813     1.0  0.01717  0.74525  0.62840  1.0000
  C   C1814     1.0  0.99709  0.81446  0.50815  1.0000
  H   H1469     1.0  0.00556  0.75769  0.53842  1.0000
  C   C1815     1.0  0.00413  0.82513  0.40024  1.0000
  C   C1816     1.0  0.35965  0.95468  0.57222  1.0000
  C   C1817     1.0  0.14901  0.92410  0.62119  1.0000
  H   H1470     1.0  0.42121  0.96704  0.60250  1.0000
  C   C1818     1.0  0.24312  0.95822  0.49152  1.0000
  H   H1471     1.0  0.04357  0.75890  0.58067  1.0000
  C   C1819     1.0  0.45994  0.97168  0.64797  1.0000
  H   H1472     1.0  0.00514  0.75720  0.46675  1.0000
  C   C1820     1.0  0.11881  0.74228  0.52976  1.0000
  H   H1473     1.0  0.36411  0.98154  0.45355  1.0000
  C   C1821     1.0  0.28698  0.95427  0.48862  1.0000
  H   H1474     1.0  0.12609  0.74104  0.57406  1.0000
  C   C1822     1.0  0.13286  0.91914  0.60094  1.0000
  H   H1475     1.0  0.30877  0.95891  0.58885  1.0000
  H   H1476     1.0  0.37325  0.95312  0.64258  1.0000
  C   C1823     1.0  0.42635  0.94593  0.62597  1.0000
  C   C1824     1.0  0.01001  0.74269  0.47142  1.0000
  C   C1825     1.0  0.48063  0.89595  0.37812  1.0000
  P   P57       1.0  0.15050  0.95832  0.62449  1.0000
  H   H1477     1.0  0.43009  0.80800  0.42843  1.0000
  H   H1478     1.0  0.03530  0.83043  0.35952  1.0000
  H   H1479     1.0  0.32186  0.97006  0.63832  1.0000
  H   H1480     1.0  0.38323  0.91015  0.62230  1.0000
  H   H1481     1.0  0.38052  0.84663  0.62533  1.0000
  H   H1482     1.0  0.11055  0.97075  0.62650  1.0000
  C   C1826     1.0  0.42200  0.84898  0.44030  1.0000
  C   C1827     1.0  0.04926  0.78424  0.46007  1.0000
  H   H1483     1.0  0.23725  0.94562  0.55422  1.0000
  C   C1828     1.0  0.16515  0.89352  0.47508  1.0000
  C   C1829     1.0  0.15604  0.90309  0.48901  1.0000
  C   C1830     1.0  0.13679  0.90693  0.49404  1.0000
  C   C1831     1.0  0.12661  0.90090  0.48543  1.0000
  C   C1832     1.0  0.13567  0.89069  0.47186  1.0000
  C   C1833     1.0  0.15500  0.88758  0.46633  1.0000
  P   P58       1.0  0.12266  0.88336  0.46018  1.0000
  C   C1834     1.0  0.09963  0.88255  0.47362  1.0000
  C   C1835     1.0  0.12204  0.89973  0.43880  1.0000
  C   C1836     1.0  0.11100  0.91736  0.43878  1.0000
  C   C1837     1.0  0.11062  0.93031  0.42232  1.0000
  C   C1838     1.0  0.12143  0.92580  0.40582  1.0000
  C   C1839     1.0  0.13274  0.90837  0.40579  1.0000
  C   C1840     1.0  0.13315  0.89539  0.42224  1.0000
  C   C1841     1.0  0.08445  0.88801  0.46524  1.0000
  C   C1842     1.0  0.06684  0.88632  0.47574  1.0000
  C   C1843     1.0  0.06432  0.87903  0.49458  1.0000
  C   C1844     1.0  0.07941  0.87325  0.50293  1.0000
  C   C1845     1.0  0.09701  0.87485  0.49244  1.0000
  C   C1846     1.0  0.13231  0.86037  0.45671  1.0000
  C   C1847     1.0  0.14521  0.84840  0.46657  1.0000
  C   C1848     1.0  0.15118  0.83011  0.46515  1.0000
  C   C1849     1.0  0.14437  0.82363  0.45385  1.0000
  C   C1850     1.0  0.13153  0.83544  0.44397  1.0000
  C   C1851     1.0  0.12541  0.85371  0.44548  1.0000
  H   H1484     1.0  0.18009  0.89053  0.47126  1.0000
  H   H1485     1.0  0.16386  0.90728  0.49618  1.0000
  H   H1486     1.0  0.12981  0.91416  0.50503  1.0000
  H   H1487     1.0  0.11172  0.90409  0.48960  1.0000
  H   H1488     1.0  0.16226  0.88029  0.45548  1.0000
  H   H1489     1.0  0.10272  0.92107  0.45152  1.0000
  H   H1490     1.0  0.10201  0.94388  0.42239  1.0000
  H   H1491     1.0  0.44121  0.94410  0.62161  1.0000
  H   H1492     1.0  0.14127  0.90494  0.39304  1.0000
  H   H1493     1.0  0.14225  0.88208  0.42200  1.0000
  H   H1494     1.0  0.08622  0.89315  0.45059  1.0000
  H   H1495     1.0  0.05518  0.89023  0.46926  1.0000
  H   H1496     1.0  0.05075  0.87733  0.50265  1.0000
  H   H1497     1.0  0.07756  0.86699  0.51741  1.0000
  H   H1498     1.0  0.10870  0.86966  0.49890  1.0000
  H   H1499     1.0  0.15005  0.85283  0.47608  1.0000
  H   H1500     1.0  0.16052  0.82083  0.47346  1.0000
  H   H1501     1.0  0.14855  0.80932  0.45321  1.0000
  H   H1502     1.0  0.12580  0.83015  0.43575  1.0000
  H   H1503     1.0  0.11485  0.86247  0.43837  1.0000
  C   C1852     1.0  0.35665  0.89159  0.46184  1.0000
  C   C1853     1.0  0.34856  0.87656  0.46650  1.0000
  C   C1854     1.0  0.35875  0.86022  0.46139  1.0000
  C   C1855     1.0  0.37714  0.85882  0.45177  1.0000
  C   C1856     1.0  0.38550  0.87379  0.44731  1.0000
  C   C1857     1.0  0.37498  0.89026  0.45213  1.0000
  P   P59       1.0  0.40926  0.87227  0.43489  1.0000
  C   C1858     1.0  0.41019  0.87931  0.41054  1.0000
  C   C1859     1.0  0.42574  0.87212  0.39804  1.0000
  C   C1860     1.0  0.42686  0.87821  0.37917  1.0000
  C   C1861     1.0  0.41258  0.89158  0.37261  1.0000
  C   C1862     1.0  0.39711  0.89882  0.38492  1.0000
  C   C1863     1.0  0.39593  0.89280  0.40382  1.0000
  C   C1864     1.0  0.41948  0.88705  0.44154  1.0000
  C   C1865     1.0  0.44010  0.90790  0.43366  1.0000
  C   C1866     1.0  0.43236  0.89631  0.42859  1.0000
  H   H1504     1.0  0.33439  0.87761  0.47414  1.0000
  H   H1505     1.0  0.35237  0.84862  0.46500  1.0000
  H   H1506     1.0  0.38472  0.84604  0.44798  1.0000
  H   H1507     1.0  0.43903  0.87302  0.36950  1.0000
  H   H1508     1.0  0.41378  0.89670  0.35795  1.0000
  H   H1509     1.0  0.38631  0.90961  0.37982  1.0000
  H   H1510     1.0  0.38414  0.89916  0.41306  1.0000
  H   H1511     1.0  0.43623  0.89490  0.41451  1.0000
  C   C1867     1.0  0.20310  0.96647  0.61284  1.0000
  C   C1868     1.0  0.25814  0.88927  0.63604  1.0000
  C   C1869     1.0  0.13159  0.75075  0.39583  1.0000
  H   H1512     1.0  0.44056  0.91980  0.45543  1.0000
  S   S267      1.0  0.30241  0.98194  0.52190  1.0000
  H   H1513     1.0  0.13053  0.96438  0.59523  1.0000
  C   C1870     1.0  0.38646  0.98579  0.47520  1.0000
  H   H1514     1.0  0.04368  0.82147  0.41377  1.0000
  C   C1871     1.0  0.25163  0.87329  0.64411  1.0000
  H   H1515     1.0  0.12971  0.75851  0.38234  1.0000
  C   C1872     1.0  0.37188  0.86866  0.63968  1.0000
  H   H1516     1.0  0.25720  0.89869  0.64436  1.0000
  H   H1517     1.0  0.07094  0.75263  0.64668  1.0000
  C   C1873     1.0  0.00685  0.84055  0.51070  1.0000
  C   C1874     1.0  0.28748  0.97272  0.48461  1.0000
  H   H1518     1.0  0.28073  0.96574  0.38979  1.0000
  C   C1875     1.0  0.17857  0.98136  0.55031  1.0000
  H   H1519     1.0  0.09365  0.76493  0.58869  1.0000
  C   C1876     1.0  0.00975  0.78276  0.58757  1.0000
  H   H1520     1.0  0.00493  0.73858  0.35392  1.0000
  H   H1521     1.0  0.03949  0.76491  0.54902  1.0000
  H   H1522     1.0  0.38521  0.97424  0.48664  1.0000
  Fe  Fe130     1.0  0.28149  0.92416  0.64107  1.0000
  H   H1523     1.0  0.44919  0.97890  0.41995  1.0000
  P   P60       1.0  0.00695  0.81780  0.43683  1.0000
  C   C1877     1.0  0.30978  0.96986  0.41376  1.0000
  C   C1878     1.0  0.29371  0.94434  0.47476  1.0000
  C   C1879     1.0  0.30098  0.95284  0.45687  1.0000
  C   C1880     1.0  0.36606  0.98082  0.57842  1.0000
  C   C1881     1.0  0.38120  0.86046  0.62477  1.0000
  S   S268      1.0  0.28692  0.94968  0.64414  1.0000
  C   C1882     1.0  0.30841  0.94972  0.38939  1.0000
  C   C1883     1.0  0.32434  0.94627  0.39608  1.0000
  C   C1884     1.0  0.32498  0.95620  0.40829  1.0000
  C   C1885     1.0  0.29377  0.97316  0.40708  1.0000
  C   C1886     1.0  0.39113  0.87016  0.60903  1.0000
  C   C1887     1.0  0.39943  0.93834  0.64859  1.0000
  C   C1888     1.0  0.49339  0.89938  0.36160  1.0000
  C   C1889     1.0  0.08332  0.76015  0.61801  1.0000
  H   H1524     1.0  0.43638  0.97341  0.63744  1.0000
  H   H1525     1.0  0.12116  0.93586  0.39308  1.0000
  H   H1526     1.0  0.00225  0.82947  0.37214  1.0000
  C   C1890     1.0  0.15998  0.98087  0.55774  1.0000
  C   C1891     1.0  0.18142  0.95644  0.59540  1.0000
  H   H1527     1.0  0.28163  0.94760  0.50254  1.0000
  H   H1528     1.0  0.48734  0.97584  0.35976  1.0000
  C   C1892     1.0  0.20246  0.90007  0.64769  1.0000
  H   H1529     1.0  0.29361  0.92994  0.47800  1.0000
  H   H1530     1.0  0.30640  0.94479  0.44645  1.0000
  H   H1531     1.0  0.46925  0.97272  0.63467  1.0000
  H   H1532     1.0  0.30228  0.86581  0.60378  1.0000
  H   H1533     1.0  0.30793  0.94199  0.37993  1.0000
  H   H1534     1.0  0.33629  0.93594  0.39178  1.0000
  H   H1535     1.0  0.33744  0.95325  0.41330  1.0000
  C   C1893     1.0  0.48006  0.86748  0.37175  1.0000
  C   C1894     1.0  0.08457  0.75819  0.60033  1.0000
  C   C1895     1.0  0.07170  0.75132  0.63294  1.0000
  H   H1536     1.0  0.00345  0.85437  0.51273  1.0000
  C   C1896     1.0  0.01550  0.80481  0.50580  1.0000
  H   H1537     1.0  0.02477  0.75588  0.62514  1.0000
  H   H1538     1.0  0.39804  0.86392  0.59735  1.0000
  Fe  Fe131     1.0  0.26327  0.96406  0.63051  1.0000
  C   C1897     1.0  0.18487  0.96543  0.62153  1.0000
  H   H1539     1.0  0.30534  0.97933  0.60950  1.0000
  H   H1540     1.0  0.05886  0.73824  0.49299  1.0000
  C   C1898     1.0  0.14918  0.94878  0.64869  1.0000
  C   C1899     1.0  0.13369  0.94990  0.60112  1.0000
  C   C1900     1.0  0.24485  0.97339  0.47710  1.0000
  H   H1541     1.0  0.22460  0.96344  0.58866  1.0000
  C   C1901     1.0  0.37266  0.96974  0.59388  1.0000
  C   C1902     1.0  0.29311  0.96312  0.39493  1.0000
  C   C1903     1.0  0.01056  0.79826  0.55592  1.0000
  H   H1542     1.0  0.28257  0.98028  0.49543  1.0000
  C   C1904     1.0  0.15361  0.75086  0.47728  1.0000
  C   C1905     1.0  0.06115  0.74075  0.63016  1.0000
  C   C1906     1.0  0.36611  0.94358  0.58758  1.0000
  H   H1543     1.0  0.14105  0.75577  0.43404  1.0000
  H   H1544     1.0  0.01898  0.79096  0.50382  1.0000
  H   H1545     1.0  0.41170  0.97176  0.46015  1.0000
  Fe  Fe132     1.0  0.06136  0.74790  0.36999  1.0000
  C   C1907     1.0  0.04073  0.75116  0.55733  1.0000
  H   H1546     1.0  0.24794  0.84863  0.63963  1.0000
  H   H1547     1.0  0.22899  0.97929  0.52747  1.0000
  H   H1548     1.0  0.26150  0.85523  0.60651  1.0000
  C   C1908     1.0  0.13807  0.74898  0.42512  1.0000
  C   C1909     1.0  0.31021  0.97285  0.58314  1.0000
  C   C1910     1.0  0.39165  0.88815  0.60813  1.0000
  H   H1549     1.0  0.21163  0.96998  0.61976  1.0000
  Fe  Fe133     1.0  0.24054  0.93591  0.65135  1.0000
  H   H1550     1.0  0.12806  0.75198  0.47099  1.0000
  C   C1911     1.0  0.21043  0.96274  0.59534  1.0000
  H   H1551     1.0  0.37724  0.94229  0.61036  1.0000
  H   H1552     1.0  0.12719  0.75239  0.52493  1.0000
  H   H1553     1.0  0.14827  0.76335  0.48242  1.0000
  H   H1554     1.0  0.46035  0.87208  0.32025  1.0000
  H   H1555     1.0  0.32848  0.94838  0.61790  1.0000
  C   C1912     1.0  0.23770  0.96043  0.50961  1.0000
  C   C1913     1.0  0.41494  0.95901  0.61522  1.0000
  C   C1914     1.0  0.14209  0.74431  0.47080  1.0000
  C   C1915     1.0  0.03439  0.79076  0.45136  1.0000
  C   C1916     1.0  0.26556  0.89328  0.61719  1.0000
  H   H1556     1.0  0.24583  0.94471  0.48873  1.0000
  H   H1557     1.0  0.05595  0.76994  0.46211  1.0000
  C   C1917     1.0  0.05591  0.79628  0.46566  1.0000
  C   C1918     1.0  0.04797  0.81493  0.46221  1.0000
  H   H1558     1.0  0.27059  0.90566  0.61123  1.0000
  C   C1919     1.0  0.23390  0.97780  0.51336  1.0000
  H   H1559     1.0  0.17337  0.95240  0.58840  1.0000
  H   H1560     1.0  0.17938  0.96847  0.63501  1.0000
  H   H1561     1.0  0.35460  0.94883  0.56389  1.0000
  C   C1920     1.0  0.19959  0.95774  0.58665  1.0000
  H   H1562     1.0  0.02727  0.83604  0.45075  1.0000
  C   C1921     1.0  0.02951  0.81293  0.50596  1.0000
  C   C1922     1.0  0.30938  0.86977  0.58969  1.0000
  H   H1563     1.0  0.34872  0.90423  0.46593  1.0000
  H   H1564     1.0  0.18082  0.74670  0.48185  1.0000
  S   S269      1.0  0.45354  0.90079  0.33844  1.0000
  H   H1565     1.0  0.20526  0.95464  0.57317  1.0000
  H   H1566     1.0  0.01391  0.78090  0.60026  1.0000
  H   H1567     1.0  0.31419  0.97070  0.55526  1.0000
  H   H1568     1.0  0.33619  0.85757  0.59587  1.0000
  H   H1569     1.0  0.41777  0.90363  0.47847  1.0000
  H   H1570     1.0  0.44966  0.91538  0.42346  1.0000
  H   H1571     1.0  0.04353  0.80529  0.50412  1.0000
  C   C1923     1.0  0.17392  0.96023  0.61296  1.0000
  H   H1572     1.0  0.13819  0.77263  0.40296  1.0000
  H   H1573     1.0  0.02559  0.80325  0.57290  1.0000
  C   C1924     1.0  0.38245  0.89634  0.62306  1.0000
  C   C1925     1.0  0.32858  0.88047  0.55371  1.0000
  H   H1574     1.0  0.24455  0.91232  0.56555  1.0000
  H   H1575     1.0  0.05578  0.82643  0.38056  1.0000
  Fe  Fe134     1.0  0.45123  0.94503  0.37576  1.0000
  C   C1926     1.0  0.26376  0.87642  0.57101  1.0000
  C   C1927     1.0  0.30933  0.88538  0.55812  1.0000
  C   C1928     1.0  0.24938  0.93920  0.55994  1.0000
  H   H1576     1.0  0.25774  0.96440  0.55582  1.0000
  P   P61       1.0  0.38069  0.97949  0.60809  1.0000
  C   C1929     1.0  0.01569  0.82275  0.41225  1.0000
  H   H1577     1.0  0.38105  0.90201  0.44856  1.0000
  H   H1578     1.0  0.43719  0.86214  0.40281  1.0000
  H   H1579     1.0  0.40466  0.88252  0.46996  1.0000
  H   H1580     1.0  0.22623  0.92975  0.61611  1.0000
  C   C1930     1.0  0.25352  0.92029  0.56636  1.0000
  C   C1931     1.0  0.26089  0.94977  0.56087  1.0000
  H   H1581     1.0  0.09145  0.76841  0.62010  1.0000
  H   H1582     1.0  0.00417  0.79055  0.41791  1.0000
  H   H1583     1.0  0.35442  0.98177  0.55581  1.0000
  C   C1932     1.0  0.13644  0.75868  0.40741  1.0000
  C   C1933     1.0  0.24493  0.87623  0.57775  1.0000
  H   H1584     1.0  0.35323  0.86721  0.56394  1.0000
  C   C1934     1.0  0.35962  0.97327  0.56765  1.0000
  C   C1935     1.0  0.35905  0.98319  0.44141  1.0000
  C   C1936     1.0  0.33586  0.89028  0.61233  1.0000
  C   C1937     1.0  0.33828  0.87044  0.56729  1.0000
  C   C1938     1.0  0.26921  0.91174  0.57365  1.0000
  C   C1939     1.0  0.42222  0.90119  0.46467  1.0000
  C   C1940     1.0  0.29956  0.87993  0.57609  1.0000
  C   C1941     1.0  0.27649  0.94142  0.56827  1.0000
  C   C1942     1.0  0.01626  0.79544  0.57221  1.0000
  S   S270      1.0  0.46778  0.94323  0.39625  1.0000
  P   P62       1.0  0.27473  0.88722  0.58167  1.0000
  C   C1943     1.0  0.14362  0.91221  0.61413  1.0000
  C   C1944     1.0  0.03428  0.82360  0.40493  1.0000
  C   C1945     1.0  0.06198  0.73914  0.61236  1.0000
  C   C1946     1.0  0.28068  0.92246  0.57457  1.0000
  H   H1585     1.0  0.23693  0.88251  0.58917  1.0000
  C   C1947     1.0  0.43501  0.91036  0.45168  1.0000
  H   H1586     1.0  0.02965  0.78127  0.44680  1.0000
  C   C1948     1.0  0.43086  0.81793  0.43543  1.0000
  C   C1949     1.0  0.26636  0.88139  0.60622  1.0000
  C   C1950     1.0  0.37256  0.95107  0.59839  1.0000
  H   H1587     1.0  0.28546  0.94960  0.56894  1.0000
  C   C1951     1.0  0.04124  0.82650  0.38598  1.0000
  H   H1588     1.0  0.29292  0.91612  0.58006  1.0000
  H   H1589     1.0  0.37519  0.98571  0.64525  1.0000
  H   H1590     1.0  0.40404  0.98385  0.57095  1.0000
  H   H1591     1.0  0.47456  0.85532  0.37544  1.0000
  C   C1952     1.0  0.37237  0.88671  0.63890  1.0000
  P   P63       1.0  0.31066  0.98264  0.42963  1.0000
  H   H1592     1.0  0.00725  0.74995  0.50918  1.0000
  C   C1953     1.0  0.25298  0.86103  0.63340  1.0000
  C   C1954     1.0  0.10156  0.74585  0.54163  1.0000
  H   H1593     1.0  0.14833  0.89758  0.61845  1.0000
  H   H1594     1.0  0.18974  0.88184  0.64153  1.0000
  H   H1595     1.0  0.33199  0.98037  0.45665  1.0000
  H   H1596     1.0  0.03625  0.74549  0.47290  1.0000
  H   H1597     1.0  0.49406  0.94199  0.36126  1.0000
  C   C1955     1.0  0.17191  0.74150  0.47690  1.0000
  C   C1956     1.0  0.40147  0.98448  0.46028  1.0000
  C   C1957     1.0  0.31312  0.97959  0.56421  1.0000
  C   C1958     1.0  0.13532  0.98071  0.62201  1.0000
  C   C1959     1.0  0.49315  0.87075  0.35537  1.0000
  C   C1960     1.0  0.04058  0.73682  0.54989  1.0000
  C   C1961     1.0  0.04310  0.74768  0.57529  1.0000
  C   C1962     1.0  0.33430  0.98363  0.42755  1.0000
  C   C1963     1.0  0.44137  0.97199  0.64956  1.0000
  H   H1598     1.0  0.32963  0.98408  0.48814  1.0000
  C   C1964     1.0  0.19765  0.89234  0.63587  1.0000
  H   H1599     1.0  0.03907  0.73935  0.53588  1.0000
  H   H1600     1.0  0.99668  0.76541  0.36744  1.0000
  S   S271      1.0  0.06466  0.73978  0.42090  1.0000
  H   H1601     1.0  0.17735  0.93342  0.64503  1.0000
  H   H1602     1.0  0.34552  0.91690  0.62655  1.0000
  C   C1965     1.0  0.29469  0.98129  0.46676  1.0000
  H   H1603     1.0  0.38530  0.98518  0.42298  1.0000
  Fe  Fe135     1.0  0.04062  0.74085  0.40936  1.0000
  C   C1966     1.0  0.34080  0.98235  0.44312  1.0000
  H   H1604     1.0  0.07569  0.74594  0.58379  1.0000
  C   C1967     1.0  0.37100  0.98519  0.42419  1.0000
  H   H1605     1.0  0.28176  0.98342  0.41120  1.0000
  H   H1606     1.0  0.40237  0.89138  0.64855  1.0000
  C   C1968     1.0  0.02778  0.73598  0.47458  1.0000
  H   H1607     1.0  0.20225  0.98508  0.65078  1.0000
  C   C1969     1.0  0.35044  0.92067  0.65130  1.0000
  C   C1970     1.0  0.43583  0.96856  0.68239  1.0000
  C   C1971     1.0  0.48648  0.74420  0.92622  1.0000
  H   H1608     1.0  0.19807  0.89557  0.66235  1.0000
  S   S272      1.0  0.40996  0.86531  0.92881  1.0000
  S   S273      1.0  0.41603  0.94787  0.89802  1.0000
  C   C1972     1.0  0.44131  0.74706  0.95669  1.0000
  C   C1973     1.0  0.49398  0.81503  0.95344  1.0000
  S   S274      1.0  0.46084  0.95665  0.86189  1.0000
  C   C1974     1.0  0.34836  0.86946  0.68639  1.0000
  S   S275      1.0  0.37199  0.76721  0.95919  1.0000
  C   C1975     1.0  0.43756  0.90876  0.98103  1.0000
  H   H1609     1.0  0.45833  0.74307  0.89981  1.0000
  H   H1610     1.0  0.43001  0.95069  0.80370  1.0000
  H   H1611     1.0  0.46055  0.91079  0.81878  1.0000
  C   C1976     1.0  0.30148  0.96429  0.75206  1.0000
  H   H1612     1.0  0.26578  0.95935  0.73730  1.0000
  Fe  Fe136     1.0  0.38848  0.94863  0.73767  1.0000
  S   S276      1.0  0.40719  0.93595  0.75767  1.0000
  Fe  Fe137     1.0  0.36010  0.94365  0.71994  1.0000
  H   H1613     1.0  0.44686  0.88850  0.78079  1.0000
  S   S277      1.0  0.34412  0.92402  0.71878  1.0000
  Fe  Fe138     1.0  0.38955  0.96430  0.69709  1.0000
  S   S278      1.0  0.40618  0.97044  0.66830  1.0000
  S   S279      1.0  0.39110  0.93591  0.71407  1.0000
  C   C1977     1.0  0.47405  0.90859  0.89102  1.0000
  H   H1614     1.0  0.36628  0.81892  0.93352  1.0000
  H   H1615     1.0  0.47141  0.80220  0.96831  1.0000
  H   H1616     1.0  0.45183  0.86642  0.91053  1.0000
  C   C1978     1.0  0.48488  0.80060  0.95925  1.0000
  C   C1979     1.0  0.46317  0.88564  0.91680  1.0000
  C   C1980     1.0  0.46078  0.79052  0.91617  1.0000
  H   H1617     1.0  0.45947  0.96661  0.69292  1.0000
  H   H1618     1.0  0.47531  0.95201  0.79591  1.0000
  Fe  Fe139     1.0  0.26490  0.94725  0.66975  1.0000
  C   C1981     1.0  0.41501  0.85673  0.87080  1.0000
  S   S280      1.0  0.26884  0.95710  0.69275  1.0000
  H   H1619     1.0  0.11834  0.94654  0.68991  1.0000
  C   C1982     1.0  0.38089  0.90161  0.82138  1.0000
  H   H1620     1.0  0.47133  0.90696  0.86469  1.0000
  H   H1621     1.0  0.32118  0.90475  0.66229  1.0000
  H   H1622     1.0  0.38039  0.84461  0.93160  1.0000
  S   S281      1.0  0.26157  0.92016  0.66816  1.0000
  H   H1623     1.0  0.42269  0.98496  0.71779  1.0000
  C   C1983     1.0  0.49273  0.94081  0.91892  1.0000
  C   C1984     1.0  0.36753  0.89101  0.82937  1.0000
  C   C1985     1.0  0.44419  0.97416  0.75307  1.0000
  S   S282      1.0  0.38946  0.97642  0.72009  1.0000
  C   C1986     1.0  0.32433  0.93376  0.70946  1.0000
  C   C1987     1.0  0.31674  0.95251  0.70702  1.0000
  C   C1988     1.0  0.30010  0.95977  0.70103  1.0000
  C   C1989     1.0  0.29109  0.94834  0.69728  1.0000
  C   C1990     1.0  0.29919  0.92975  0.69876  1.0000
  C   C1991     1.0  0.31568  0.92244  0.70504  1.0000
  H   H1624     1.0  0.32318  0.96129  0.71059  1.0000
  S   S283      1.0  0.21475  0.92552  0.65629  1.0000
  H   H1625     1.0  0.29230  0.92087  0.69586  1.0000
  H   H1626     1.0  0.32151  0.90793  0.70681  1.0000
  C   C1992     1.0  0.42929  0.97036  0.66676  1.0000
  C   C1993     1.0  0.35525  0.89044  0.81934  1.0000
  S   S284      1.0  0.43695  0.82667  0.96010  1.0000
  C   C1994     1.0  0.35617  0.90049  0.80131  1.0000
  H   H1627     1.0  0.48366  0.90240  0.96292  1.0000
  C   C1995     1.0  0.44753  0.92741  0.71430  1.0000
  C   C1996     1.0  0.31619  0.86757  0.69655  1.0000
  C   C1997     1.0  0.46439  0.96415  0.90243  1.0000
  H   H1628     1.0  0.24550  0.87050  0.65864  1.0000
  C   C1998     1.0  0.40621  0.97099  0.79687  1.0000
  H   H1629     1.0  0.40277  0.84820  0.89938  1.0000
  C   C1999     1.0  0.45827  0.87803  0.90500  1.0000
  C   C2000     1.0  0.39290  0.97627  0.78618  1.0000
  C   C2001     1.0  0.44366  0.91311  0.94801  1.0000
  C   C2002     1.0  0.49255  0.95946  0.91263  1.0000
  C   C2003     1.0  0.42505  0.89425  0.80411  1.0000
  C   C2004     1.0  0.40579  0.77625  0.89490  1.0000
  C   C2005     1.0  0.36325  0.82510  0.94523  1.0000
  C   C2006     1.0  0.45242  0.92414  0.69657  1.0000
  C   C2007     1.0  0.41076  0.88845  0.92010  1.0000
  C   C2008     1.0  0.40670  0.90029  0.93201  1.0000
  C   C2009     1.0  0.40771  0.91866  0.92498  1.0000
  C   C2010     1.0  0.41384  0.92502  0.90613  1.0000
  C   C2011     1.0  0.41802  0.91316  0.89422  1.0000
  C   C2012     1.0  0.41589  0.89505  0.90114  1.0000
  H   H1630     1.0  0.40259  0.89535  0.94665  1.0000
  H   H1631     1.0  0.40425  0.92785  0.93422  1.0000
  H   H1632     1.0  0.41908  0.88594  0.89188  1.0000
  S   S285      1.0  0.40543  0.98462  0.81197  1.0000
  C   C2013     1.0  0.39323  0.96576  0.77394  1.0000
  C   C2014     1.0  0.46907  0.90098  0.87925  1.0000
  C   C2015     1.0  0.38332  0.77493  0.97148  1.0000
  C   C2016     1.0  0.39196  0.78960  0.96291  1.0000
  C   C2017     1.0  0.46027  0.92071  0.72556  1.0000
  Fe  Fe140     1.0  0.46188  0.94769  0.83658  1.0000
  C   C2018     1.0  0.38539  0.87205  0.88626  1.0000
  H   H1633     1.0  0.39273  0.79534  0.94846  1.0000
  H   H1634     1.0  0.40608  0.80835  0.96626  1.0000
  H   H1635     1.0  0.30550  0.86067  0.70542  1.0000
  C   C2019     1.0  0.38940  0.92431  0.84161  1.0000
  Fe  Fe141     1.0  0.42649  0.97407  0.82972  1.0000
  H   H1636     1.0  0.35113  0.92893  0.67556  1.0000
  H   H1637     1.0  0.37376  0.85837  0.95839  1.0000
  P   P64       1.0  0.45336  0.76915  0.92313  1.0000
  H   H1638     1.0  0.48412  0.95084  0.76296  1.0000
  H   H1639     1.0  0.14595  0.92562  0.70035  1.0000
  H   H1640     1.0  0.34631  0.80670  0.96213  1.0000
  H   H1641     1.0  0.29394  0.97417  0.69980  1.0000
  C   C2020     1.0  0.47153  0.74993  0.91754  1.0000
  C   C2021     1.0  0.41061  0.89169  0.67257  1.0000
  C   C2022     1.0  0.40338  0.76962  0.91383  1.0000
  S   S286      1.0  0.45622  0.97595  0.81965  1.0000
  P   P65       1.0  0.36153  0.89706  0.65852  1.0000
  H   H1642     1.0  0.30970  0.91828  0.75678  1.0000
  C   C2023     1.0  0.44645  0.76373  0.94776  1.0000
  C   C2024     1.0  0.45068  0.90624  0.81459  1.0000
  C   C2025     1.0  0.34834  0.82559  0.97716  1.0000
  H   H1643     1.0  0.37154  0.89623  0.87012  1.0000
  C   C2026     1.0  0.34672  0.93305  0.66271  1.0000
  H   H1644     1.0  0.45654  0.92334  0.73928  1.0000
  H   H1645     1.0  0.45193  0.96251  0.76114  1.0000
  C   C2027     1.0  0.38360  0.88509  0.87006  1.0000
  C   C2028     1.0  0.43279  0.90714  0.82528  1.0000
  C   C2029     1.0  0.35193  0.81810  0.96166  1.0000
  H   H1646     1.0  0.48655  0.77266  0.95861  1.0000
  C   C2030     1.0  0.14681  0.93212  0.68600  1.0000
  H   H1647     1.0  0.49253  0.84328  0.65843  1.0000
  C   C2031     1.0  0.27794  0.95597  0.74285  1.0000
  C   C2032     1.0  0.46461  0.94552  0.90856  1.0000
  C   C2033     1.0  0.49485  0.85276  0.66505  1.0000
  H   H1648     1.0  0.17555  0.91947  0.67775  1.0000
  C   C2034     1.0  0.38114  0.94031  0.83061  1.0000
  C   C2035     1.0  0.41970  0.90155  0.81995  1.0000
  C   C2036     1.0  0.39759  0.89262  0.66270  1.0000
  H   H1649     1.0  0.37556  0.97073  0.85691  1.0000
  C   C2037     1.0  0.36757  0.84716  0.95937  1.0000
  C   C2038     1.0  0.43442  0.77212  0.91245  1.0000
  C   C2039     1.0  0.46269  0.90886  0.94712  1.0000
  C   C2040     1.0  0.44721  0.77546  0.95824  1.0000
  Fe  Fe142     1.0  0.35874  0.98057  0.72558  1.0000
  C   C2041     1.0  0.16344  0.92860  0.67331  1.0000
  C   C2042     1.0  0.37587  0.95688  0.83631  1.0000
  C   C2043     1.0  0.41334  0.86982  0.85460  1.0000
  C   C2044     1.0  0.46906  0.90510  0.96332  1.0000
  H   H1650     1.0  0.30756  0.97443  0.75395  1.0000
  H   H1651     1.0  0.34670  0.90003  0.79351  1.0000
  C   C2045     1.0  0.36933  0.91116  0.79332  1.0000
  H   H1652     1.0  0.36256  0.86381  0.68757  1.0000
  C   C2046     1.0  0.48497  0.87003  0.68899  1.0000
  P   P66       1.0  0.39669  0.90282  0.83417  1.0000
  C   C2047     1.0  0.44297  0.89353  0.79332  1.0000
  C   C2048     1.0  0.45575  0.89967  0.79849  1.0000
  H   H1653     1.0  0.39475  0.77767  0.88819  1.0000
  H   H1654     1.0  0.29732  0.88885  0.68228  1.0000
  C   C2049     1.0  0.47957  0.79104  0.91148  1.0000
  C   C2050     1.0  0.30026  0.74078  0.96962  1.0000
  H   H1655     1.0  0.46112  0.87935  0.93124  1.0000
  H   H1656     1.0  0.45152  0.78819  0.95191  1.0000
  C   C2051     1.0  0.47911  0.93360  0.91632  1.0000
  C   C2052     1.0  0.43629  0.74257  0.97581  1.0000
  H   H1657     1.0  0.37019  0.91898  0.77933  1.0000
  C   C2053     1.0  0.40114  0.85795  0.88666  1.0000
  S   S287      1.0  0.42252  0.98586  0.85431  1.0000
  H   H1658     1.0  0.43285  0.80679  0.92079  1.0000
  C   C2054     1.0  0.13131  0.94393  0.68011  1.0000
  H   H1659     1.0  0.42299  0.91791  0.87972  1.0000
  H   H1660     1.0  0.48927  0.87397  0.94833  1.0000
  H   H1661     1.0  0.44237  0.83601  0.91400  1.0000
  H   H1662     1.0  0.44064  0.95843  0.73599  1.0000
  C   C2055     1.0  0.31154  0.88346  0.68361  1.0000
  C   C2056     1.0  0.45651  0.90485  0.98025  1.0000
  H   H1663     1.0  0.33817  0.84825  0.70800  1.0000
  C   C2057     1.0  0.30263  0.93249  0.75404  1.0000
  S   S288      1.0  0.35880  0.97103  0.70091  1.0000
  H   H1664     1.0  0.25385  0.75268  0.97282  1.0000
  C   C2058     1.0  0.39964  0.79690  0.97296  1.0000
  H   H1665     1.0  0.47569  0.83661  0.90626  1.0000
  C   C2059     1.0  0.47150  0.82386  0.90863  1.0000
  H   H1666     1.0  0.36658  0.88313  0.84327  1.0000
  C   C2060     1.0  0.38157  0.91176  0.80331  1.0000
  C   C2061     1.0  0.28315  0.75111  0.96624  1.0000
  C   C2062     1.0  0.48429  0.93993  0.79167  1.0000
  S   S289      1.0  0.48554  0.92530  0.82807  1.0000
  C   C2063     1.0  0.37869  0.89531  0.67108  1.0000
  C   C2064     1.0  0.44240  0.77081  0.97730  1.0000
  H   H1667     1.0  0.47834  0.98553  0.89921  1.0000
  C   C2065     1.0  0.13246  0.95220  0.66153  1.0000
  C   C2066     1.0  0.43776  0.97185  0.73894  1.0000
  C   C2067     1.0  0.49341  0.78398  0.95372  1.0000
  H   H1668     1.0  0.41484  0.89317  0.69842  1.0000
  H   H1669     1.0  0.12023  0.96106  0.65725  1.0000
  Fe  Fe143     1.0  0.41858  0.85460  0.95596  1.0000
  H   H1670     1.0  0.38156  0.89747  0.71343  1.0000
  H   H1671     1.0  0.35869  0.89853  0.69633  1.0000
  C   C2068     1.0  0.46657  0.96985  0.66356  1.0000
  C   C2069     1.0  0.47085  0.90112  0.90995  1.0000
  C   C2070     1.0  0.34376  0.88552  0.67342  1.0000
  C   C2071     1.0  0.28659  0.93755  0.74725  1.0000
  H   H1672     1.0  0.28239  0.76389  0.95621  1.0000
  C   C2072     1.0  0.47847  0.97109  0.90422  1.0000
  H   H1673     1.0  0.48724  0.90527  0.72836  1.0000
  C   C2073     1.0  0.38614  0.89593  0.69930  1.0000
  C   C2074     1.0  0.37315  0.89668  0.68952  1.0000
  C   C2075     1.0  0.40486  0.89353  0.69082  1.0000
  H   H1674     1.0  0.48741  0.75154  0.93582  1.0000
  H   H1675     1.0  0.32251  0.94185  0.76170  1.0000
  S   S290      1.0  0.43605  0.86760  0.96496  1.0000
  C   C2076     1.0  0.37122  0.83948  0.94415  1.0000
  H   H1676     1.0  0.45344  0.94044  0.90719  1.0000
  C   C2077     1.0  0.18084  0.97264  0.66957  1.0000
  C   C2078     1.0  0.44743  0.80691  0.91674  1.0000
  C   C2079     1.0  0.41988  0.94429  0.78344  1.0000
  C   C2080     1.0  0.39775  0.88432  0.85418  1.0000
  S   S291      1.0  0.35755  0.95367  0.74523  1.0000
  H   H1677     1.0  0.44958  0.78247  0.88538  1.0000
  C   C2081     1.0  0.41757  0.76762  0.92263  1.0000
  C   C2082     1.0  0.37900  0.95774  0.85288  1.0000
  C   C2083     1.0  0.47005  0.91419  0.69009  1.0000
  C   C2084     1.0  0.26710  0.74478  0.97559  1.0000
  C   C2085     1.0  0.45448  0.96828  0.68079  1.0000
  C   C2086     1.0  0.30997  0.94583  0.75660  1.0000
  H   H1678     1.0  0.45715  0.87998  0.87710  1.0000
  H   H1679     1.0  0.42921  0.91213  0.83777  1.0000
  H   H1680     1.0  0.44257  0.92958  0.68779  1.0000
  H   H1681     1.0  0.37009  0.96926  0.82745  1.0000
  C   C2087     1.0  0.33459  0.86057  0.69795  1.0000
  C   C2088     1.0  0.40674  0.94971  0.77254  1.0000
  H   H1682     1.0  0.38298  0.97004  0.76566  1.0000
  C   C2089     1.0  0.38722  0.94195  0.86391  1.0000
  H   H1683     1.0  0.41514  0.76261  0.93732  1.0000
  C   C2090     1.0  0.32523  0.89244  0.67215  1.0000
  H   H1684     1.0  0.39050  0.76591  0.92176  1.0000
  H   H1685     1.0  0.43392  0.93523  0.71932  1.0000
  H   H1686     1.0  0.28119  0.92726  0.74475  1.0000
  S   S292      1.0  0.24134  0.96274  0.65623  1.0000
  Fe  Fe144     1.0  0.43071  0.95664  0.86871  1.0000
  H   H1687     1.0  0.42430  0.78609  0.87003  1.0000
  H   H1688     1.0  0.47496  0.87369  0.70101  1.0000
  C   C2091     1.0  0.46120  0.88571  0.88622  1.0000
  C   C2092     1.0  0.39254  0.92535  0.85825  1.0000
  C   C2093     1.0  0.41966  0.95490  0.79554  1.0000
  C   C2094     1.0  0.45278  0.82351  0.91297  1.0000
  H   H1689     1.0  0.33334  0.96018  0.66703  1.0000
  H   H1690     1.0  0.43047  0.93203  0.78227  1.0000
  P   P67       1.0  0.47854  0.90980  0.92512  1.0000
  S   S293      1.0  0.49006  0.96933  0.66079  1.0000
  S   S294      1.0  0.43240  0.94493  0.84483  1.0000
  H   H1691     1.0  0.34502  0.88219  0.82553  1.0000
  H   H1692     1.0  0.42727  0.84587  0.87119  1.0000
  H   H1693     1.0  0.42661  0.96706  0.69571  1.0000
  C   C2095     1.0  0.16454  0.93670  0.65474  1.0000
  H   H1694     1.0  0.43857  0.91654  0.93559  1.0000
  H   H1695     1.0  0.37917  0.94031  0.81739  1.0000
  H   H1696     1.0  0.41549  0.88923  0.79992  1.0000
  H   H1697     1.0  0.39003  0.94271  0.87659  1.0000
  C   C2096     1.0  0.42243  0.78096  0.88471  1.0000
  Fe  Fe145     1.0  0.45323  0.83930  0.97105  1.0000
  H   H1698     1.0  0.39170  0.92009  0.79684  1.0000
  C   C2097     1.0  0.49119  0.92503  0.80463  1.0000
  C   C2098     1.0  0.43670  0.77890  0.89344  1.0000
  H   H1699     1.0  0.39946  0.91348  0.86674  1.0000
  H   H1700     1.0  0.42448  0.86881  0.84262  1.0000
  C   C2099     1.0  0.48196  0.85785  0.68040  1.0000
  H   H1701     1.0  0.42513  0.88976  0.66601  1.0000
  C   C2100     1.0  0.48486  0.80766  0.90776  1.0000
  S   S295      1.0  0.48408  0.83526  0.96158  1.0000
  H   H1702     1.0  0.46954  0.89945  0.79001  1.0000
  C   C2101     1.0  0.35613  0.84032  0.97579  1.0000
  H   H1703     1.0  0.37485  0.87317  0.89869  1.0000
  H   H1704     1.0  0.31279  0.74552  0.96223  1.0000
  H   H1705     1.0  0.18868  0.95886  0.66879  1.0000
  H   H1706     1.0  0.39335  0.93100  0.66190  1.0000
  H   H1707     1.0  0.49540  0.98488  0.82093  1.0000
  H   H1708     1.0  0.45329  0.97321  0.89619  1.0000
  H   H1709     1.0  0.48053  0.92016  0.88526  1.0000
  H   H1710     1.0  0.49023  0.77872  0.91113  1.0000
  C   C2102     1.0  0.47013  0.73953  0.90600  1.0000
  H   H1711     1.0  0.31563  0.85267  0.97689  1.0000
  H   H1712     1.0  0.15698  0.96390  0.68804  1.0000
  C   C2103     1.0  0.16296  0.97547  0.68033  1.0000
  C   C2104     1.0  0.28547  0.96956  0.74496  1.0000
  Fe  Fe146     1.0  0.37590  0.73658  0.96616  1.0000
  C   C2105     1.0  0.48287  0.90715  0.70143  1.0000
  H   H1713     1.0  0.47362  0.91189  0.67629  1.0000
  C   C2106     1.0  0.33661  0.95086  0.65791  1.0000
  H   H1714     1.0  0.41644  0.91593  0.96556  1.0000
  C   C2107     1.0  0.43113  0.91298  0.96491  1.0000
  S   S296      1.0  0.48269  0.96775  0.71417  1.0000
  C   C2108     1.0  0.48916  0.93923  0.77302  1.0000
  H   H1715     1.0  0.26460  0.98201  0.77918  1.0000
  C   C2109     1.0  0.47781  0.91054  0.71921  1.0000
  H   H1716     1.0  0.44102  0.73758  0.94890  1.0000
  H   H1717     1.0  0.46966  0.85229  0.68574  1.0000
  Fe  Fe147     1.0  0.45292  0.98499  0.84571  1.0000
  S   S297      1.0  0.39983  0.84962  0.98376  1.0000
  H   H1718     1.0  0.36419  0.86093  0.65166  1.0000
  H   H1719     1.0  0.42740  0.92634  0.65151  1.0000
  C   C2110     1.0  0.57798  0.03560  0.19165  1.0000
  H   H1720     1.0  0.50636  0.15617  0.19241  1.0000
  H   H1721     1.0  0.55582  0.02533  0.16931  1.0000
  S   S298      1.0  0.52497  0.03798  0.20304  1.0000
  H   H1722     1.0  0.59989  0.99573  0.24819  1.0000
  H   H1723     1.0  0.56467  0.17698  0.02439  1.0000
  S   S299      1.0  0.53289  0.21003  0.06300  1.0000
  C   C2111     1.0  0.54269  0.03345  0.26007  1.0000
  C   C2112     1.0  0.56732  0.98903  0.16908  1.0000
  C   C2113     1.0  0.56046  0.99933  0.25007  1.0000
  C   C2114     1.0  0.58988  0.16158  0.01054  1.0000
  S   S300      1.0  0.56973  0.11718  0.30684  1.0000
  H   H1724     1.0  0.63406  0.04249  0.28939  1.0000
  H   H1725     1.0  0.62582  0.01841  0.27623  1.0000
  H   H1726     1.0  0.52029  0.03868  0.30344  1.0000
  H   H1727     1.0  0.56241  0.06029  0.23219  1.0000
  C   C2115     1.0  0.64871  0.98898  0.30262  1.0000
  S   S301      1.0  0.56944  0.07851  0.27958  1.0000
  C   C2116     1.0  0.53730  0.16314  0.00813  1.0000
  H   H1728     1.0  0.59030  0.00250  0.15918  1.0000
  S   S302      1.0  0.51693  0.11297  0.13844  1.0000
  S   S303      1.0  0.53120  0.08755  0.18502  1.0000
  Fe  Fe148     1.0  0.50957  0.10257  0.16896  1.0000
  C   C2117     1.0  0.52248  0.03964  0.28884  1.0000
  C   C2118     1.0  0.57363  0.19125  0.99676  1.0000
  C   C2119     1.0  0.52666  0.17897  0.01408  1.0000
  Fe  Fe149     1.0  0.51458  0.10399  0.20604  1.0000
  S   S304      1.0  0.52694  0.12120  0.21646  1.0000
  Fe  Fe150     1.0  0.51221  0.06821  0.19889  1.0000
  H   H1729     1.0  0.54143  0.20168  0.13438  1.0000
  C   C2120     1.0  0.51009  0.99168  0.20458  1.0000
  C   C2121     1.0  0.64779  0.07908  0.29224  1.0000
  C   C2122     1.0  0.66817  0.05106  0.30375  1.0000
  C   C2123     1.0  0.54901  0.03176  0.15802  1.0000
  H   H1730     1.0  0.60214  0.99007  0.18765  1.0000
  C   C2124     1.0  0.55643  0.09112  0.26318  1.0000
  C   C2125     1.0  0.55782  0.10903  0.25439  1.0000
  C   C2126     1.0  0.54887  0.11811  0.23990  1.0000
  C   C2127     1.0  0.53812  0.10951  0.23452  1.0000
  C   C2128     1.0  0.53648  0.09174  0.24354  1.0000
  C   C2129     1.0  0.54575  0.08254  0.25774  1.0000
  H   H1731     1.0  0.56626  0.11561  0.25838  1.0000
  H   H1732     1.0  0.55049  0.13170  0.23272  1.0000
  H   H1733     1.0  0.52812  0.08505  0.23958  1.0000
  H   H1734     1.0  0.54441  0.06882  0.26471  1.0000
  H   H1735     1.0  0.58814  0.14483  0.17820  1.0000
  H   H1736     1.0  0.50893  0.20519  0.00676  1.0000
  C   C2130     1.0  0.71084  0.00301  0.25600  1.0000
  C   C2131     1.0  0.56874  0.03430  0.22443  1.0000
  C   C2132     1.0  0.57540  0.05457  0.18830  1.0000
  H   H1737     1.0  0.53840  0.18550  0.19267  1.0000
  P   P68       1.0  0.56417  0.02176  0.24781  1.0000
  H   H1738     1.0  0.51215  0.01797  0.23945  1.0000
  H   H1739     1.0  0.56714  0.21527  0.13985  1.0000
  H   H1740     1.0  0.65011  0.16164  0.99616  1.0000
  C   C2133     1.0  0.52680  0.17009  0.23563  1.0000
  C   C2134     1.0  0.51599  0.13658  0.13216  1.0000
  H   H1741     1.0  0.63784  0.20001  0.04481  1.0000
  H   H1742     1.0  0.54085  0.05775  0.16577  1.0000
  C   C2135     1.0  0.52805  0.04227  0.25119  1.0000
  C   C2136     1.0  0.53972  0.03213  0.27896  1.0000
  C   C2137     1.0  0.51596  0.14585  0.11397  1.0000
  C   C2138     1.0  0.64544  0.00552  0.30814  1.0000
  H   H1743     1.0  0.64104  0.15034  0.02981  1.0000
  H   H1744     1.0  0.49720  0.16516  0.00940  1.0000
  C   C2139     1.0  0.53287  0.19392  0.18100  1.0000
  H   H1745     1.0  0.51918  0.00352  0.16244  1.0000
  C   C2140     1.0  0.57805  0.20612  0.13252  1.0000
  H   H1746     1.0  0.51708  0.14516  0.24370  1.0000
  C   C2141     1.0  0.57518  0.17668  0.01182  1.0000
  C   C2142     1.0  0.59946  0.00640  0.25483  1.0000
  H   H1747     1.0  0.55064  0.02500  0.28608  1.0000
  Fe  Fe151     1.0  0.51340  0.20457  0.04952  1.0000
  H   H1748     1.0  0.56091  0.13563  0.12319  1.0000
  C   C2143     1.0  0.53886  0.16132  0.99034  1.0000
  C   C2144     1.0  0.63068  0.21235  0.04974  1.0000
  H   H1749     1.0  0.59795  0.16103  0.13435  1.0000
  C   C2145     1.0  0.57478  0.02545  0.20967  1.0000
  C   C2146     1.0  0.58382  0.18548  0.19989  1.0000
  H   H1750     1.0  0.57121  0.02011  0.11116  1.0000
  H   H1751     1.0  0.54451  0.15222  0.01732  1.0000
  C   C2147     1.0  0.51067  0.04935  0.26119  1.0000
  H   H1752     1.0  0.54433  0.00818  0.22929  1.0000
  C   C2148     1.0  0.59920  0.03397  0.27155  1.0000
  C   C2149     1.0  0.50919  0.09216  0.29130  1.0000
  H   H1753     1.0  0.59083  0.15021  0.02219  1.0000
  C   C2150     1.0  0.51726  0.21481  0.15137  1.0000
  C   C2151     1.0  0.53041  0.05883  0.14246  1.0000
  H   H1754     1.0  0.51535  0.17173  0.09475  1.0000
  C   C2152     1.0  0.61204  0.21996  0.04919  1.0000
  C   C2153     1.0  0.56991  0.06339  0.20297  1.0000
  C   C2154     1.0  0.63731  0.06901  0.28866  1.0000
  P   P69       1.0  0.55908  0.99779  0.14807  1.0000
  H   H1755     1.0  0.53191  0.00236  0.30688  1.0000
  C   C2155     1.0  0.51271  0.02303  0.20066  1.0000
  H   H1756     1.0  0.55003  0.11649  0.18159  1.0000
  H   H1757     1.0  0.56520  0.16453  0.12677  1.0000
  C   C2156     1.0  0.58119  0.00735  0.11308  1.0000
  H   H1758     1.0  0.62619  0.99401  0.26121  1.0000
  H   H1759     1.0  0.51586  0.13515  0.28286  1.0000
  C   C2157     1.0  0.51569  0.20599  0.18401  1.0000
  H   H1760     1.0  0.55369  0.11140  0.15047  1.0000
  H   H1761     1.0  0.60217  0.13993  0.20447  1.0000
  H   H1762     1.0  0.51748  0.00410  0.27091  1.0000
  C   C2158     1.0  0.58469  0.22579  0.02637  1.0000
  H   H1763     1.0  0.61569  0.21424  0.00135  1.0000
  C   C2159     1.0  0.58649  0.15625  0.18430  1.0000
  H   H1764     1.0  0.64389  0.09386  0.28922  1.0000
  C   C2160     1.0  0.56907  0.22172  0.02384  1.0000
  C   C2161     1.0  0.53453  0.20293  0.14829  1.0000
  H   H1765     1.0  0.52116  0.05555  0.12012  1.0000
  C   C2162     1.0  0.60982  0.98780  0.10084  1.0000
  C   C2163     1.0  0.66323  0.07013  0.29976  1.0000
  C   C2164     1.0  0.59468  0.15344  0.19909  1.0000
  C   C2165     1.0  0.54263  0.19265  0.16305  1.0000
  C   C2166     1.0  0.54945  0.99694  0.23964  1.0000
  H   H1766     1.0  0.59963  0.16579  0.21842  1.0000
  H   H1767     1.0  0.53368  0.99940  0.20746  1.0000
  C   C2167     1.0  0.61625  0.98862  0.31328  1.0000
  H   H1768     1.0  0.58303  0.19684  0.20578  1.0000
  C   C2168     1.0  0.58990  0.98659  0.18659  1.0000
  C   C2169     1.0  0.57549  0.18831  0.18519  1.0000
  H   H1769     1.0  0.61336  0.20785  0.09487  1.0000
  C   C2170     1.0  0.61451  0.00549  0.26200  1.0000
  H   H1770     1.0  0.61850  0.17423  0.10627  1.0000
  H   H1771     1.0  0.55362  0.14539  0.18552  1.0000
  C   C2171     1.0  0.59326  0.16802  0.20696  1.0000
  H   H1772     1.0  0.54578  0.23139  0.01087  1.0000
  C   C2172     1.0  0.50788  0.04795  0.28000  1.0000
  H   H1773     1.0  0.56837  0.20196  0.17975  1.0000
  H   H1774     1.0  0.51533  0.07821  0.29704  1.0000
  H   H1775     1.0  0.66400  0.01384  0.26861  1.0000
  H   H1776     1.0  0.51118  0.22268  0.13982  1.0000
  C   C2173     1.0  0.51741  0.10633  0.29035  1.0000
  C   C2174     1.0  0.51509  0.17418  0.12179  1.0000
  C   C2175     1.0  0.51430  0.15902  0.24548  1.0000
  S   S305      1.0  0.52549  0.17998  0.03673  1.0000
  H   H1777     1.0  0.70463  0.00763  0.29969  1.0000
  H   H1778     1.0  0.59820  0.01433  0.08617  1.0000
  C   C2176     1.0  0.53788  0.03044  0.13227  1.0000
  H   H1779     1.0  0.57755  0.06246  0.17435  1.0000
  C   C2177     1.0  0.56667  0.05329  0.22096  1.0000
  C   C2178     1.0  0.52913  0.04892  0.13054  1.0000
  C   C2179     1.0  0.58385  0.02078  0.25661  1.0000
  H   H1780     1.0  0.74956  0.17916  0.31663  1.0000
  C   C2180     1.0  0.64045  0.17062  0.00467  1.0000
  H   H1781     1.0  0.57254  0.04636  0.26552  1.0000
  H   H1782     1.0  0.53288  0.19664  0.23003  1.0000
  H   H1783     1.0  0.52347  0.07311  0.14128  1.0000
  C   C2181     1.0  0.50951  0.12435  0.28304  1.0000
  H   H1784     1.0  0.59893  0.04467  0.27813  1.0000
  S   S306      1.0  0.50260  0.23421  0.03819  1.0000
  H   H1785     1.0  0.68904  0.00679  0.24212  1.0000
  C   C2182     1.0  0.63531  0.16425  0.02361  1.0000
  C   C2183     1.0  0.70103  0.00715  0.28733  1.0000
  C   C2184     1.0  0.59657  0.00414  0.09882  1.0000
  C   C2185     1.0  0.62080  0.20024  0.00766  1.0000
  C   C2186     1.0  0.61515  0.19385  0.02660  1.0000
  C   C2187     1.0  0.62283  0.17586  0.03458  1.0000
  P   P70       1.0  0.59925  0.20910  0.04061  1.0000
  H   H1786     1.0  0.52997  0.10333  0.29526  1.0000
  C   C2188     1.0  0.58471  0.19670  0.05961  1.0000
  C   C2189     1.0  0.57743  0.20274  0.07616  1.0000
  C   C2190     1.0  0.56580  0.19338  0.09060  1.0000
  C   C2191     1.0  0.56129  0.17799  0.08863  1.0000
  C   C2192     1.0  0.56832  0.17196  0.07219  1.0000
  C   C2193     1.0  0.57994  0.18129  0.05773  1.0000
  C   C2194     1.0  0.51720  0.19296  0.00215  1.0000
  C   C2195     1.0  0.51575  0.14615  0.14505  1.0000
  C   C2196     1.0  0.54033  0.05024  0.15617  1.0000
  C   C2197     1.0  0.52017  0.00423  0.20439  1.0000
  H   H1787     1.0  0.61447  0.14930  0.99311  1.0000
  H   H1788     1.0  0.72179  0.00002  0.24432  1.0000
  H   H1789     1.0  0.58224  0.02879  0.18029  1.0000
  H   H1790     1.0  0.72945  0.00058  0.27312  1.0000
  H   H1791     1.0  0.53936  0.16459  0.22660  1.0000
  C   C2198     1.0  0.68248  0.01043  0.28636  1.0000
  C   C2199     1.0  0.65744  0.04080  0.30063  1.0000
  C   C2200     1.0  0.61433  0.01923  0.27045  1.0000
  H   H1792     1.0  0.56204  0.20266  0.99820  1.0000
  C   C2201     1.0  0.58317  0.99357  0.17051  1.0000
  C   C2202     1.0  0.52309  0.18814  0.23750  1.0000
  H   H1793     1.0  0.61918  0.17084  0.04926  1.0000
  H   H1794     1.0  0.58019  0.21493  0.07789  1.0000
  H   H1795     1.0  0.55968  0.19851  0.10306  1.0000
  H   H1796     1.0  0.55174  0.17118  0.09956  1.0000
  H   H1797     1.0  0.56415  0.16048  0.07046  1.0000
  H   H1798     1.0  0.58478  0.17675  0.04494  1.0000
  H   H1799     1.0  0.68032  0.04435  0.30934  1.0000
  H   H1800     1.0  0.51643  0.13903  0.15892  1.0000
  C   C2203     1.0  0.64221  0.04994  0.29263  1.0000
  H   H1801     1.0  0.50383  0.20918  0.25051  1.0000
  H   H1802     1.0  0.56508  0.20896  0.03090  1.0000
  H   H1803     1.0  0.51580  0.17209  0.14979  1.0000
  H   H1804     1.0  0.53651  0.02287  0.12311  1.0000
  H   H1805     1.0  0.62528  0.07603  0.28291  1.0000
  Fe  Fe152     1.0  0.50972  0.21062  0.08757  1.0000
  C   C2204     1.0  0.50108  0.01372  0.25038  1.0000
  C   C2205     1.0  0.56024  0.13751  0.13669  1.0000
  C   C2206     1.0  0.55608  0.12387  0.15210  1.0000
  C   C2207     1.0  0.55383  0.12680  0.16961  1.0000
  C   C2208     1.0  0.55599  0.14323  0.17177  1.0000
  C   C2209     1.0  0.56126  0.15657  0.15632  1.0000
  C   C2210     1.0  0.56259  0.15390  0.13880  1.0000
  P   P71       1.0  0.56502  0.17745  0.15898  1.0000
  C   C2211     1.0  0.57634  0.17362  0.17760  1.0000
  C   C2212     1.0  0.58043  0.18714  0.13874  1.0000
  C   C2213     1.0  0.59541  0.17570  0.12943  1.0000
  C   C2214     1.0  0.60716  0.18312  0.11357  1.0000
  C   C2215     1.0  0.60432  0.20202  0.10716  1.0000
  C   C2216     1.0  0.58988  0.21349  0.11673  1.0000
  C   C2217     1.0  0.51532  0.16468  0.10882  1.0000
  H   H1806     1.0  0.65478  0.21496  0.05686  1.0000
  C   C2218     1.0  0.50675  0.19518  0.24905  1.0000
  C   C2219     1.0  0.51553  0.16486  0.13984  1.0000
  C   C2220     1.0  0.54813  0.02177  0.14587  1.0000
  S   S307      1.0  0.56831  0.99454  0.30803  1.0000
  H   H1807     1.0  0.56701  0.03254  0.30214  1.0000
  H   H1808     1.0  0.52985  0.04321  0.23667  1.0000
  C   C2221     1.0  0.71515  0.00328  0.27224  1.0000
  C   C2222     1.0  0.57897  0.99421  0.12952  1.0000
  H   H1809     1.0  0.56787  0.07810  0.20049  1.0000
  H   H1810     1.0  0.65444  0.11335  0.30477  1.0000
  Fe  Fe153     1.0  0.56826  0.08994  0.30365  1.0000
  C   C2223     1.0  0.58411  0.03483  0.26451  1.0000
  S   S308      1.0  0.51512  0.19751  0.11563  1.0000
  C   C2224     1.0  0.63325  0.18864  0.99671  1.0000
  C   C2225     1.0  0.50784  0.21635  0.16920  1.0000
  H   H1811     1.0  0.57685  0.01080  0.21205  1.0000
  H   H1812     1.0  0.49716  0.17540  0.21543  1.0000
  C   C2226     1.0  0.55820  0.23429  0.01225  1.0000
  P   P72       1.0  0.66417  0.01618  0.30543  1.0000
  H   H1813     1.0  0.67128  0.07803  0.30255  1.0000
  C   C2227     1.0  0.69239  0.00678  0.25478  1.0000
  C   C2228     1.0  0.67824  0.01066  0.26984  1.0000
  H   H1814     1.0  0.51627  0.13850  0.10389  1.0000
  C   C2229     1.0  0.52353  0.99201  0.15580  1.0000
  C   C2230     1.0  0.64037  0.22076  0.05662  1.0000
  H   H1815     1.0  0.54734  0.14907  0.98587  1.0000
  H   H1816     1.0  0.58791  0.22815  0.11189  1.0000
  C   C2231     1.0  0.50406  0.00589  0.26806  1.0000
  C   C2232     1.0  0.60314  0.16106  0.99417  1.0000
  H   H1817     1.0  0.50831  0.20706  0.19786  1.0000
  H   H1818     1.0  0.57358  0.98651  0.27315  1.0000
  C   C2233     1.0  0.62761  0.01304  0.31701  1.0000
  H   H1819     1.0  0.49920  0.05553  0.25449  1.0000
  C   C2234     1.0  0.56568  0.02679  0.31661  1.0000
  S   S309      1.0  0.49737  0.08334  0.22164  1.0000
  S   S310      1.0  0.61716  0.11127  0.31642  1.0000
  C   C2235     1.0  0.49812  0.16585  0.25739  1.0000
  C   C2236     1.0  0.82295  0.07620  0.58808  1.0000
  Fe  Fe154     1.0  0.76958  0.13655  0.48348  1.0000
  S   S311      1.0  0.77384  0.15594  0.49796  1.0000
  S   S312      1.0  0.75860  0.14957  0.45762  1.0000
  Fe  Fe155     1.0  0.77993  0.10330  0.51282  1.0000
  S   S313      1.0  0.78513  0.12008  0.52954  1.0000
  S   S314      1.0  0.77777  0.07389  0.52604  1.0000
  Fe  Fe156     1.0  0.75914  0.13955  0.52330  1.0000
  S   S315      1.0  0.73969  0.15359  0.54532  1.0000
  Fe  Fe157     1.0  0.79957  0.13533  0.50315  1.0000
  S   S316      1.0  0.82601  0.14492  0.49988  1.0000
  S   S317      1.0  0.75271  0.12190  0.50863  1.0000
  S   S318      1.0  0.79668  0.11685  0.48645  1.0000
  H   H1820     1.0  0.81283  0.03192  0.62315  1.0000
  S   S319      1.0  0.66009  0.02185  0.59117  1.0000
  Fe  Fe158     1.0  0.67523  0.11244  0.38660  1.0000
  S   S320      1.0  0.65060  0.11079  0.40979  1.0000
  S   S321      1.0  0.67805  0.11056  0.35742  1.0000
  Fe  Fe159     1.0  0.69897  0.11686  0.41061  1.0000
  S   S322      1.0  0.67618  0.11531  0.43588  1.0000
  S   S323      1.0  0.72827  0.11963  0.40678  1.0000
  Fe  Fe160     1.0  0.67109  0.09272  0.42629  1.0000
  S   S324      1.0  0.66570  0.06631  0.44514  1.0000
  Fe  Fe161     1.0  0.65782  0.13344  0.41706  1.0000
  S   S325      1.0  0.63638  0.15892  0.42152  1.0000
  S   S326      1.0  0.69536  0.09277  0.40259  1.0000
  S   S327      1.0  0.68101  0.13659  0.39245  1.0000
  Fe  Fe162     1.0  0.63896  0.11393  0.53347  1.0000
  S   S328      1.0  0.61220  0.13071  0.52645  1.0000
  S   S329      1.0  0.65179  0.08796  0.52356  1.0000
  Fe  Fe163     1.0  0.64177  0.13921  0.55510  1.0000
  S   S330      1.0  0.61513  0.15838  0.55033  1.0000
  S   S331      1.0  0.65673  0.14514  0.57317  1.0000
  Fe  Fe164     1.0  0.60417  0.13332  0.55570  1.0000
  S   S332      1.0  0.57548  0.13170  0.57182  1.0000
  Fe  Fe165     1.0  0.62518  0.15440  0.52148  1.0000
  S   S333      1.0  0.61955  0.17865  0.49883  1.0000
  S   S334      1.0  0.62971  0.11435  0.56340  1.0000
  S   S335      1.0  0.65295  0.13743  0.52560  1.0000
  Fe  Fe166     1.0  0.86726  0.19564  0.55325  1.0000
  S   S336      1.0  0.88247  0.19199  0.57545  1.0000
  S   S337      1.0  0.84880  0.17579  0.55678  1.0000
  H   H1821     1.0  0.56233  0.00682  0.36855  1.0000
  C   C2237     1.0  0.61306  0.00478  0.31923  1.0000
  Fe  Fe167     1.0  0.90493  0.20254  0.55289  1.0000
  S   S338      1.0  0.93540  0.18920  0.55099  1.0000
  C   C2238     1.0  0.56466  0.03063  0.34682  1.0000
  H   H1822     1.0  0.61572  0.05030  0.41676  1.0000
  C   C2239     1.0  0.56694  0.01433  0.59352  1.0000
  C   C2240     1.0  0.77111  0.01758  0.57462  1.0000
  H   H1823     1.0  0.55204  0.05112  0.63166  1.0000
  H   H1824     1.0  0.49863  0.16503  0.63545  1.0000
  C   C2241     1.0  0.87689  0.09422  0.58166  1.0000
  C   C2242     1.0  0.57143  0.08392  0.46484  1.0000
  S   S339      1.0  0.85527  0.23091  0.60230  1.0000
  C   C2243     1.0  0.95077  0.20169  0.55229  1.0000
  C   C2244     1.0  0.96995  0.19486  0.54774  1.0000
  H   H1825     1.0  0.61525  0.99403  0.42266  1.0000
  H   H1826     1.0  0.97519  0.18207  0.54324  1.0000
  H   H1827     1.0  0.65110  0.00400  0.48559  1.0000
  C   C2245     1.0  0.63137  0.16361  0.44340  1.0000
  C   C2246     1.0  0.63654  0.15027  0.45836  1.0000
  C   C2247     1.0  0.63244  0.15461  0.47566  1.0000
  C   C2248     1.0  0.62349  0.17237  0.47786  1.0000
  C   C2249     1.0  0.61814  0.18559  0.46295  1.0000
  C   C2250     1.0  0.62196  0.18118  0.44579  1.0000
  H   H1828     1.0  0.64342  0.13656  0.45667  1.0000
  H   H1829     1.0  0.63648  0.14431  0.48721  1.0000
  H   H1830     1.0  0.61115  0.19929  0.46465  1.0000
  H   H1831     1.0  0.61782  0.19147  0.43428  1.0000
  C   C2251     1.0  0.65833  0.04020  0.57228  1.0000
  C   C2252     1.0  0.65590  0.03764  0.55603  1.0000
  C   C2253     1.0  0.65471  0.05217  0.54086  1.0000
  C   C2254     1.0  0.65511  0.06954  0.54212  1.0000
  C   C2255     1.0  0.65795  0.07208  0.55822  1.0000
  C   C2256     1.0  0.65960  0.05740  0.57329  1.0000
  H   H1832     1.0  0.65495  0.02449  0.55498  1.0000
  H   H1833     1.0  0.65293  0.05001  0.52833  1.0000
  H   H1834     1.0  0.65931  0.08522  0.55894  1.0000
  H   H1835     1.0  0.66173  0.05943  0.58571  1.0000
  C   C2257     1.0  0.67245  0.02154  0.41475  1.0000
  C   C2258     1.0  0.67659  0.03839  0.40514  1.0000
  C   C2259     1.0  0.67429  0.05218  0.41442  1.0000
  C   C2260     1.0  0.66815  0.04913  0.43345  1.0000
  C   C2261     1.0  0.66391  0.03227  0.44315  1.0000
  C   C2262     1.0  0.66607  0.01845  0.43380  1.0000
  H   H1836     1.0  0.68186  0.04070  0.39047  1.0000
  H   H1837     1.0  0.67734  0.06515  0.40677  1.0000
  H   H1838     1.0  0.65895  0.02988  0.45787  1.0000
  C   C2263     1.0  0.55487  0.13684  0.62435  1.0000
  C   C2264     1.0  0.83145  0.15465  0.51545  1.0000
  C   C2265     1.0  0.84843  0.15997  0.51083  1.0000
  C   C2266     1.0  0.85358  0.16732  0.52291  1.0000
  C   C2267     1.0  0.84186  0.16927  0.53989  1.0000
  C   C2268     1.0  0.82480  0.16412  0.54444  1.0000
  C   C2269     1.0  0.81958  0.15687  0.53232  1.0000
  H   H1839     1.0  0.85776  0.15826  0.49786  1.0000
  H   H1840     1.0  0.86685  0.17099  0.51928  1.0000
  H   H1841     1.0  0.81570  0.16551  0.55756  1.0000
  H   H1842     1.0  0.80653  0.15273  0.53617  1.0000
  C   C2270     1.0  0.71641  0.15189  0.55166  1.0000
  C   C2271     1.0  0.70911  0.14342  0.54241  1.0000
  C   C2272     1.0  0.69060  0.14163  0.54855  1.0000
  C   C2273     1.0  0.67957  0.14795  0.56418  1.0000
  C   C2274     1.0  0.68697  0.15634  0.57337  1.0000
  C   C2275     1.0  0.70523  0.15846  0.56705  1.0000
  H   H1843     1.0  0.71776  0.13808  0.53070  1.0000
  H   H1844     1.0  0.68499  0.13503  0.54146  1.0000
  H   H1845     1.0  0.67855  0.16120  0.58548  1.0000
  H   H1846     1.0  0.71082  0.16489  0.57434  1.0000
  C   C2276     1.0  0.75062  0.13729  0.44654  1.0000
  C   C2277     1.0  0.76238  0.13092  0.43127  1.0000
  C   C2278     1.0  0.75536  0.12500  0.41961  1.0000
  C   C2279     1.0  0.73648  0.12544  0.42302  1.0000
  C   C2280     1.0  0.72471  0.13124  0.43861  1.0000
  C   C2281     1.0  0.73176  0.13735  0.45024  1.0000
  H   H1847     1.0  0.77684  0.13136  0.42795  1.0000
  H   H1848     1.0  0.76453  0.12057  0.40757  1.0000
  H   H1849     1.0  0.71014  0.13148  0.44139  1.0000
  H   H1850     1.0  0.72249  0.14281  0.46163  1.0000
  C   C2282     1.0  0.78925  0.05480  0.51598  1.0000
  C   C2283     1.0  0.78371  0.03822  0.52406  1.0000
  C   C2284     1.0  0.79268  0.02250  0.51698  1.0000
  C   C2285     1.0  0.80759  0.02307  0.50193  1.0000
  C   C2286     1.0  0.81329  0.03964  0.49387  1.0000
  C   C2287     1.0  0.80403  0.05553  0.50074  1.0000
  H   H1851     1.0  0.77248  0.03747  0.53595  1.0000
  H   H1852     1.0  0.78832  0.00982  0.52339  1.0000
  H   H1853     1.0  0.82483  0.04020  0.48220  1.0000
  H   H1854     1.0  0.80843  0.06823  0.49437  1.0000
  C   C2288     1.0  0.57058  0.13647  0.63017  1.0000
  C   C2289     1.0  0.58772  0.13514  0.61786  1.0000
  C   C2290     1.0  0.58912  0.13441  0.59970  1.0000
  C   C2291     1.0  0.57350  0.13428  0.59403  1.0000
  C   C2292     1.0  0.55639  0.13546  0.60635  1.0000
  C   C2293     1.0  0.60563  0.03712  0.60776  1.0000
  H   H1855     1.0  0.59995  0.13451  0.62238  1.0000
  H   H1856     1.0  0.60240  0.13350  0.59028  1.0000
  H   H1857     1.0  0.54431  0.13537  0.60200  1.0000
  H   H1858     1.0  0.52750  0.05593  0.36029  1.0000
  C   C2294     1.0  0.65989  0.11146  0.34727  1.0000
  C   C2295     1.0  0.64170  0.11115  0.35713  1.0000
  C   C2296     1.0  0.62813  0.11100  0.34807  1.0000
  H   H1859     1.0  0.75820  0.01332  0.57773  1.0000
  H   H1860     1.0  0.63821  0.11092  0.37165  1.0000
  H   H1861     1.0  0.61414  0.11065  0.35559  1.0000
  C   C2297     1.0  0.55694  0.21451  0.55311  1.0000
  S   S340      1.0  0.56586  0.04439  0.36081  1.0000
  H   H1862     1.0  0.59111  0.07888  0.57818  1.0000
  C   C2298     1.0  0.56543  0.03782  0.32816  1.0000
  H   H1863     1.0  0.69778  0.00192  0.45333  1.0000
  H   H1864     1.0  0.68962  0.99173  0.48987  1.0000
  H   H1865     1.0  0.83792  0.02988  0.59528  1.0000
  C   C2299     1.0  0.50096  0.06582  0.35324  1.0000
  C   C2300     1.0  0.74285  0.08257  0.37678  1.0000
  C   C2301     1.0  0.75227  0.07199  0.36375  1.0000
  C   C2302     1.0  0.76139  0.05393  0.36932  1.0000
  C   C2303     1.0  0.76101  0.04644  0.38794  1.0000
  C   C2304     1.0  0.75151  0.05701  0.40110  1.0000
  C   C2305     1.0  0.74246  0.07508  0.39537  1.0000
  P   P73       1.0  0.75025  0.04702  0.42513  1.0000
  C   C2306     1.0  0.73349  0.03285  0.43378  1.0000
  C   C2307     1.0  0.77299  0.03361  0.42742  1.0000
  C   C2308     1.0  0.54900  0.06414  0.62243  1.0000
  H   H1866     1.0  0.79441  0.06221  0.62878  1.0000
  H   H1867     1.0  0.58363  0.09735  0.59916  1.0000
  C   C2309     1.0  0.55652  0.09370  0.47591  1.0000
  H   H1868     1.0  0.95540  0.19634  0.59685  1.0000
  C   C2310     1.0  0.72787  0.02678  0.45278  1.0000
  C   C2311     1.0  0.71511  0.01561  0.45980  1.0000
  S   S341      1.0  0.67089  0.98734  0.56098  1.0000
  C   C2312     1.0  0.71331  0.01647  0.42899  1.0000
  C   C2313     1.0  0.72605  0.02770  0.42189  1.0000
  C   C2314     1.0  0.74279  0.06465  0.43834  1.0000
  C   C2315     1.0  0.72384  0.07226  0.44346  1.0000
  C   C2316     1.0  0.71774  0.08532  0.45431  1.0000
  C   C2317     1.0  0.73042  0.09075  0.46029  1.0000
  C   C2318     1.0  0.74928  0.08385  0.45468  1.0000
  C   C2319     1.0  0.75548  0.07077  0.44383  1.0000
  H   H1869     1.0  0.73559  0.09654  0.37262  1.0000
  H   H1870     1.0  0.75235  0.07777  0.34937  1.0000
  H   H1871     1.0  0.76860  0.04568  0.35924  1.0000
  H   H1872     1.0  0.76790  0.03235  0.39214  1.0000
  H   H1873     1.0  0.73494  0.08338  0.40526  1.0000
  C   C2320     1.0  0.60506  0.04865  0.54239  1.0000
  C   C2321     1.0  0.61701  0.03653  0.42470  1.0000
  H   H1874     1.0  0.81151  0.07192  0.55943  1.0000
  H   H1875     1.0  0.78696  0.05536  0.41178  1.0000
  H   H1876     1.0  0.73351  0.03051  0.46218  1.0000
  H   H1877     1.0  0.79771  0.21727  0.60444  1.0000
  H   H1878     1.0  0.52532  0.02376  0.36906  1.0000
  C   C2322     1.0  0.51186  0.99287  0.38514  1.0000
  H   H1879     1.0  0.72994  0.03227  0.40720  1.0000
  H   H1880     1.0  0.71374  0.06811  0.43908  1.0000
  H   H1881     1.0  0.70315  0.09118  0.45814  1.0000
  H   H1882     1.0  0.72572  0.10078  0.46879  1.0000
  H   H1883     1.0  0.75910  0.08870  0.45872  1.0000
  H   H1884     1.0  0.77012  0.06547  0.44002  1.0000
  C   C2323     1.0  0.80528  0.06131  0.61657  1.0000
  H   H1885     1.0  0.62126  0.04341  0.44800  1.0000
  H   H1886     1.0  0.70787  0.01223  0.41978  1.0000
  H   H1887     1.0  0.68029  0.20996  0.33636  1.0000
  S   S342      1.0  0.56962  0.09760  0.35078  1.0000
  C   C2324     1.0  0.81976  0.07906  0.54745  1.0000
  C   C2325     1.0  0.57865  0.18025  0.61633  1.0000
  C   C2326     1.0  0.59528  0.17206  0.62199  1.0000
  C   C2327     1.0  0.61200  0.17066  0.60907  1.0000
  H   H1888     1.0  0.59506  0.16600  0.63636  1.0000
  C   C2328     1.0  0.55946  0.03305  0.59269  1.0000
  C   C2329     1.0  0.77229  0.02094  0.62416  1.0000
  H   H1889     1.0  0.62483  0.16365  0.61335  1.0000
  H   H1890     1.0  0.83230  0.08178  0.50137  1.0000
  H   H1891     1.0  0.56594  0.18048  0.62662  1.0000
  H   H1892     1.0  0.64337  0.99772  0.39324  1.0000
  C   C2330     1.0  0.61223  0.99211  0.36456  1.0000
  C   C2331     1.0  0.80832  0.01314  0.43154  1.0000
  C   C2332     1.0  0.78971  0.03677  0.57729  1.0000
  C   C2333     1.0  0.77255  0.03195  0.58144  1.0000
  C   C2334     1.0  0.53329  0.23229  0.59387  1.0000
  H   H1893     1.0  0.98325  0.17569  0.58406  1.0000
  H   H1894     1.0  0.79130  0.04742  0.58284  1.0000
  C   C2335     1.0  0.49794  0.02910  0.36376  1.0000
  H   H1895     1.0  0.62513  0.17650  0.58050  1.0000
  C   C2336     1.0  0.67070  0.21591  0.42718  1.0000
  H   H1896     1.0  0.62863  0.18678  0.37377  1.0000
  H   H1897     1.0  0.63516  0.16302  0.35573  1.0000
  H   H1898     1.0  0.54154  0.13815  0.63372  1.0000
  C   C2337     1.0  0.74141  0.01147  0.54108  1.0000
  C   C2338     1.0  0.72397  0.02200  0.53865  1.0000
  C   C2339     1.0  0.70823  0.01832  0.55199  1.0000
  P   P74       1.0  0.72177  0.04079  0.51923  1.0000
  C   C2340     1.0  0.71699  0.06130  0.52774  1.0000
  C   C2341     1.0  0.74282  0.03883  0.50178  1.0000
  C   C2342     1.0  0.75323  0.05237  0.49574  1.0000
  C   C2343     1.0  0.76978  0.05006  0.48263  1.0000
  C   C2344     1.0  0.77588  0.03448  0.47520  1.0000
  C   C2345     1.0  0.76527  0.02131  0.48068  1.0000
  C   C2346     1.0  0.74878  0.02347  0.49387  1.0000
  C   C2347     1.0  0.70038  0.07428  0.52696  1.0000
  C   C2348     1.0  0.69677  0.08993  0.53398  1.0000
  H   H1899     1.0  0.70251  0.21450  0.37980  1.0000
  C   C2349     1.0  0.72986  0.06413  0.53575  1.0000
  C   C2350     1.0  0.70440  0.04055  0.50788  1.0000
  C   C2351     1.0  0.70083  0.05470  0.49287  1.0000
  C   C2352     1.0  0.68847  0.05438  0.48289  1.0000
  C   C2353     1.0  0.67954  0.03993  0.48785  1.0000
  C   C2354     1.0  0.68276  0.02591  0.50296  1.0000
  C   C2355     1.0  0.69548  0.02593  0.51271  1.0000
  H   H1900     1.0  0.52164  0.99469  0.42475  1.0000
  C   C2356     1.0  0.96832  0.19599  0.59996  1.0000
  H   H1901     1.0  0.62566  0.22550  0.51048  1.0000
  H   H1902     1.0  0.75382  0.01442  0.53135  1.0000
  H   H1903     1.0  0.69472  0.02674  0.55077  1.0000
  H   H1904     1.0  0.74887  0.06463  0.50114  1.0000
  H   H1905     1.0  0.77805  0.06026  0.47843  1.0000
  H   H1906     1.0  0.78898  0.03245  0.46545  1.0000
  H   H1907     1.0  0.77005  0.00912  0.47512  1.0000
  H   H1908     1.0  0.74088  0.01293  0.49811  1.0000
  H   H1909     1.0  0.69010  0.07230  0.52114  1.0000
  H   H1910     1.0  0.68381  0.09980  0.53345  1.0000
  H   H1911     1.0  0.74274  0.05429  0.53652  1.0000
  H   H1912     1.0  0.70774  0.06592  0.48889  1.0000
  H   H1913     1.0  0.68580  0.06531  0.47126  1.0000
  H   H1914     1.0  0.67020  0.03958  0.47989  1.0000
  H   H1915     1.0  0.78676  0.00384  0.64498  1.0000
  H   H1916     1.0  0.69834  0.01441  0.52374  1.0000
  C   C2357     1.0  0.72713  0.99259  0.56875  1.0000
  S   S343      1.0  0.62627  0.00370  0.57526  1.0000
  H   H1917     1.0  0.63663  0.02796  0.64794  1.0000
  H   H1918     1.0  0.76315  0.14755  0.33118  1.0000
  C   C2358     1.0  0.90738  0.21040  0.60614  1.0000
  C   C2359     1.0  0.74238  0.17263  0.32982  1.0000
  H   H1919     1.0  0.55124  0.22756  0.55700  1.0000
  C   C2360     1.0  0.94416  0.21814  0.55819  1.0000
  H   H1920     1.0  0.71981  0.19580  0.33213  1.0000
  C   C2361     1.0  0.50373  0.03247  0.64489  1.0000
  H   H1921     1.0  0.90192  0.21310  0.59400  1.0000
  C   C2362     1.0  0.51632  0.18289  0.63334  1.0000
  C   C2363     1.0  0.60655  0.00653  0.37369  1.0000
  C   C2364     1.0  0.66460  0.16007  0.34990  1.0000
  C   C2365     1.0  0.67922  0.16546  0.35277  1.0000
  C   C2366     1.0  0.67570  0.17858  0.36334  1.0000
  H   H1922     1.0  0.60363  0.99050  0.35647  1.0000
  P   P75       1.0  0.69444  0.18537  0.36765  1.0000
  C   C2367     1.0  0.69518  0.17960  0.39171  1.0000
  C   C2368     1.0  0.71619  0.17361  0.35578  1.0000
  C   C2369     1.0  0.72550  0.18204  0.33867  1.0000
  H   H1923     1.0  0.55822  0.22636  0.52434  1.0000
  C   C2370     1.0  0.75005  0.15481  0.33798  1.0000
  C   C2371     1.0  0.74079  0.14634  0.35496  1.0000
  C   C2372     1.0  0.72390  0.15565  0.36376  1.0000
  C   C2373     1.0  0.67987  0.17548  0.40550  1.0000
  C   C2374     1.0  0.68098  0.17055  0.42392  1.0000
  C   C2375     1.0  0.69727  0.16993  0.42875  1.0000
  C   C2376     1.0  0.71260  0.17395  0.41519  1.0000
  C   C2377     1.0  0.71160  0.17872  0.39674  1.0000
  H   H1924     1.0  0.58102  0.00841  0.59515  1.0000
  H   H1925     1.0  0.67028  0.02172  0.63668  1.0000
  C   C2378     1.0  0.69678  0.22051  0.36774  1.0000
  Fe  Fe168     1.0  0.87759  0.23248  0.53437  1.0000
  C   C2379     1.0  0.50288  0.13144  0.34749  1.0000
  H   H1926     1.0  0.69317  0.15887  0.34716  1.0000
  H   H1927     1.0  0.82186  0.00534  0.43359  1.0000
  S   S344      1.0  0.89329  0.23182  0.55497  1.0000
  H   H1928     1.0  0.51064  0.18490  0.64724  1.0000
  C   C2380     1.0  0.95037  0.22489  0.64203  1.0000
  H   H1929     1.0  0.84652  0.10590  0.50317  1.0000
  H   H1930     1.0  0.51688  0.03466  0.58675  1.0000
  H   H1931     1.0  0.66718  0.17551  0.40224  1.0000
  H   H1932     1.0  0.74665  0.13255  0.36146  1.0000
  H   H1933     1.0  0.69819  0.16595  0.44299  1.0000
  H   H1934     1.0  0.72545  0.17279  0.41898  1.0000
  H   H1935     1.0  0.72378  0.18140  0.38640  1.0000
  H   H1936     1.0  0.59613  0.19196  0.57037  1.0000
  H   H1937     1.0  0.53003  0.00146  0.58915  1.0000
  H   H1938     1.0  0.53729  0.11153  0.59050  1.0000
  C   C2381     1.0  0.78187  0.20010  0.53328  1.0000
  C   C2382     1.0  0.76834  0.19073  0.53474  1.0000
  C   C2383     1.0  0.75046  0.20038  0.53334  1.0000
  C   C2384     1.0  0.81094  0.21423  0.55962  1.0000
  C   C2385     1.0  0.81148  0.21084  0.57811  1.0000
  C   C2386     1.0  0.74294  0.99675  0.55602  1.0000
  C   C2387     1.0  0.54035  0.09823  0.59941  1.0000
  H   H1939     1.0  0.62051  0.06872  0.52535  1.0000
  H   H1940     1.0  0.79554  0.19240  0.53486  1.0000
  H   H1941     1.0  0.77165  0.17593  0.53709  1.0000
  H   H1942     1.0  0.73997  0.19299  0.53469  1.0000
  H   H1943     1.0  0.82207  0.20702  0.55054  1.0000
  H   H1944     1.0  0.82316  0.20124  0.58300  1.0000
  H   H1945     1.0  0.74733  0.20006  0.49468  1.0000
  H   H1946     1.0  0.83823  0.19574  0.48405  1.0000
  H   H1947     1.0  0.68850  0.04241  0.63890  1.0000
  H   H1948     1.0  0.71130  0.01063  0.47445  1.0000
  C   C2388     1.0  0.80725  0.11505  0.57532  1.0000
  C   C2389     1.0  0.82839  0.09221  0.54875  1.0000
  C   C2390     1.0  0.83800  0.10188  0.53258  1.0000
  C   C2391     1.0  0.83940  0.09809  0.51560  1.0000
  C   C2392     1.0  0.81745  0.22260  0.51537  1.0000
  C   C2393     1.0  0.51379  0.03400  0.36474  1.0000
  C   C2394     1.0  0.79036  0.11495  0.57195  1.0000
  C   C2395     1.0  0.77512  0.12938  0.57469  1.0000
  C   C2396     1.0  0.77652  0.14384  0.58118  1.0000
  C   C2397     1.0  0.79304  0.14366  0.58536  1.0000
  C   C2398     1.0  0.80833  0.12928  0.58258  1.0000
  H   H1949     1.0  0.84424  0.11259  0.53276  1.0000
  C   C2399     1.0  0.95653  0.22764  0.55963  1.0000
  C   C2400     1.0  0.82158  0.07503  0.53051  1.0000
  H   H1950     1.0  0.78904  0.10383  0.56695  1.0000
  H   H1951     1.0  0.76230  0.12956  0.57144  1.0000
  H   H1952     1.0  0.76479  0.15519  0.58290  1.0000
  H   H1953     1.0  0.79414  0.15486  0.59045  1.0000
  H   H1954     1.0  0.82093  0.12950  0.58595  1.0000
  C   C2401     1.0  0.60914  0.01544  0.63630  1.0000
  C   C2402     1.0  0.73505  0.19759  0.49249  1.0000
  C   C2403     1.0  0.73671  0.18723  0.47981  1.0000
  C   C2404     1.0  0.72102  0.18346  0.47730  1.0000
  C   C2405     1.0  0.70344  0.19037  0.48723  1.0000
  C   C2406     1.0  0.70184  0.20105  0.49975  1.0000
  P   P76       1.0  0.68326  0.18533  0.48391  1.0000
  C   C2407     1.0  0.67842  0.19751  0.46169  1.0000
  C   C2408     1.0  0.68708  0.16089  0.48620  1.0000
  C   C2409     1.0  0.67726  0.15364  0.47820  1.0000
  C   C2410     1.0  0.68007  0.13476  0.48027  1.0000
  C   C2411     1.0  0.69256  0.12291  0.49053  1.0000
  C   C2412     1.0  0.70240  0.12995  0.49857  1.0000
  C   C2413     1.0  0.69963  0.14883  0.49649  1.0000
  C   C2414     1.0  0.69163  0.20571  0.44794  1.0000
  H   H1955     1.0  0.92739  0.22679  0.59304  1.0000
  H   H1956     1.0  0.78538  0.99737  0.55833  1.0000
  C   C2415     1.0  0.65740  0.20802  0.44084  1.0000
  C   C2416     1.0  0.66122  0.19889  0.45800  1.0000
  C   C2417     1.0  0.66391  0.19179  0.50200  1.0000
  C   C2418     1.0  0.66251  0.18085  0.51975  1.0000
  C   C2419     1.0  0.64794  0.18596  0.53399  1.0000
  C   C2420     1.0  0.63456  0.20193  0.53064  1.0000
  C   C2421     1.0  0.63605  0.21313  0.51311  1.0000
  C   C2422     1.0  0.65081  0.20824  0.49889  1.0000
  H   H1957     1.0  0.85929  0.22048  0.63912  1.0000
  C   C2423     1.0  0.98991  0.23261  0.50521  1.0000
  H   H1958     1.0  0.75022  0.18183  0.47207  1.0000
  H   H1959     1.0  0.72264  0.17505  0.46768  1.0000
  C   C2424     1.0  0.63279  0.11156  0.32914  1.0000
  H   H1960     1.0  0.66730  0.16243  0.47048  1.0000
  H   H1961     1.0  0.67232  0.12928  0.47417  1.0000
  H   H1962     1.0  0.69444  0.10828  0.49240  1.0000
  H   H1963     1.0  0.71218  0.12079  0.50642  1.0000
  H   H1964     1.0  0.70729  0.15395  0.50297  1.0000
  C   C2425     1.0  0.56090  0.21391  0.53453  1.0000
  C   C2426     1.0  0.66728  0.01701  0.34015  1.0000
  H   H1965     1.0  0.69814  0.22085  0.42016  1.0000
  H   H1966     1.0  0.64418  0.20875  0.43809  1.0000
  H   H1967     1.0  0.65072  0.19294  0.46846  1.0000
  H   H1968     1.0  0.67270  0.16839  0.52263  1.0000
  H   H1969     1.0  0.81508  0.00699  0.54999  1.0000
  H   H1970     1.0  0.62304  0.20557  0.54162  1.0000
  C   C2427     1.0  0.90671  0.19601  0.63805  1.0000
  H   H1971     1.0  0.65184  0.21730  0.48553  1.0000
  C   C2428     1.0  0.55518  0.03536  0.40996  1.0000
  C   C2429     1.0  0.54910  0.05431  0.40544  1.0000
  C   C2430     1.0  0.56192  0.06540  0.39767  1.0000
  C   C2431     1.0  0.58082  0.05754  0.39407  1.0000
  C   C2432     1.0  0.58700  0.03847  0.39795  1.0000
  C   C2433     1.0  0.57409  0.02748  0.40642  1.0000
  P   P77       1.0  0.61132  0.02818  0.39450  1.0000
  C   C2434     1.0  0.61747  0.00849  0.38444  1.0000
  C   C2435     1.0  0.62441  0.04363  0.37783  1.0000
  C   C2436     1.0  0.61920  0.05216  0.36103  1.0000
  C   C2437     1.0  0.62972  0.06351  0.34762  1.0000
  C   C2438     1.0  0.64561  0.06620  0.35079  1.0000
  C   C2439     1.0  0.65096  0.05766  0.36738  1.0000
  C   C2440     1.0  0.64052  0.04622  0.38079  1.0000
  S   S345      1.0  0.64131  0.00329  0.52397  1.0000
  H   H1972     1.0  0.65887  0.03071  0.33829  1.0000
  H   H1973     1.0  0.65422  0.19705  0.37825  1.0000
  H   H1974     1.0  0.54930  0.05476  0.45823  1.0000
  C   C2441     1.0  0.76068  0.03782  0.61857  1.0000
  C   C2442     1.0  0.61604  0.02260  0.41709  1.0000
  H   H1975     1.0  0.54525  0.02677  0.41584  1.0000
  H   H1976     1.0  0.53447  0.06043  0.40765  1.0000
  H   H1977     1.0  0.55721  0.08008  0.39398  1.0000
  H   H1978     1.0  0.59050  0.06636  0.38802  1.0000
  H   H1979     1.0  0.73213  0.22685  0.52979  1.0000
  H   H1980     1.0  0.60700  0.05003  0.35830  1.0000
  C   C2443     1.0  0.66348  0.03334  0.64299  1.0000
  H   H1981     1.0  0.65375  0.07501  0.34044  1.0000
  H   H1982     1.0  0.66322  0.05995  0.36978  1.0000
  H   H1983     1.0  0.64517  0.03926  0.39332  1.0000
  H   H1984     1.0  0.57870  0.01285  0.41012  1.0000
  H   H1985     1.0  0.50300  0.06681  0.61352  1.0000
  C   C2444     1.0  0.98419  0.18417  0.59259  1.0000
  C   C2445     1.0  0.80337  0.01370  0.55908  1.0000
  H   H1986     1.0  0.67027  0.01768  0.36663  1.0000
  C   C2446     1.0  0.58757  0.03491  0.61050  1.0000
  H   H1987     1.0  0.88858  0.19341  0.62258  1.0000
  P   P78       1.0  0.59390  0.08946  0.45818  1.0000
  C   C2447     1.0  0.77779  0.21926  0.52989  1.0000
  C   C2448     1.0  0.92173  0.21825  0.60569  1.0000
  C   C2449     1.0  0.64014  0.98803  0.51169  1.0000
  C   C2450     1.0  0.96940  0.20740  0.61067  1.0000
  C   C2451     1.0  0.89992  0.19921  0.62228  1.0000
  P   P79       1.0  0.82691  0.09656  0.57095  1.0000
  C   C2452     1.0  0.80891  0.07724  0.60400  1.0000
  C   C2453     1.0  0.57862  0.18742  0.59767  1.0000
  C   C2454     1.0  0.86066  0.08968  0.58141  1.0000
  C   C2455     1.0  0.53073  0.19112  0.62222  1.0000
  C   C2456     1.0  0.59559  0.18638  0.58482  1.0000
  H   H1988     1.0  0.71327  0.99831  0.62865  1.0000
  C   C2457     1.0  0.61215  0.17785  0.59051  1.0000
  P   P80       1.0  0.94907  0.22320  0.61970  1.0000
  C   C2458     1.0  0.68427  0.21803  0.34336  1.0000
  C   C2459     1.0  0.60605  0.07569  0.55125  1.0000
  C   C2460     1.0  0.71762  0.20452  0.50244  1.0000
  C   C2461     1.0  0.70981  0.09276  0.54168  1.0000
  C   C2462     1.0  0.51628  0.00396  0.33422  1.0000
  H   H1989     1.0  0.85806  0.07652  0.58913  1.0000
  C   C2463     1.0  0.50364  0.99656  0.34927  1.0000
  C   C2464     1.0  0.75074  0.09569  0.56861  1.0000
  C   C2465     1.0  0.85215  0.21052  0.49363  1.0000
  C   C2466     1.0  0.75689  0.07688  0.57447  1.0000
  C   C2467     1.0  0.92899  0.21475  0.62131  1.0000
  C   C2468     1.0  0.58354  0.08013  0.64431  1.0000
  S   S346      1.0  0.81947  0.00322  0.49326  1.0000
  C   C2469     1.0  0.57710  0.08991  0.62855  1.0000
  C   C2470     1.0  0.70978  0.00338  0.56673  1.0000
  C   C2471     1.0  0.60173  0.06980  0.64289  1.0000
  C   C2472     1.0  0.64594  0.99179  0.49260  1.0000
  S   S347      1.0  0.67563  0.00477  0.40237  1.0000
  C   C2473     1.0  0.62056  0.01507  0.45322  1.0000
  C   C2474     1.0  0.68139  0.98844  0.33027  1.0000
  H   H1990     1.0  0.80069  0.09031  0.60672  1.0000
  H   H1991     1.0  0.50220  0.07994  0.34901  1.0000
  H   H1992     1.0  0.74620  0.06385  0.62580  1.0000
  C   C2475     1.0  0.53862  0.18809  0.60439  1.0000
  H   H1993     1.0  0.71632  0.21243  0.51238  1.0000
  S   S348      1.0  0.52565  0.13433  0.34264  1.0000
  C   C2476     1.0  0.75967  0.22885  0.52890  1.0000
  H   H1994     1.0  0.75893  0.10317  0.55687  1.0000
  H   H1995     1.0  0.76985  0.07024  0.56695  1.0000
  C   C2477     1.0  0.72643  0.07996  0.54233  1.0000
  H   H1996     1.0  0.92950  0.22341  0.56193  1.0000
  H   H1997     1.0  0.66741  0.14956  0.34219  1.0000
  H   H1998     1.0  0.75637  0.98826  0.55750  1.0000
  H   H1999     1.0  0.52258  0.22613  0.59323  1.0000
  P   P81       1.0  0.55728  0.19887  0.59020  1.0000
  C   C2478     1.0  0.56072  0.19840  0.56631  1.0000
  C   C2479     1.0  0.56856  0.19727  0.52903  1.0000
  H   H2000     1.0  0.57201  0.19678  0.51463  1.0000
  H   H2001     1.0  0.70710  0.10486  0.54709  1.0000
  C   C2480     1.0  0.55152  0.22215  0.59295  1.0000
  C   C2481     1.0  0.61960  0.03274  0.44256  1.0000
  S   S349      1.0  0.89082  0.20380  0.53057  1.0000
  C   C2482     1.0  0.53652  0.07540  0.47425  1.0000
  C   C2483     1.0  0.77795  0.01696  0.64070  1.0000
  C   C2484     1.0  0.53081  0.02900  0.58873  1.0000
  C   C2485     1.0  0.84805  0.10212  0.57141  1.0000
  C   C2486     1.0  0.78654  0.00838  0.56367  1.0000
  C   C2487     1.0  0.98239  0.20459  0.54882  1.0000
  C   C2488     1.0  0.57206  0.18121  0.54212  1.0000
  H   H2002     1.0  0.56633  0.05181  0.32232  1.0000
  C   C2489     1.0  0.53233  0.09570  0.61816  1.0000
  H   H2003     1.0  0.53018  0.07658  0.64415  1.0000
  H   H2004     1.0  0.84443  0.05791  0.57297  1.0000
  Fe  Fe169     1.0  0.64446  0.99004  0.55278  1.0000
  C   C2490     1.0  0.56832  0.18179  0.56063  1.0000
  H   H2005     1.0  0.81799  0.03209  0.56216  1.0000
  H   H2006     1.0  0.73681  0.08234  0.54771  1.0000
  H   H2007     1.0  0.60979  0.03974  0.53272  1.0000
  H   H2008     1.0  0.88655  0.08462  0.58940  1.0000
  C   C2491     1.0  0.83349  0.05900  0.58514  1.0000
  C   C2492     1.0  0.53143  0.17712  0.59772  1.0000
  H   H2009     1.0  0.57807  0.16828  0.53790  1.0000
  H   H2010     1.0  0.57168  0.16931  0.57055  1.0000
  H   H2011     1.0  0.59380  0.01626  0.37210  1.0000
  C   C2493     1.0  0.56368  0.00122  0.34241  1.0000
  Fe  Fe170     1.0  0.65242  0.99896  0.58472  1.0000
  P   P82       1.0  0.57318  0.04763  0.59440  1.0000
  C   C2494     1.0  0.64640  0.16769  0.35751  1.0000
  C   C2495     1.0  0.77549  0.01524  0.43664  1.0000
  H   H2012     1.0  0.64023  0.04025  0.50446  1.0000
  H   H2013     1.0  0.76393  0.00866  0.44243  1.0000
  H   H2014     1.0  0.64694  0.17738  0.54760  1.0000
  H   H2015     1.0  0.71968  0.06883  0.60890  1.0000
  H   H2016     1.0  0.55824  0.08598  0.57750  1.0000
  H   H2017     1.0  0.62265  0.01215  0.46705  1.0000
  H   H2018     1.0  0.51384  0.01268  0.62746  1.0000
  P   P83       1.0  0.75331  0.04262  0.59726  1.0000
  C   C2496     1.0  0.79305  0.00511  0.43879  1.0000
  C   C2497     1.0  0.53823  0.01031  0.59001  1.0000
  H   H2019     1.0  0.67546  0.01496  0.50704  1.0000
  C   C2498     1.0  0.73363  0.10473  0.57726  1.0000
  C   C2499     1.0  0.74592  0.06698  0.58924  1.0000
  C   C2500     1.0  0.59451  0.07053  0.56821  1.0000
  H   H2020     1.0  0.73999  0.01161  0.62443  1.0000
  C   C2501     1.0  0.80607  0.03122  0.42171  1.0000
  C   C2502     1.0  0.73367  0.03274  0.60087  1.0000
  H   H2021     1.0  0.69659  0.03819  0.58256  1.0000
  H   H2022     1.0  0.61493  0.03027  0.49894  1.0000
  C   C2503     1.0  0.86825  0.12361  0.56198  1.0000
  C   C2504     1.0  0.58868  0.08955  0.61128  1.0000
  H   H2023     1.0  0.72888  0.11924  0.57254  1.0000
  C   C2505     1.0  0.85211  0.11906  0.56163  1.0000
  C   C2506     1.0  0.55258  0.08371  0.59212  1.0000
  C   C2507     1.0  0.63163  0.04939  0.49535  1.0000
  C   C2508     1.0  0.73063  0.01769  0.61525  1.0000
  C   C2509     1.0  0.82980  0.04310  0.59773  1.0000
  C   C2510     1.0  0.51519  0.05227  0.35964  1.0000
  Fe  Fe171     1.0  0.54880  0.11182  0.33320  1.0000
  H   H2024     1.0  0.53712  0.17443  0.58412  1.0000
  C   C2511     1.0  0.79619  0.22681  0.55297  1.0000
  C   C2512     1.0  0.64275  0.18107  0.36764  1.0000
  H   H2025     1.0  0.84266  0.12892  0.55388  1.0000
  H   H2026     1.0  0.98798  0.21620  0.62114  1.0000
  C   C2513     1.0  0.61725  0.04385  0.49227  1.0000
  H   H2027     1.0  0.64617  0.07100  0.48906  1.0000
  H   H2028     1.0  0.58000  0.06210  0.44995  1.0000
  C   C2514     1.0  0.56868  0.06982  0.45853  1.0000
  H   H2029     1.0  0.70497  0.20503  0.45025  1.0000
  C   C2515     1.0  0.81567  0.04425  0.61341  1.0000
  C   C2516     1.0  0.63492  0.06674  0.48675  1.0000
  C   C2517     1.0  0.63438  0.99606  0.38558  1.0000
  H   H2030     1.0  0.59216  0.15933  0.46898  1.0000
  H   H2031     1.0  0.58771  0.09971  0.39426  1.0000
  C   C2518     1.0  0.67350  0.00955  0.35642  1.0000
  C   C2519     1.0  0.83672  0.20502  0.49279  1.0000
  C   C2520     1.0  0.56533  0.00836  0.32354  1.0000
  C   C2521     1.0  0.88065  0.11120  0.57198  1.0000
  H   H2032     1.0  0.71692  0.14882  0.37690  1.0000
  C   C2522     1.0  0.56341  0.01235  0.35405  1.0000
  H   H2033     1.0  0.69748  0.00016  0.57656  1.0000
  C   C2523     1.0  0.67176  0.00671  0.32667  1.0000
  H   H2034     1.0  0.52303  0.07216  0.47783  1.0000
  C   C2524     1.0  0.78851  0.04137  0.41947  1.0000
  C   C2525     1.0  0.66425  0.11224  0.32842  1.0000
  C   C2526     1.0  0.80495  0.02791  0.56587  1.0000
  H   H2035     1.0  0.72367  0.05124  0.57747  1.0000
  C   C2527     1.0  0.62126  0.08134  0.42752  1.0000
  H   H2036     1.0  0.62555  0.07032  0.33477  1.0000
  H   H2037     1.0  0.61165  0.04611  0.59566  1.0000
  C   C2528     1.0  0.60261  0.08863  0.43424  1.0000
  C   C2529     1.0  0.60587  0.05582  0.48084  1.0000
  C   C2530     1.0  0.72141  0.03994  0.58896  1.0000
  H   H2038     1.0  0.59466  0.05130  0.47893  1.0000
  C   C2531     1.0  0.58771  0.05462  0.57225  1.0000
  C   C2532     1.0  0.72858  0.07619  0.59772  1.0000
  H   H2039     1.0  0.66922  0.16699  0.43444  1.0000
  C   C2533     1.0  0.62392  0.07855  0.47493  1.0000
  H   H2040     1.0  0.98594  0.21955  0.51027  1.0000
  C   C2534     1.0  0.51666  0.01841  0.63728  1.0000
  H   H2041     1.0  0.56711  0.02025  0.62812  1.0000
  H   H2042     1.0  0.89315  0.11481  0.57223  1.0000
  C   C2535     1.0  0.55631  0.00302  0.59232  1.0000
  C   C2536     1.0  0.71545  0.01011  0.61775  1.0000
  C   C2537     1.0  0.70766  0.01060  0.44793  1.0000
  C   C2538     1.0  0.60911  0.07331  0.47208  1.0000
  C   C2539     1.0  0.54138  0.04036  0.59001  1.0000
  Fe  Fe172     1.0  0.56789  0.07226  0.34332  1.0000
  C   C2540     1.0  0.53914  0.08942  0.48060  1.0000
  H   H2043     1.0  0.52768  0.09706  0.48910  1.0000
  H   H2044     1.0  0.62707  0.09177  0.46805  1.0000
  H   H2045     1.0  0.56222  0.98855  0.59316  1.0000
  C   C2541     1.0  0.61906  0.00114  0.44596  1.0000
  C   C2542     1.0  0.69164  0.20971  0.35902  1.0000
  H   H2046     1.0  0.61597  0.07962  0.59623  1.0000
  C   C2543     1.0  0.72248  0.09498  0.59173  1.0000
  C   C2544     1.0  0.76070  0.04666  0.64626  1.0000
  C   C2545     1.0  0.51694  0.16901  0.60886  1.0000
  C   C2546     1.0  0.81940  0.21112  0.50350  1.0000
  H   H2047     1.0  0.66781  0.22271  0.41381  1.0000
  C   C2547     1.0  0.61340  0.06971  0.62539  1.0000
  H   H2048     1.0  0.63016  0.02921  0.61851  1.0000
  C   C2548     1.0  0.59008  0.11459  0.47924  1.0000
  C   C2549     1.0  0.58065  0.02265  0.62611  1.0000
  C   C2550     1.0  0.97565  0.22110  0.55470  1.0000
  H   H2049     1.0  0.55817  0.10469  0.48087  1.0000
  C   C2551     1.0  0.70317  0.01758  0.60603  1.0000
  C   C2552     1.0  0.70607  0.03256  0.59174  1.0000
  H   H2050     1.0  0.69152  0.01159  0.60781  1.0000
  H   H2051     1.0  0.59665  0.15484  0.43754  1.0000
  H   H2052     1.0  0.61748  0.00770  0.64615  1.0000
  H   H2053     1.0  0.58877  0.10336  0.49101  1.0000
  H   H2054     1.0  0.63086  0.07633  0.43650  1.0000
  C   C2553     1.0  0.62771  0.08056  0.40898  1.0000
  H   H2055     1.0  0.64216  0.07499  0.40382  1.0000
  C   C2554     1.0  0.59259  0.11191  0.46145  1.0000
  H   H2056     1.0  0.81794  0.03742  0.41597  1.0000
  H   H2057     1.0  0.57618  0.10148  0.42687  1.0000
  C   C2555     1.0  0.59056  0.09540  0.42209  1.0000
  C   C2556     1.0  0.68777  0.21483  0.43076  1.0000
  H   H2058     1.0  0.54320  0.00006  0.63703  1.0000
  H   H2059     1.0  0.58841  0.13354  0.49562  1.0000
  C   C2557     1.0  0.58983  0.13166  0.48194  1.0000
  C   C2558     1.0  0.55129  0.06560  0.46322  1.0000
  C   C2559     1.0  0.59702  0.09445  0.40361  1.0000
  C   C2560     1.0  0.61556  0.08687  0.39711  1.0000
  C   C2561     1.0  0.59477  0.12661  0.44643  1.0000
  H   H2060     1.0  0.62055  0.08594  0.38286  1.0000
  H   H2061     1.0  0.59725  0.12493  0.43252  1.0000
  H   H2062     1.0  0.87105  0.13687  0.55456  1.0000
  H   H2063     1.0  0.53583  0.19968  0.62765  1.0000
  C   C2562     1.0  0.59441  0.14368  0.44921  1.0000
  C   C2563     1.0  0.59194  0.14621  0.46693  1.0000
  C   C2564     1.0  0.85023  0.22238  0.50497  1.0000
  C   C2565     1.0  0.92124  0.20371  0.63758  1.0000
  H   H2064     1.0  0.52297  0.10700  0.62386  1.0000
  C   C2566     1.0  0.98668  0.20706  0.61352  1.0000
  H   H2065     1.0  0.56324  0.09817  0.62973  1.0000
  H   H2066     1.0  0.53544  0.05480  0.58893  1.0000
  H   H2067     1.0  0.68851  0.20653  0.50767  1.0000
  C   C2567     1.0  0.61122  0.06483  0.53830  1.0000
  S   S350      1.0  0.85306  0.22462  0.55531  1.0000
  H   H2068     1.0  0.70901  0.10202  0.59813  1.0000
  Fe  Fe173     1.0  0.86987  0.22156  0.57578  1.0000
  C   C2568     1.0  0.61668  0.00491  0.42797  1.0000
  C   C2569     1.0  0.61629  0.02744  0.62069  1.0000
  C   C2570     1.0  0.55742  0.06663  0.60365  1.0000
  H   H2069     1.0  0.58900  0.03084  0.56218  1.0000
  C   C2571     1.0  0.60687  0.07958  0.60967  1.0000
  H   H2070     1.0  0.62758  0.06223  0.62367  1.0000
  C   C2572     1.0  0.59328  0.04360  0.55925  1.0000
  H   H2071     1.0  0.66277  0.00549  0.44129  1.0000
  H   H2072     1.0  0.61138  0.08791  0.54826  1.0000
  C   C2573     1.0  0.83295  0.22849  0.51571  1.0000
  H   H2073     1.0  0.52173  0.01520  0.33458  1.0000
  H   H2074     1.0  0.80770  0.20679  0.50237  1.0000
  H   H2075     1.0  0.57592  0.99104  0.39460  1.0000
  H   H2076     1.0  0.81520  0.06465  0.52968  1.0000
  H   H2077     1.0  0.50814  0.11300  0.32953  1.0000
  H   H2078     1.0  0.86562  0.20556  0.48555  1.0000
  C   C2574     1.0  0.50950  0.17176  0.62670  1.0000
  C   C2575     1.0  0.83130  0.08460  0.51457  1.0000
  H   H2079     1.0  0.50145  0.01199  0.40315  1.0000
  H   H2080     1.0  0.61993  0.98738  0.45425  1.0000
  C   C2576     1.0  0.74610  0.21943  0.53050  1.0000
  H   H2081     1.0  0.86216  0.22682  0.50547  1.0000
  C   C2577     1.0  0.65732  0.18671  0.37031  1.0000
  C   C2578     1.0  0.51100  0.99938  0.40060  1.0000
  C   C2579     1.0  0.79712  0.21983  0.59016  1.0000
  C   C2580     1.0  0.59124  0.01319  0.63906  1.0000
  C   C2581     1.0  0.75501  0.05070  0.62973  1.0000
  C   C2582     1.0  0.53646  0.07858  0.62961  1.0000
  H   H2082     1.0  0.59937  0.01079  0.32592  1.0000
  H   H2083     1.0  0.51176  0.16018  0.60383  1.0000
  C   C2583     1.0  0.67370  0.04503  0.64421  1.0000
  P   P84       1.0  0.49646  0.00530  0.36996  1.0000
  H   H2084     1.0  0.77682  0.01074  0.61583  1.0000
  C   C2584     1.0  0.86577  0.23195  0.63255  1.0000
  S   S351      1.0  0.99036  0.23425  0.55596  1.0000
  C   C2585     1.0  0.52236  0.98962  0.41287  1.0000
  C   C2586     1.0  0.78157  0.23551  0.56520  1.0000
  C   C2587     1.0  0.64435  0.03688  0.64945  1.0000
  H   H2085     1.0  0.79469  0.99108  0.44636  1.0000
  S   S352      1.0  0.59088  0.07469  0.31849  1.0000
  S   S353      1.0  0.54521  0.08622  0.32834  1.0000
  Fe  Fe174     1.0  0.59046  0.10151  0.32414  1.0000
  H   H2086     1.0  0.57946  0.22317  0.59236  1.0000
  C   C2588     1.0  0.68359  0.99156  0.35969  1.0000
  C   C2589     1.0  0.53348  0.01116  0.64267  1.0000
  P   P85       1.0  0.79524  0.23092  0.52923  1.0000
  H   H2087     1.0  0.90066  0.18760  0.65063  1.0000
  H   H2088     1.0  0.62487  0.02524  0.32231  1.0000
  C   C2590     1.0  0.56524  0.23058  0.59334  1.0000
  C   C2591     1.0  0.52227  0.99665  0.31851  1.0000
  H   H2089     1.0  0.49842  0.10040  0.60699  1.0000
  H   H2090     1.0  0.56265  0.98719  0.34800  1.0000
  H   H2091     1.0  0.67818  0.11268  0.32067  1.0000
  C   C2592     1.0  0.78205  0.23202  0.58375  1.0000
  H   H2092     1.0  0.92637  0.20093  0.64988  1.0000
  C   C2593     1.0  0.65079  0.11256  0.31941  1.0000
  H   H2093     1.0  0.96158  0.19605  0.65061  1.0000
  C   C2594     1.0  0.49785  0.12024  0.33920  1.0000
  H   H2094     1.0  0.58562  0.00395  0.65116  1.0000
  Fe  Fe175     1.0  0.52392  0.19583  0.93374  1.0000
  S   S354      1.0  0.53883  0.19610  0.90450  1.0000
  S   S355      1.0  0.53277  0.17215  0.95593  1.0000
  H   H2095     1.0  0.54028  0.05510  0.73978  1.0000
  C   C2595     1.0  0.53043  0.23399  0.97379  1.0000
  C   C2596     1.0  0.57866  0.02095  0.73859  1.0000
  C   C2597     1.0  0.52965  0.17523  0.97827  1.0000
  C   C2598     1.0  0.58425  0.19941  0.94154  1.0000
  S   S356      1.0  0.49989  0.10991  0.69953  1.0000
  S   S357      1.0  0.54104  0.11496  0.69994  1.0000
  C   C2599     1.0  0.58672  0.19073  0.98016  1.0000
  S   S358      1.0  0.49725  0.14855  0.72439  1.0000
  H   H2096     1.0  0.51883  0.18666  0.83850  1.0000
  C   C2600     1.0  0.51787  0.02181  0.71568  1.0000
  S   S359      1.0  0.53397  0.10664  0.66316  1.0000
  H   H2097     1.0  0.56092  0.02293  0.68269  1.0000
  H   H2098     1.0  0.63881  0.07600  0.66385  1.0000
  H   H2099     1.0  0.64545  0.22335  0.92580  1.0000
  C   C2601     1.0  0.53312  0.20850  0.82815  1.0000
  H   H2100     1.0  0.58144  0.17968  0.90174  1.0000
  C   C2602     1.0  0.58805  0.20147  0.90899  1.0000
  H   H2101     1.0  0.50102  0.11911  0.83938  1.0000
  H   H2102     1.0  0.59223  0.01741  0.73001  1.0000
  H   H2103     1.0  0.51487  0.07051  0.82917  1.0000
  H   H2104     1.0  0.50087  0.15751  0.95825  1.0000
  C   C2603     1.0  0.54920  0.04218  0.74425  1.0000
  C   C2604     1.0  0.54292  0.02972  0.76002  1.0000
  H   H2105     1.0  0.59131  0.20884  0.89491  1.0000
  H   H2106     1.0  0.57215  0.16366  0.93402  1.0000
  C   C2605     1.0  0.50800  0.11256  0.77097  1.0000
  H   H2107     1.0  0.52137  0.00748  0.72188  1.0000
  H   H2108     1.0  0.55041  0.00319  0.77748  1.0000
  C   C2606     1.0  0.49645  0.15519  0.94722  1.0000
  H   H2109     1.0  0.51488  0.14646  0.90448  1.0000
  Fe  Fe176     1.0  0.54339  0.12802  0.67015  1.0000
  C   C2607     1.0  0.95730  0.20925  0.65432  1.0000
  C   C2608     1.0  0.53419  0.04440  0.79707  1.0000
  C   C2609     1.0  0.49956  0.19613  0.77275  1.0000
  H   H2110     1.0  0.53556  0.20784  0.84145  1.0000
  C   C2610     1.0  0.52761  0.12347  0.83846  1.0000
  C   C2611     1.0  0.53916  0.13587  0.83245  1.0000
  C   C2612     1.0  0.53289  0.15366  0.82316  1.0000
  H   H2111     1.0  0.53241  0.10967  0.84564  1.0000
  H   H2112     1.0  0.55298  0.13168  0.83495  1.0000
  H   H2113     1.0  0.54220  0.16291  0.81830  1.0000
  C   C2613     1.0  0.50988  0.12880  0.83501  1.0000
  H   H2114     1.0  0.58972  0.11765  0.68150  1.0000
  C   C2614     1.0  0.53750  0.01776  0.65579  1.0000
  Fe  Fe177     1.0  0.51074  0.20346  0.89806  1.0000
  H   H2115     1.0  0.57340  0.17621  0.95929  1.0000
  H   H2116     1.0  0.54397  0.02671  0.71560  1.0000
  C   C2615     1.0  0.57270  0.00865  0.75457  1.0000
  H   H2117     1.0  0.54674  0.23067  0.81422  1.0000
  H   H2118     1.0  0.52027  0.00619  0.75463  1.0000
  C   C2616     1.0  0.61969  0.21604  0.94109  1.0000
  C   C2617     1.0  0.58588  0.00661  0.69087  1.0000
  H   H2119     1.0  0.61228  0.99382  0.69765  1.0000
  H   H2120     1.0  0.54637  0.20671  0.97283  1.0000
  H   H2121     1.0  0.52801  0.03699  0.67338  1.0000
  H   H2122     1.0  0.61181  0.17494  0.96633  1.0000
  C   C2618     1.0  0.59284  0.10295  0.68627  1.0000
  C   C2619     1.0  0.57510  0.02254  0.68250  1.0000
  H   H2123     1.0  0.59154  0.07048  0.72573  1.0000
  C   C2620     1.0  0.50878  0.18129  0.78423  1.0000
  H   H2124     1.0  0.54082  0.23211  0.78395  1.0000
  Fe  Fe178     1.0  0.49782  0.98858  0.71374  1.0000
  S   S360      1.0  0.54185  0.06497  0.70081  1.0000
  C   C2621     1.0  0.50070  0.98971  0.80644  1.0000
  C   C2622     1.0  0.52603  0.05139  0.70450  1.0000
  C   C2623     1.0  0.50473  0.06989  0.75583  1.0000
  C   C2624     1.0  0.58871  0.20877  0.92329  1.0000
  H   H2125     1.0  0.58008  0.99462  0.69733  1.0000
  C   C2625     1.0  0.60082  0.03767  0.67384  1.0000
  C   C2626     1.0  0.57736  0.17595  0.93099  1.0000
  H   H2126     1.0  0.55015  0.01144  0.66064  1.0000
  H   H2127     1.0  0.60310  0.05040  0.70347  1.0000
  H   H2128     1.0  0.96376  0.19840  0.68100  1.0000
  C   C2627     1.0  0.59384  0.07637  0.71116  1.0000
  S   S361      1.0  0.52380  0.22501  0.93167  1.0000
  C   C2628     1.0  0.50355  0.14658  0.82577  1.0000
  H   H2129     1.0  0.51847  0.11430  0.74183  1.0000
  C   C2629     1.0  0.56693  0.03773  0.73352  1.0000
  H   H2130     1.0  0.52381  0.21111  0.78083  1.0000
  H   H2131     1.0  0.60118  0.09797  0.65909  1.0000
  C   C2630     1.0  0.60257  0.07260  0.67963  1.0000
  C   C2631     1.0  0.58247  0.03800  0.67405  1.0000
  H   H2132     1.0  0.62532  0.02121  0.68348  1.0000
  Fe  Fe179     1.0  0.51191  0.13140  0.70339  1.0000
  H   H2133     1.0  0.59255  0.22178  0.92009  1.0000
  C   C2632     1.0  0.57812  0.18314  0.94532  1.0000
  C   C2633     1.0  0.55492  0.01301  0.76529  1.0000
  C   C2634     1.0  0.50510  0.00689  0.80012  1.0000
  H   H2134     1.0  0.49819  0.04996  0.66408  1.0000
  Fe  Fe180     1.0  0.49685  0.23047  0.92327  1.0000
  C   C2635     1.0  0.60402  0.00619  0.69103  1.0000
  P   P86       1.0  0.50673  0.18208  0.80778  1.0000
  C   C2636     1.0  0.51461  0.00182  0.76911  1.0000
  C   C2637     1.0  0.50463  0.14878  0.91683  1.0000
  C   C2638     1.0  0.52492  0.03201  0.66312  1.0000
  C   C2639     1.0  0.60463  0.21867  0.95590  1.0000
  H   H2135     1.0  0.62014  0.20765  0.93192  1.0000
  C   C2640     1.0  0.61141  0.02171  0.68276  1.0000
  C   C2641     1.0  0.58246  0.18503  0.91282  1.0000
  C   C2642     1.0  0.53064  0.03272  0.71215  1.0000
  C   C2643     1.0  0.95862  0.21055  0.67151  1.0000
  C   C2644     1.0  0.58999  0.09532  0.70505  1.0000
  H   H2136     1.0  0.58462  0.10413  0.71483  1.0000
  C   C2645     1.0  0.52353  0.19650  0.82645  1.0000
  Fe  Fe181     1.0  0.52952  0.09479  0.69317  1.0000
  Fe  Fe182     1.0  0.50546  0.12368  0.66984  1.0000
  C   C2646     1.0  0.60027  0.06504  0.69850  1.0000
  C   C2647     1.0  0.77215  0.02980  0.65176  1.0000
  H   H2137     1.0  0.58172  0.99556  0.75850  1.0000
  P   P87       1.0  0.58483  0.20886  0.96008  1.0000
  H   H2138     1.0  0.52640  0.15232  0.75463  1.0000
  H   H2139     1.0  0.87374  0.23220  0.65688  1.0000
  C   C2648     1.0  0.51220  0.01306  0.78136  1.0000
  H   H2140     1.0  0.95433  0.22857  0.68971  1.0000
  H   H2141     1.0  0.99577  0.22877  0.67099  1.0000
  H   H2142     1.0  0.51710  0.09954  0.77481  1.0000
  C   C2649     1.0  0.51480  0.15932  0.82025  1.0000
  H   H2143     1.0  0.57121  0.04714  0.72090  1.0000
  C   C2650     1.0  0.54677  0.22092  0.97017  1.0000
  H   H2144     1.0  0.50689  0.16091  0.86067  1.0000
  C   C2651     1.0  0.51981  0.19734  0.80949  1.0000
  C   C2652     1.0  0.50803  0.03929  0.65780  1.0000
  C   C2653     1.0  0.52624  0.21021  0.79412  1.0000
  C   C2654     1.0  0.59924  0.09167  0.67358  1.0000
  C   C2655     1.0  0.50479  0.05127  0.75885  1.0000
  H   H2145     1.0  0.52558  0.15370  0.78607  1.0000
  S   S362      1.0  0.50922  0.18849  0.87729  1.0000
  H   H2146     1.0  0.51381  0.07426  0.76135  1.0000
  H   H2147     1.0  0.57442  0.08105  0.65759  1.0000
  P   P88       1.0  0.61028  0.05786  0.66339  1.0000
  C   C2656     1.0  0.51817  0.04457  0.79176  1.0000
  H   H2148     1.0  0.52410  0.15137  0.93068  1.0000
  H   H2149     1.0  0.50542  0.07330  0.69350  1.0000
  P   P89       1.0  0.51944  0.03454  0.77296  1.0000
  C   C2657     1.0  0.50018  0.19521  0.75484  1.0000
  S   S363      1.0  0.51389  0.98902  0.68505  1.0000
  C   C2658     1.0  0.60159  0.17559  0.97904  1.0000
  H   H2150     1.0  0.51122  0.20165  0.97495  1.0000
  C   C2659     1.0  0.95327  0.22751  0.67644  1.0000
  C   C2660     1.0  0.51866  0.16555  0.77749  1.0000
  C   C2661     1.0  0.64555  0.06386  0.65838  1.0000
  C   C2662     1.0  0.51923  0.16470  0.75959  1.0000
  C   C2663     1.0  0.56376  0.22608  0.96344  1.0000
  S   S364      1.0  0.56890  0.13734  0.65287  1.0000
  C   C2664     1.0  0.51584  0.06296  0.81899  1.0000
  H   H2151     1.0  0.50303  0.01512  0.81001  1.0000
  C   C2665     1.0  0.50877  0.12088  0.75235  1.0000
  C   C2666     1.0  0.50979  0.15158  0.93154  1.0000
  C   C2667     1.0  0.50889  0.05901  0.69981  1.0000
  S   S365      1.0  0.51543  0.14639  0.67396  1.0000
  C   C2668     1.0  0.63432  0.22464  0.93776  1.0000
  H   H2152     1.0  0.54761  0.03750  0.79056  1.0000
  C   C2669     1.0  0.50096  0.05370  0.80049  1.0000
  C   C2670     1.0  0.53298  0.05356  0.81069  1.0000
  C   C2671     1.0  0.50993  0.17945  0.74830  1.0000
  Fe  Fe183     1.0  0.53615  0.22606  0.90176  1.0000
  H   H2153     1.0  0.59375  0.23088  0.97963  1.0000
  H   H2154     1.0  0.54534  0.05364  0.81462  1.0000
  H   H2155     1.0  0.57363  0.05018  0.66800  1.0000
  C   C2672     1.0  0.50036  0.02962  0.71192  1.0000
  H   H2156     1.0  0.50999  0.17844  0.73462  1.0000
  H   H2157     1.0  0.77646  0.02666  0.66463  1.0000
  H   H2158     1.0  0.67260  0.06945  0.65271  1.0000
  C   C2673     1.0  0.63430  0.23542  0.94948  1.0000
  C   C2674     1.0  0.53933  0.22135  0.81284  1.0000
  C   C2675     1.0  0.53596  0.22216  0.79582  1.0000
  C   C2676     1.0  0.60507  0.22897  0.96795  1.0000
  C   C2677     1.0  0.63521  0.05216  0.65719  1.0000
  C   C2678     1.0  0.49985  0.06299  0.81392  1.0000
  H   H2159     1.0  0.51734  0.22994  0.97944  1.0000
  S   S366      1.0  0.50905  0.23365  0.89309  1.0000
  C   C2679     1.0  0.49702  0.13775  0.74745  1.0000
  H   H2160     1.0  0.75617  0.05662  0.65486  1.0000
  H   H2161     1.0  0.63732  0.19371  0.98206  1.0000
  C   C2680     1.0  0.66474  0.06024  0.65197  1.0000
  C   C2681     1.0  0.51847  0.19095  0.98425  1.0000
  Fe  Fe184     1.0  0.58498  0.29278  0.09708  1.0000
  S   S367      1.0  0.57361  0.31778  0.07779  1.0000
  Fe  Fe185     1.0  0.60952  0.31210  0.10650  1.0000
  S   S368      1.0  0.60034  0.33868  0.08788  1.0000
  S   S369      1.0  0.62933  0.30614  0.12511  1.0000
  Fe  Fe186     1.0  0.57191  0.33315  0.09903  1.0000
  S   S370      1.0  0.54746  0.35522  0.10776  1.0000
  Fe  Fe187     1.0  0.60277  0.32126  0.06823  1.0000
  S   S371      1.0  0.61401  0.33083  0.03827  1.0000
  S   S372      1.0  0.58081  0.30771  0.11932  1.0000
  S   S373      1.0  0.61454  0.29494  0.08579  1.0000
  Fe  Fe188     1.0  0.68711  0.37770  0.12059  1.0000
  S   S374      1.0  0.66544  0.40087  0.11047  1.0000
  S   S375      1.0  0.69060  0.34783  0.12131  1.0000
  Fe  Fe189     1.0  0.70448  0.40280  0.13205  1.0000
  S   S376      1.0  0.68394  0.42818  0.12313  1.0000
  S   S377      1.0  0.72767  0.39941  0.14592  1.0000
  Fe  Fe190     1.0  0.66309  0.41057  0.13586  1.0000
  S   S378      1.0  0.63490  0.41651  0.15402  1.0000
  Fe  Fe191     1.0  0.68803  0.41632  0.09853  1.0000
  S   S379      1.0  0.69352  0.43194  0.06938  1.0000
  S   S380      1.0  0.68320  0.38611  0.14695  1.0000
  S   S381      1.0  0.71021  0.39229  0.10650  1.0000
  S   S382      1.0  0.64272  0.42193  0.02324  1.0000
  H   H2162     1.0  0.66941  0.39068  0.06090  1.0000
  H   H2163     1.0  0.53973  0.43765  0.16233  1.0000
  C   C2682     1.0  0.54784  0.24842  0.07720  1.0000
  C   C2683     1.0  0.84948  0.46937  0.14572  1.0000
  S   S383      1.0  0.77653  0.45385  0.14278  1.0000
  H   H2164     1.0  0.58385  0.37523  0.01947  1.0000
  C   C2684     1.0  0.64169  0.46095  0.09404  1.0000
  H   H2165     1.0  0.53653  0.39278  0.02868  1.0000
  P   P90       1.0  0.66894  0.34200  0.02185  1.0000
  C   C2685     1.0  0.67236  0.46721  0.01150  1.0000
  C   C2686     1.0  0.85473  0.46338  0.30055  1.0000
  C   C2687     1.0  0.53272  0.24973  0.16131  1.0000
  C   C2688     1.0  0.76826  0.33966  0.04703  1.0000
  H   H2166     1.0  0.60237  0.44987  0.14091  1.0000
  H   H2167     1.0  0.56060  0.41659  0.21752  1.0000
  C   C2689     1.0  0.75803  0.36975  0.07862  1.0000
  C   C2690     1.0  0.67961  0.42867  0.05660  1.0000
  C   C2691     1.0  0.68695  0.42671  0.03843  1.0000
  C   C2692     1.0  0.67577  0.42429  0.02816  1.0000
  C   C2693     1.0  0.65713  0.42437  0.03589  1.0000
  C   C2694     1.0  0.64982  0.42626  0.05405  1.0000
  C   C2695     1.0  0.66114  0.42810  0.06446  1.0000
  H   H2168     1.0  0.70127  0.42699  0.03232  1.0000
  H   H2169     1.0  0.68139  0.42278  0.01416  1.0000
  H   H2170     1.0  0.63540  0.42636  0.06003  1.0000
  H   H2171     1.0  0.65550  0.42947  0.07844  1.0000
  C   C2696     1.0  0.62810  0.43575  0.16376  1.0000
  C   C2697     1.0  0.61423  0.43566  0.17976  1.0000
  C   C2698     1.0  0.60711  0.45129  0.18713  1.0000
  C   C2699     1.0  0.78796  0.42993  0.01586  1.0000
  C   C2700     1.0  0.87690  0.41533  0.19610  1.0000
  C   C2701     1.0  0.66241  0.29999  0.00382  1.0000
  H   H2172     1.0  0.60888  0.42350  0.18641  1.0000
  H   H2173     1.0  0.59653  0.45107  0.19957  1.0000
  H   H2174     1.0  0.92771  0.47318  0.17633  1.0000
  C   C2702     1.0  0.52079  0.34690  0.07424  1.0000
  C   C2703     1.0  0.73986  0.41589  0.14477  1.0000
  C   C2704     1.0  0.75425  0.41016  0.15408  1.0000
  C   C2705     1.0  0.76522  0.42205  0.15313  1.0000
  C   C2706     1.0  0.76178  0.44002  0.14317  1.0000
  C   C2707     1.0  0.74713  0.44610  0.13404  1.0000
  C   C2708     1.0  0.73611  0.43398  0.13486  1.0000
  H   H2175     1.0  0.75710  0.39632  0.16193  1.0000
  H   H2176     1.0  0.77644  0.41729  0.16026  1.0000
  H   H2177     1.0  0.74436  0.46001  0.12637  1.0000
  H   H2178     1.0  0.72478  0.43859  0.12793  1.0000
  C   C2709     1.0  0.64596  0.31874  0.12273  1.0000
  C   C2710     1.0  0.66100  0.30978  0.13087  1.0000
  C   C2711     1.0  0.67448  0.31895  0.13008  1.0000
  C   C2712     1.0  0.67285  0.33742  0.12172  1.0000
  C   C2713     1.0  0.65777  0.34661  0.11356  1.0000
  C   C2714     1.0  0.64443  0.33718  0.11378  1.0000
  H   H2179     1.0  0.66228  0.29558  0.13780  1.0000
  H   H2180     1.0  0.68612  0.31171  0.13631  1.0000
  H   H2181     1.0  0.65639  0.36093  0.10720  1.0000
  H   H2182     1.0  0.63276  0.34427  0.10758  1.0000
  C   C2715     1.0  0.52967  0.35563  0.09756  1.0000
  H   H2183     1.0  0.54808  0.34983  0.07248  1.0000
  C   C2716     1.0  0.61481  0.31565  0.02494  1.0000
  C   C2717     1.0  0.61245  0.29787  0.03313  1.0000
  C   C2718     1.0  0.61343  0.28585  0.02217  1.0000
  C   C2719     1.0  0.64959  0.47922  0.04284  1.0000
  S   S384      1.0  0.49846  0.24071  0.08001  1.0000
  H   H2184     1.0  0.52772  0.32201  0.98993  1.0000
  H   H2185     1.0  0.61003  0.29333  0.04787  1.0000
  H   H2186     1.0  0.61170  0.27209  0.02847  1.0000
  C   C2720     1.0  0.62526  0.38517  0.03102  1.0000
  H   H2187     1.0  0.65581  0.28848  0.00964  1.0000
  H   H2188     1.0  0.57715  0.28483  0.06565  1.0000
  H   H2189     1.0  0.61974  0.33519  0.99945  1.0000
  C   C2721     1.0  0.61724  0.38847  0.01607  1.0000
  H   H2190     1.0  0.99176  0.43737  0.30988  1.0000
  H   H2191     1.0  0.83693  0.46406  0.12669  1.0000
  C   C2722     1.0  0.84917  0.47416  0.28459  1.0000
  C   C2723     1.0  0.74178  0.34017  0.03581  1.0000
  C   C2724     1.0  0.62419  0.37708  0.00354  1.0000
  C   C2725     1.0  0.55279  0.30719  0.99874  1.0000
  C   C2726     1.0  0.50691  0.27220  0.14080  1.0000
  H   H2192     1.0  0.71251  0.44750  0.00463  1.0000
  C   C2727     1.0  0.66883  0.30522  0.07944  1.0000
  C   C2728     1.0  0.52494  0.37520  0.02013  1.0000
  H   H2193     1.0  0.73430  0.43048  0.04714  1.0000
  H   H2194     1.0  0.70688  0.33193  0.00005  1.0000
  H   H2195     1.0  0.55447  0.24100  0.10380  1.0000
  C   C2729     1.0  0.51997  0.29637  0.06636  1.0000
  C   C2730     1.0  0.52597  0.30274  0.07831  1.0000
  C   C2731     1.0  0.51700  0.30072  0.09679  1.0000
  H   H2196     1.0  0.78772  0.43052  0.00181  1.0000
  H   H2197     1.0  0.93413  0.47673  0.30978  1.0000
  C   C2732     1.0  0.50007  0.46130  0.18529  1.0000
  C   C2733     1.0  0.74956  0.34664  0.04645  1.0000
  H   H2198     1.0  0.52673  0.29821  0.05196  1.0000
  H   H2199     1.0  0.53749  0.30942  0.07321  1.0000
  H   H2200     1.0  0.52170  0.30615  0.10563  1.0000
  H   H2201     1.0  0.83447  0.46669  0.08607  1.0000
  C   C2734     1.0  0.61824  0.30965  0.99497  1.0000
  H   H2202     1.0  0.60577  0.39995  0.01411  1.0000
  H   H2203     1.0  0.77466  0.34465  0.05487  1.0000
  H   H2204     1.0  0.77917  0.30900  0.01972  1.0000
  C   C2735     1.0  0.71425  0.46276  0.18024  1.0000
  C   C2736     1.0  0.55997  0.43087  0.21650  1.0000
  C   C2737     1.0  0.68018  0.47015  0.02436  1.0000
  C   C2738     1.0  0.70540  0.34462  0.00396  1.0000
  H   H2205     1.0  0.86158  0.42255  0.22184  1.0000
  H   H2206     1.0  0.64418  0.35394  0.99600  1.0000
  C   C2739     1.0  0.59665  0.33879  0.15554  1.0000
  C   C2740     1.0  0.73579  0.35125  0.09558  1.0000
  C   C2741     1.0  0.71197  0.36360  0.06365  1.0000
  C   C2742     1.0  0.70679  0.34673  0.07076  1.0000
  C   C2743     1.0  0.68830  0.34582  0.07435  1.0000
  C   C2744     1.0  0.67487  0.36159  0.07047  1.0000
  C   C2745     1.0  0.67985  0.37843  0.06363  1.0000
  C   C2746     1.0  0.69830  0.37947  0.06034  1.0000
  H   H2207     1.0  0.74885  0.37727  0.01828  1.0000
  H   H2208     1.0  0.72501  0.34460  0.09633  1.0000
  H   H2209     1.0  0.73410  0.34273  0.12468  1.0000
  H   H2210     1.0  0.71698  0.33429  0.07378  1.0000
  H   H2211     1.0  0.68425  0.33297  0.08073  1.0000
  H   H2212     1.0  0.66053  0.36079  0.07332  1.0000
  C   C2747     1.0  0.55628  0.24996  0.09041  1.0000
  H   H2213     1.0  0.70180  0.39266  0.05516  1.0000
  C   C2748     1.0  0.53416  0.35089  0.08056  1.0000
  H   H2214     1.0  0.50063  0.32707  0.04494  1.0000
  H   H2215     1.0  0.56569  0.31368  0.15908  1.0000
  C   C2749     1.0  0.57444  0.38917  0.99445  1.0000
  C   C2750     1.0  0.49762  0.35508  0.10054  1.0000
  C   C2751     1.0  0.53679  0.32102  0.99873  1.0000
  C   C2752     1.0  0.88334  0.42184  0.17739  1.0000
  H   H2216     1.0  0.65625  0.30800  0.02949  1.0000
  C   C2753     1.0  0.97768  0.46449  0.29906  1.0000
  H   H2217     1.0  0.74905  0.42737  0.19250  1.0000
  H   H2218     1.0  0.69766  0.29504  0.06884  1.0000
  C   C2754     1.0  0.51022  0.36654  0.02380  1.0000
  H   H2219     1.0  0.88001  0.40083  0.20195  1.0000
  H   H2220     1.0  0.89147  0.41238  0.16872  1.0000
  C   C2755     1.0  0.50677  0.41719  0.99382  1.0000
  H   H2221     1.0  0.66361  0.47367  0.15522  1.0000
  C   C2756     1.0  0.55892  0.46763  0.21361  1.0000
  H   H2222     1.0  0.50755  0.36306  0.11997  1.0000
  P   P91       1.0  0.73603  0.36466  0.05818  1.0000
  H   H2223     1.0  0.52456  0.34219  0.06160  1.0000
  H   H2224     1.0  0.65155  0.36592  0.18439  1.0000
  H   H2225     1.0  0.72748  0.34557  0.03488  1.0000
  H   H2226     1.0  0.59046  0.41547  0.12818  1.0000
  C   C2757     1.0  0.56103  0.34296  0.15078  1.0000
  C   C2758     1.0  0.77887  0.32609  0.03746  1.0000
  C   C2759     1.0  0.62714  0.46749  0.16214  1.0000
  H   H2227     1.0  0.68967  0.40770  0.16857  1.0000
  H   H2228     1.0  0.58391  0.34468  0.01635  1.0000
  C   C2760     1.0  0.87935  0.44057  0.16987  1.0000
  H   H2229     1.0  0.64589  0.45168  0.14302  1.0000
  Fe  Fe192     1.0  0.77480  0.48315  0.12772  1.0000
  H   H2230     1.0  0.53672  0.37265  0.00902  1.0000
  H   H2231     1.0  0.69503  0.46788  0.02225  1.0000
  H   H2232     1.0  0.71898  0.43182  0.09161  1.0000
  C   C2761     1.0  0.62331  0.37841  0.18251  1.0000
  H   H2233     1.0  0.56978  0.42588  0.24122  1.0000
  H   H2234     1.0  0.68107  0.46274  0.99928  1.0000
  C   C2762     1.0  0.81206  0.37720  0.09609  1.0000
  C   C2763     1.0  0.80148  0.37328  0.11390  1.0000
  C   C2764     1.0  0.78589  0.38613  0.11996  1.0000
  C   C2765     1.0  0.78083  0.40287  0.10823  1.0000
  C   C2766     1.0  0.79111  0.40674  0.09020  1.0000
  C   C2767     1.0  0.80700  0.39396  0.08432  1.0000
  P   P92       1.0  0.78588  0.42908  0.07585  1.0000
  C   C2768     1.0  0.76204  0.44001  0.08271  1.0000
  C   C2769     1.0  0.80118  0.44137  0.07864  1.0000
  C   C2770     1.0  0.79870  0.44573  0.09565  1.0000
  C   C2771     1.0  0.81077  0.45468  0.09835  1.0000
  C   C2772     1.0  0.82546  0.45924  0.08413  1.0000
  C   C2773     1.0  0.82827  0.45458  0.06728  1.0000
  C   C2774     1.0  0.81625  0.44558  0.06453  1.0000
  C   C2775     1.0  0.75705  0.45850  0.08356  1.0000
  C   C2776     1.0  0.73845  0.46718  0.08776  1.0000
  C   C2777     1.0  0.93144  0.48066  0.29615  1.0000
  C   C2778     1.0  0.57983  0.35651  0.00600  1.0000
  C   C2779     1.0  0.74820  0.43046  0.08548  1.0000
  C   C2780     1.0  0.78799  0.42880  0.05226  1.0000
  C   C2781     1.0  0.78748  0.41304  0.04717  1.0000
  C   C2782     1.0  0.78763  0.41359  0.02896  1.0000
  C   C2783     1.0  0.63788  0.44601  0.10806  1.0000
  C   C2784     1.0  0.63931  0.36259  0.00582  1.0000
  C   C2785     1.0  0.78793  0.44519  0.03910  1.0000
  H   H2235     1.0  0.82436  0.36739  0.09151  1.0000
  H   H2236     1.0  0.80545  0.36038  0.12309  1.0000
  H   H2237     1.0  0.77774  0.38325  0.13382  1.0000
  H   H2238     1.0  0.76905  0.41287  0.11338  1.0000
  H   H2239     1.0  0.81565  0.39711  0.07078  1.0000
  H   H2240     1.0  0.78736  0.44230  0.10683  1.0000
  C   C2786     1.0  0.52482  0.38669  0.03117  1.0000
  C   C2787     1.0  0.91332  0.47980  0.27557  1.0000
  H   H2241     1.0  0.83955  0.45830  0.05620  1.0000
  H   H2242     1.0  0.81881  0.44205  0.05139  1.0000
  H   H2243     1.0  0.76746  0.46634  0.08077  1.0000
  H   H2244     1.0  0.54753  0.34450  0.14821  1.0000
  H   H2245     1.0  0.80857  0.45823  0.11145  1.0000
  P   P93       1.0  0.54645  0.47937  0.18069  1.0000
  H   H2246     1.0  0.75173  0.41630  0.08442  1.0000
  H   H2247     1.0  0.78649  0.40050  0.05727  1.0000
  H   H2248     1.0  0.78700  0.40151  0.02506  1.0000
  Fe  Fe193     1.0  0.65571  0.42165  0.99348  1.0000
  C   C2788     1.0  0.65259  0.32884  0.05833  1.0000
  H   H2249     1.0  0.78751  0.45771  0.04288  1.0000
  S   S385      1.0  0.57570  0.26623  0.10362  1.0000
  H   H2250     1.0  0.59644  0.39003  0.17678  1.0000
  H   H2251     1.0  0.64005  0.31788  0.08608  1.0000
  C   C2789     1.0  0.74108  0.35001  0.11178  1.0000
  C   C2790     1.0  0.50275  0.34814  0.08462  1.0000
  C   C2791     1.0  0.57130  0.32559  0.15680  1.0000
  H   H2252     1.0  0.72912  0.40075  0.06634  1.0000
  C   C2792     1.0  0.68140  0.44806  0.18147  1.0000
  H   H2253     1.0  0.58210  0.26796  0.99811  1.0000
  C   C2793     1.0  0.70281  0.37700  0.01429  1.0000
  H   H2254     1.0  0.79326  0.32066  0.03805  1.0000
  H   H2255     1.0  0.61989  0.39417  0.04056  1.0000
  H   H2256     1.0  0.77386  0.37522  0.09447  1.0000
  C   C2794     1.0  0.74153  0.44129  0.18884  1.0000
  C   C2795     1.0  0.56103  0.27275  0.05566  1.0000
  C   C2796     1.0  0.73916  0.38659  0.04385  1.0000
  C   C2797     1.0  0.64073  0.36745  0.17736  1.0000
  H   H2257     1.0  0.64690  0.36885  0.04459  1.0000
  C   C2798     1.0  0.60957  0.38100  0.17291  1.0000
  H   H2258     1.0  0.59750  0.30995  0.16275  1.0000
  C   C2799     1.0  0.74465  0.42061  0.02210  1.0000
  C   C2800     1.0  0.74843  0.40569  0.01396  1.0000
  H   H2259     1.0  0.63965  0.33753  0.05554  1.0000
  H   H2260     1.0  0.61020  0.46335  0.06974  1.0000
  C   C2801     1.0  0.61784  0.32147  0.00584  1.0000
  P   P94       1.0  0.51136  0.35085  0.01007  1.0000
  C   C2802     1.0  0.56449  0.30566  0.01017  1.0000
  C   C2803     1.0  0.55984  0.31750  0.02215  1.0000
  C   C2804     1.0  0.54378  0.33128  0.02224  1.0000
  C   C2805     1.0  0.53245  0.33353  0.01004  1.0000
  C   C2806     1.0  0.68793  0.36833  0.02051  1.0000
  H   H2261     1.0  0.74683  0.43375  0.01378  1.0000
  C   C2807     1.0  0.53706  0.25228  0.14222  1.0000
  C   C2808     1.0  0.50982  0.38989  0.04572  1.0000
  H   H2262     1.0  0.56301  0.28141  0.04222  1.0000
  C   C2809     1.0  0.73781  0.41871  0.04097  1.0000
  C   C2810     1.0  0.62408  0.43748  0.10841  1.0000
  C   C2811     1.0  0.87728  0.46301  0.99134  1.0000
  C   C2812     1.0  0.73491  0.40183  0.05179  1.0000
  P   P95       1.0  0.86393  0.47710  0.17125  1.0000
  H   H2263     1.0  0.57697  0.29504  0.01007  1.0000
  H   H2264     1.0  0.56867  0.31590  0.03144  1.0000
  H   H2265     1.0  0.54035  0.34001  0.03188  1.0000
  C   C2813     1.0  0.75241  0.32659  0.02627  1.0000
  H   H2266     1.0  0.85223  0.43156  0.99657  1.0000
  C   C2814     1.0  0.74386  0.36154  0.07895  1.0000
  H   H2267     1.0  0.54283  0.24128  0.16913  1.0000
  C   C2815     1.0  0.74580  0.38867  0.02480  1.0000
  C   C2816     1.0  0.72471  0.45753  0.09077  1.0000
  H   H2268     1.0  0.74625  0.32158  0.01821  1.0000
  P   P96       1.0  0.69127  0.46785  0.17608  1.0000
  C   C2817     1.0  0.68513  0.30454  0.06589  1.0000
  C   C2818     1.0  0.56895  0.27472  0.06901  1.0000
  C   C2819     1.0  0.69050  0.43358  0.17257  1.0000
  C   C2820     1.0  0.57815  0.46276  0.15826  1.0000
  H   H2269     1.0  0.70382  0.43374  0.16327  1.0000
  C   C2821     1.0  0.56458  0.45445  0.22842  1.0000
  H   H2270     1.0  0.73482  0.48140  0.08857  1.0000
  C   C2822     1.0  0.77094  0.31953  0.02711  1.0000
  C   C2823     1.0  0.97940  0.48228  0.28971  1.0000
  C   C2824     1.0  0.86245  0.44628  0.19982  1.0000
  C   C2825     1.0  0.65530  0.43343  0.19494  1.0000
  H   H2271     1.0  0.62071  0.38552  0.19345  1.0000
  C   C2826     1.0  0.52630  0.47675  0.15701  1.0000
  H   H2272     1.0  0.56892  0.45849  0.23857  1.0000
  H   H2273     1.0  0.65302  0.46679  0.09359  1.0000
  C   C2827     1.0  0.59440  0.47859  0.12962  1.0000
  C   C2828     1.0  0.64805  0.35960  0.02034  1.0000
  C   C2829     1.0  0.57854  0.25502  0.00524  1.0000
  H   H2274     1.0  0.91011  0.46535  0.30377  1.0000
  H   H2275     1.0  0.55610  0.29765  0.98986  1.0000
  H   H2276     1.0  0.55043  0.43970  0.19144  1.0000
  C   C2830     1.0  0.72377  0.44474  0.18572  1.0000
  H   H2277     1.0  0.71775  0.43326  0.18753  1.0000
  H   H2278     1.0  0.64597  0.44067  0.11841  1.0000
  H   H2279     1.0  0.51518  0.46366  0.20364  1.0000
  H   H2280     1.0  0.55063  0.24620  0.13517  1.0000
  C   C2831     1.0  0.78808  0.44570  0.02098  1.0000
  C   C2832     1.0  0.75469  0.35879  0.11144  1.0000
  H   H2281     1.0  0.69787  0.31546  0.03821  1.0000
  C   C2833     1.0  0.65266  0.31743  0.07564  1.0000
  H   H2282     1.0  0.65813  0.40776  0.18789  1.0000
  C   C2834     1.0  0.66894  0.32851  0.04476  1.0000
  C   C2835     1.0  0.66356  0.44802  0.19248  1.0000
  C   C2836     1.0  0.64068  0.37091  0.03312  1.0000
  C   C2837     1.0  0.63120  0.46784  0.08056  1.0000
  C   C2838     1.0  0.68522  0.31622  0.04863  1.0000
  C   C2839     1.0  0.56514  0.43608  0.22985  1.0000
  H   H2283     1.0  0.66864  0.29637  0.09293  1.0000
  C   C2840     1.0  0.63150  0.23675  0.06306  1.0000
  C   C2841     1.0  0.54997  0.26006  0.05986  1.0000
  C   C2842     1.0  0.76332  0.36844  0.09481  1.0000
  C   C2843     1.0  0.51118  0.35882  0.10707  1.0000
  C   C2844     1.0  0.56634  0.26353  0.08653  1.0000
  C   C2845     1.0  0.68234  0.41890  0.17530  1.0000
  C   C2846     1.0  0.58916  0.32349  0.15898  1.0000
  H   H2284     1.0  0.64139  0.43369  0.20308  1.0000
  C   C2847     1.0  0.66469  0.41886  0.18636  1.0000
  C   C2848     1.0  0.85793  0.44362  0.99069  1.0000
  C   C2849     1.0  0.56527  0.42843  0.14410  1.0000
  C   C2850     1.0  0.55047  0.42603  0.15903  1.0000
  C   C2851     1.0  0.54954  0.40859  0.16974  1.0000
  C   C2852     1.0  0.56330  0.39349  0.16539  1.0000
  C   C2853     1.0  0.57792  0.39571  0.15008  1.0000
  C   C2854     1.0  0.57902  0.41334  0.13969  1.0000
  P   P97       1.0  0.59599  0.37626  0.14487  1.0000
  C   C2855     1.0  0.58630  0.35637  0.14983  1.0000
  C   C2856     1.0  0.60623  0.38107  0.12058  1.0000
  C   C2857     1.0  0.62153  0.38925  0.11410  1.0000
  C   C2858     1.0  0.62894  0.39376  0.09527  1.0000
  C   C2859     1.0  0.62123  0.39014  0.08277  1.0000
  C   C2860     1.0  0.60597  0.38208  0.08905  1.0000
  C   C2861     1.0  0.59846  0.37756  0.10787  1.0000
  C   C2862     1.0  0.56850  0.35828  0.14723  1.0000
  C   C2863     1.0  0.61314  0.37242  0.15817  1.0000
  C   C2864     1.0  0.64432  0.35877  0.16283  1.0000
  C   C2865     1.0  0.63054  0.36118  0.15341  1.0000
  H   H2285     1.0  0.56613  0.44197  0.13591  1.0000
  H   H2286     1.0  0.60166  0.24591  0.01805  1.0000
  H   H2287     1.0  0.53813  0.40672  0.18138  1.0000
  H   H2288     1.0  0.56252  0.38007  0.17394  1.0000
  H   H2289     1.0  0.62771  0.39220  0.12359  1.0000
  H   H2290     1.0  0.64072  0.40006  0.09024  1.0000
  H   H2291     1.0  0.62711  0.39366  0.06822  1.0000
  H   H2292     1.0  0.59993  0.37930  0.07933  1.0000
  H   H2293     1.0  0.58660  0.37136  0.11232  1.0000
  H   H2294     1.0  0.56052  0.37154  0.14196  1.0000
  H   H2295     1.0  0.65789  0.35040  0.15863  1.0000
  H   H2296     1.0  0.63344  0.35437  0.14230  1.0000
  H   H2297     1.0  0.61065  0.33663  0.15696  1.0000
  H   H2298     1.0  0.76477  0.37747  0.06593  1.0000
  H   H2299     1.0  0.75831  0.35835  0.12411  1.0000
  C   C2866     1.0  0.49878  0.46434  0.16706  1.0000
  H   H2300     1.0  0.68640  0.46593  0.21488  1.0000
  C   C2867     1.0  0.65325  0.46948  0.01467  1.0000
  H   H2301     1.0  0.90253  0.47500  0.27307  1.0000
  C   C2868     1.0  0.67055  0.32652  0.00757  1.0000
  H   H2302     1.0  0.58898  0.24210  0.05530  1.0000
  C   C2869     1.0  0.91768  0.47430  0.29284  1.0000
  C   C2870     1.0  0.66888  0.47558  0.04023  1.0000
  H   H2303     1.0  0.88688  0.46543  0.99776  1.0000
  C   C2871     1.0  0.61414  0.44374  0.09457  1.0000
  H   H2304     1.0  0.67553  0.37465  0.02902  1.0000
  H   H2305     1.0  0.73237  0.34814  0.98801  1.0000
  C   C2872     1.0  0.71990  0.44669  0.99083  1.0000
  C   C2873     1.0  0.56286  0.25100  0.00308  1.0000
  C   C2874     1.0  0.99330  0.45090  0.30229  1.0000
  C   C2875     1.0  0.74987  0.45575  0.18658  1.0000
  Fe  Fe194     1.0  0.52019  0.23941  0.05419  1.0000
  H   H2306     1.0  0.64736  0.46629  0.00512  1.0000
  C   C2876     1.0  0.67522  0.47881  0.14594  1.0000
  H   H2307     1.0  0.84091  0.46946  0.27840  1.0000
  H   H2308     1.0  0.85448  0.45549  0.20880  1.0000
  H   H2309     1.0  0.85081  0.45038  0.30648  1.0000
  H   H2310     1.0  0.51217  0.25663  0.18498  1.0000
  H   H2311     1.0  0.51476  0.30630  0.13746  1.0000
  H   H2312     1.0  0.57440  0.40254  0.99604  1.0000
  C   C2877     1.0  0.55364  0.46255  0.20011  1.0000
  H   H2313     1.0  0.50870  0.33448  0.14854  1.0000
  C   C2878     1.0  0.72961  0.43923  0.08948  1.0000
  C   C2879     1.0  0.86650  0.42755  0.20731  1.0000
  H   H2314     1.0  0.50164  0.28142  0.06382  1.0000
  C   C2880     1.0  0.50650  0.43057  0.00276  1.0000
  H   H2315     1.0  0.87443  0.43770  0.01068  1.0000
  C   C2881     1.0  0.86538  0.46919  0.30880  1.0000
  C   C2882     1.0  0.55421  0.44403  0.20173  1.0000
  C   C2883     1.0  0.61319  0.46738  0.17810  1.0000
  H   H2316     1.0  0.62146  0.42577  0.11925  1.0000
  C   C2884     1.0  0.72252  0.47722  0.17858  1.0000
  C   C2885     1.0  0.59247  0.46251  0.14264  1.0000
  H   H2317     1.0  0.78802  0.45849  0.01102  1.0000
  H   H2318     1.0  0.63895  0.24336  0.06833  1.0000
  H   H2319     1.0  0.96431  0.46108  0.30428  1.0000
  H   H2320     1.0  0.97145  0.40371  0.31390  1.0000
  H   H2321     1.0  0.55405  0.26105  0.99471  1.0000
  C   C2886     1.0  0.51448  0.46593  0.18942  1.0000
  H   H2322     1.0  0.71026  0.46414  0.09412  1.0000
  C   C2887     1.0  0.68885  0.35234  0.01496  1.0000
  C   C2888     1.0  0.86876  0.45292  0.18101  1.0000
  C   C2889     1.0  0.61626  0.29179  0.00308  1.0000
  H   H2323     1.0  0.60612  0.25674  0.06763  1.0000
  H   H2324     1.0  0.65568  0.45944  0.19871  1.0000
  C   C2890     1.0  0.61775  0.45882  0.08062  1.0000
  C   C2891     1.0  0.66278  0.31108  0.01507  1.0000
  C   C2892     1.0  0.63497  0.45154  0.15520  1.0000
  H   H2325     1.0  0.60391  0.43672  0.09443  1.0000
  C   C2893     1.0  0.52416  0.26328  0.13201  1.0000
  H   H2326     1.0  0.51079  0.47453  0.13881  1.0000
  H   H2327     1.0  0.75319  0.40748  0.99920  1.0000
  S   S386      1.0  0.53808  0.25984  0.04365  1.0000
  H   H2328     1.0  0.53625  0.48279  0.14586  1.0000
  H   H2329     1.0  0.53945  0.23846  0.08053  1.0000
  H   H2330     1.0  0.52800  0.26521  0.11723  1.0000
  C   C2894     1.0  0.58948  0.24248  0.01676  1.0000
  C   C2895     1.0  0.51186  0.47211  0.15294  1.0000
  H   H2331     1.0  0.88458  0.44547  0.15538  1.0000
  C   C2896     1.0  0.51546  0.25837  0.17021  1.0000
  C   C2897     1.0  0.87034  0.44715  0.99868  1.0000
  H   H2332     1.0  0.51505  0.29271  0.00439  1.0000
  H   H2333     1.0  0.57724  0.45014  0.16822  1.0000
  C   C2898     1.0  0.50213  0.29012  0.00391  1.0000
  C   C2899     1.0  0.64184  0.47554  0.03025  1.0000
  H   H2334     1.0  0.62706  0.47732  0.03239  1.0000
  S   S387      1.0  0.73830  0.47028  0.99409  1.0000
  H   H2335     1.0  0.84547  0.45807  0.15642  1.0000
  C   C2900     1.0  0.57972  0.37383  0.00776  1.0000
  C   C2901     1.0  0.56563  0.47918  0.16105  1.0000
  C   C2902     1.0  0.61297  0.24432  0.06264  1.0000
  C   C2903     1.0  0.69081  0.47793  0.15232  1.0000
  C   C2904     1.0  0.60330  0.23602  0.05566  1.0000
  H   H2336     1.0  0.90234  0.45998  0.17599  1.0000
  H   H2337     1.0  0.61810  0.37950  0.99187  1.0000
  H   H2338     1.0  0.72966  0.37733  0.99654  1.0000
  H   H2339     1.0  0.76390  0.45303  0.18829  1.0000
  C   C2905     1.0  0.52782  0.47351  0.17529  1.0000
  C   C2906     1.0  0.67770  0.47861  0.20936  1.0000
  C   C2907     1.0  0.50569  0.28700  0.07305  1.0000
  C   C2908     1.0  0.84452  0.47277  0.12890  1.0000
  H   H2340     1.0  0.70165  0.38972  0.01809  1.0000
  C   C2909     1.0  0.90042  0.47464  0.17312  1.0000
  H   H2341     1.0  0.60584  0.47845  0.11782  1.0000
  H   H2342     1.0  0.51004  0.39815  0.05479  1.0000
  S   S388      1.0  0.61731  0.27682  0.98944  1.0000
  H   H2343     1.0  0.67524  0.47699  0.05040  1.0000
  C   C2910     1.0  0.74032  0.47371  0.18157  1.0000
  C   C2911     1.0  0.50266  0.26970  0.15999  1.0000
  H   H2344     1.0  0.70881  0.48047  0.04888  1.0000
  H   H2345     1.0  0.63189  0.47984  0.15518  1.0000
  C   C2912     1.0  0.71864  0.36996  0.00224  1.0000
  S   S389      1.0  0.81845  0.48091  0.00050  1.0000
  C   C2913     1.0  0.67736  0.33096  0.98853  1.0000
  H   H2346     1.0  0.55912  0.48164  0.21269  1.0000
  H   H2347     1.0  0.52223  0.44749  0.00677  1.0000
  C   C2914     1.0  0.57465  0.35445  0.99096  1.0000
  C   C2915     1.0  0.72006  0.35362  0.99732  1.0000
  C   C2916     1.0  0.52235  0.43730  0.99963  1.0000
  H   H2348     1.0  0.57490  0.34095  0.98958  1.0000
  C   C2917     1.0  0.50217  0.29186  0.10355  1.0000
  C   C2918     1.0  0.50086  0.31460  0.13944  1.0000
  C   C2919     1.0  0.67733  0.48333  0.19066  1.0000
  H   H2349     1.0  0.71822  0.48374  0.14427  1.0000
  H   H2350     1.0  0.74689  0.48490  0.17964  1.0000
  C   C2920     1.0  0.85895  0.48082  0.14888  1.0000
  C   C2921     1.0  0.70583  0.48447  0.13997  1.0000
  C   C2922     1.0  0.50966  0.36505  0.98782  1.0000
  C   C2923     1.0  0.53845  0.43070  0.98751  1.0000
  H   H2351     1.0  0.70513  0.42798  0.98866  1.0000
  C   C2924     1.0  0.49691  0.28457  0.09159  1.0000
  C   C2925     1.0  0.49745  0.33052  0.14592  1.0000
  C   C2926     1.0  0.91491  0.48207  0.17334  1.0000
  C   C2927     1.0  0.66947  0.30437  0.98495  1.0000
  H   H2352     1.0  0.55074  0.43567  0.98571  1.0000
  C   C2928     1.0  0.99556  0.36099  0.40353  1.0000
  H   H2353     1.0  0.95722  0.32902  0.54700  1.0000
  S   S390      1.0  0.87627  0.25629  0.51023  1.0000
  C   C2929     1.0  0.56067  0.24876  0.59508  1.0000
  Fe  Fe195     1.0  0.87220  0.36229  0.51022  1.0000
  S   S391      1.0  0.86038  0.39176  0.51134  1.0000
  S   S392      1.0  0.90195  0.34804  0.50432  1.0000
  Fe  Fe196     1.0  0.83494  0.35272  0.51889  1.0000
  S   S393      1.0  0.81960  0.38134  0.52072  1.0000
  S   S394      1.0  0.82041  0.32952  0.52598  1.0000
  Fe  Fe197     1.0  0.84080  0.38974  0.49579  1.0000
  S   S395      1.0  0.83216  0.41257  0.47302  1.0000
  Fe  Fe198     1.0  0.84031  0.38089  0.53623  1.0000
  S   S396      1.0  0.83061  0.39362  0.56091  1.0000
  S   S397      1.0  0.85438  0.36113  0.49239  1.0000
  S   S398      1.0  0.85390  0.35160  0.53650  1.0000
  S   S399      1.0  0.89726  0.31070  0.61589  1.0000
  H   H2354     1.0  0.88667  0.35572  0.54747  1.0000
  Fe  Fe199     1.0  0.92321  0.31512  0.62039  1.0000
  S   S400      1.0  0.95013  0.31770  0.60037  1.0000
  Fe  Fe200     1.0  0.88268  0.32993  0.63486  1.0000
  C   C2930     1.0  0.86082  0.44113  0.53844  1.0000
  C   C2931     1.0  0.96566  0.32054  0.61168  1.0000
  H   H2355     1.0  0.96136  0.43207  0.35687  1.0000
  H   H2356     1.0  0.88624  0.44834  0.52219  1.0000
  C   C2932     1.0  0.91741  0.35848  0.50814  1.0000
  C   C2933     1.0  0.93618  0.35042  0.50427  1.0000
  S   S401      1.0  0.91089  0.44383  0.35552  1.0000
  C   C2934     1.0  0.94291  0.37279  0.51625  1.0000
  C   C2935     1.0  0.92417  0.38130  0.51959  1.0000
  C   C2936     1.0  0.91142  0.37429  0.51523  1.0000
  H   H2357     1.0  0.94068  0.33847  0.49841  1.0000
  C   C2937     1.0  0.96463  0.41884  0.33513  1.0000
  H   H2358     1.0  0.91948  0.39324  0.52554  1.0000
  H   H2359     1.0  0.89695  0.38074  0.51798  1.0000
  C   C2938     1.0  0.83759  0.38073  0.58120  1.0000
  C   C2939     1.0  0.85051  0.36407  0.58174  1.0000
  C   C2940     1.0  0.85682  0.35493  0.59791  1.0000
  C   C2941     1.0  0.84957  0.36212  0.61372  1.0000
  C   C2942     1.0  0.83623  0.37844  0.61330  1.0000
  C   C2943     1.0  0.83039  0.38780  0.59706  1.0000
  H   H2360     1.0  0.85592  0.35840  0.56966  1.0000
  H   H2361     1.0  0.86713  0.34232  0.59815  1.0000
  H   H2362     1.0  0.83057  0.38401  0.62551  1.0000
  H   H2363     1.0  0.82033  0.40061  0.59677  1.0000
  C   C2944     1.0  0.95860  0.48176  0.35121  1.0000
  C   C2945     1.0  0.88174  0.26219  0.61613  1.0000
  C   C2946     1.0  0.87464  0.25469  0.60562  1.0000
  H   H2364     1.0  0.88748  0.27414  0.60988  1.0000
  H   H2365     1.0  0.87503  0.26089  0.59129  1.0000
  C   C2947     1.0  0.86054  0.27648  0.51475  1.0000
  C   C2948     1.0  0.86356  0.29326  0.50353  1.0000
  C   C2949     1.0  0.85143  0.30960  0.50709  1.0000
  C   C2950     1.0  0.83578  0.30918  0.52139  1.0000
  C   C2951     1.0  0.83244  0.29237  0.53226  1.0000
  C   C2952     1.0  0.84498  0.27605  0.52918  1.0000
  H   H2366     1.0  0.87547  0.29364  0.49224  1.0000
  H   H2367     1.0  0.85410  0.32250  0.49864  1.0000
  H   H2368     1.0  0.82043  0.29204  0.54340  1.0000
  H   H2369     1.0  0.84249  0.26318  0.53781  1.0000
  C   C2953     1.0  0.97753  0.48138  0.34651  1.0000
  C   C2954     1.0  0.94991  0.38460  0.61522  1.0000
  C   C2955     1.0  0.88359  0.40740  0.44103  1.0000
  C   C2956     1.0  0.86859  0.40475  0.45575  1.0000
  C   C2957     1.0  0.85097  0.41551  0.45464  1.0000
  C   C2958     1.0  0.84839  0.42895  0.43887  1.0000
  H   H2370     1.0  0.89721  0.39910  0.44193  1.0000
  H   H2371     1.0  0.87069  0.39444  0.46795  1.0000
  H   H2372     1.0  0.83478  0.43731  0.43804  1.0000
  C   C2959     1.0  0.93676  0.41820  0.45952  1.0000
  C   C2960     1.0  0.69453  0.23935  0.36089  1.0000
  C   C2961     1.0  0.80263  0.27180  0.57845  1.0000
  H   H2373     1.0  0.84414  0.27105  0.58584  1.0000
  H   H2374     1.0  0.97419  0.27113  0.57077  1.0000
  Fe  Fe201     1.0  0.89558  0.44759  0.38371  1.0000
  C   C2962     1.0  0.95148  0.41586  0.57004  1.0000
  C   C2963     1.0  0.86342  0.43160  0.42415  1.0000
  Fe  Fe202     1.0  0.91986  0.46943  0.35312  1.0000
  C   C2964     1.0  0.86322  0.41801  0.56622  1.0000
  H   H2375     1.0  0.96170  0.40036  0.54879  1.0000
  H   H2376     1.0  0.95936  0.30673  0.44299  1.0000
  C   C2965     1.0  0.87625  0.45037  0.45350  1.0000
  H   H2377     1.0  0.93540  0.46349  0.41001  1.0000
  C   C2966     1.0  0.82979  0.27610  0.58503  1.0000
  C   C2967     1.0  0.88233  0.41674  0.56244  1.0000
  C   C2968     1.0  0.93620  0.42196  0.58322  1.0000
  C   C2969     1.0  0.98717  0.36823  0.60497  1.0000
  H   H2378     1.0  0.85664  0.40925  0.57817  1.0000
  C   C2970     1.0  0.81831  0.33031  0.59232  1.0000
  H   H2379     1.0  0.97675  0.34370  0.46336  1.0000
  H   H2380     1.0  0.95691  0.42797  0.43574  1.0000
  P   P98       1.0  0.83183  0.30714  0.59488  1.0000
  H   H2381     1.0  0.98411  0.44481  0.49045  1.0000
  H   H2382     1.0  0.91959  0.26010  0.55766  1.0000
  C   C2971     1.0  0.89000  0.37460  0.56143  1.0000
  H   H2383     1.0  0.93191  0.39286  0.55200  1.0000
  C   C2972     1.0  0.98385  0.32131  0.60243  1.0000
  C   C2973     1.0  0.96116  0.31010  0.52987  1.0000
  C   C2974     1.0  0.85254  0.43013  0.55425  1.0000
  C   C2975     1.0  0.96693  0.30221  0.48541  1.0000
  C   C2976     1.0  0.84074  0.30912  0.62664  1.0000
  C   C2977     1.0  0.81697  0.34080  0.57474  1.0000
  H   H2384     1.0  0.77867  0.29385  0.58097  1.0000
  H   H2385     1.0  0.79603  0.26365  0.57415  1.0000
  H   H2386     1.0  0.67632  0.24320  0.32448  1.0000
  C   C2978     1.0  0.81932  0.37581  0.46483  1.0000
  C   C2979     1.0  0.81426  0.36065  0.47772  1.0000
  C   C2980     1.0  0.82455  0.34315  0.47615  1.0000
  C   C2981     1.0  0.84001  0.34081  0.46180  1.0000
  C   C2982     1.0  0.84523  0.35600  0.44868  1.0000
  C   C2983     1.0  0.83478  0.37355  0.45044  1.0000
  P   P99       1.0  0.86612  0.35277  0.43100  1.0000
  C   C2984     1.0  0.88529  0.35139  0.44081  1.0000
  C   C2985     1.0  0.86890  0.33113  0.42517  1.0000
  C   C2986     1.0  0.85354  0.32600  0.42338  1.0000
  C   C2987     1.0  0.85554  0.30910  0.41924  1.0000
  H   H2387     1.0  0.90172  0.29320  0.41639  1.0000
  C   C2988     1.0  0.88827  0.30239  0.41828  1.0000
  C   C2989     1.0  0.88634  0.31929  0.42239  1.0000
  C   C2990     1.0  0.88732  0.33897  0.45741  1.0000
  C   C2991     1.0  0.90232  0.33714  0.46499  1.0000
  C   C2992     1.0  0.91530  0.34788  0.45626  1.0000
  C   C2993     1.0  0.91356  0.36015  0.43964  1.0000
  C   C2994     1.0  0.89876  0.36174  0.43178  1.0000
  C   C2995     1.0  0.86485  0.37080  0.41057  1.0000
  C   C2996     1.0  0.86558  0.38855  0.41068  1.0000
  C   C2997     1.0  0.86545  0.40227  0.39475  1.0000
  C   C2998     1.0  0.86436  0.39852  0.37857  1.0000
  C   C2999     1.0  0.86340  0.38099  0.37831  1.0000
  C   C3000     1.0  0.86369  0.36716  0.39419  1.0000
  H   H2388     1.0  0.81161  0.38944  0.46631  1.0000
  H   H2389     1.0  0.80269  0.36247  0.48923  1.0000
  H   H2390     1.0  0.82089  0.33143  0.48645  1.0000
  H   H2391     1.0  0.84808  0.32713  0.46129  1.0000
  H   H2392     1.0  0.83859  0.38563  0.44110  1.0000
  H   H2393     1.0  0.84001  0.33504  0.42527  1.0000
  H   H2394     1.0  0.84361  0.30514  0.41806  1.0000
  H   H2395     1.0  0.90062  0.28945  0.50857  1.0000
  H   H2396     1.0  0.90210  0.44570  0.63063  1.0000
  H   H2397     1.0  0.89844  0.32300  0.42346  1.0000
  H   H2398     1.0  0.87733  0.33066  0.46462  1.0000
  H   H2399     1.0  0.90358  0.32772  0.47796  1.0000
  H   H2400     1.0  0.92652  0.34682  0.46261  1.0000
  H   H2401     1.0  0.92348  0.36867  0.43292  1.0000
  H   H2402     1.0  0.89798  0.37114  0.41877  1.0000
  H   H2403     1.0  0.86665  0.39170  0.42302  1.0000
  H   H2404     1.0  0.86646  0.41582  0.39483  1.0000
  H   H2405     1.0  0.85033  0.44580  0.47135  1.0000
  H   H2406     1.0  0.86260  0.37810  0.36572  1.0000
  H   H2407     1.0  0.86319  0.35369  0.39346  1.0000
  C   C3001     1.0  0.92132  0.45306  0.49751  1.0000
  C   C3002     1.0  0.98852  0.28572  0.53034  1.0000
  Fe  Fe203     1.0  0.98519  0.37681  0.50119  1.0000
  H   H2408     1.0  0.95483  0.41310  0.39173  1.0000
  C   C3003     1.0  0.78464  0.29255  0.50373  1.0000
  H   H2409     1.0  0.97685  0.32203  0.49288  1.0000
  C   C3004     1.0  0.94991  0.38489  0.44801  1.0000
  C   C3005     1.0  0.91934  0.41733  0.58543  1.0000
  C   C3006     1.0  0.52877  0.25047  0.59560  1.0000
  C   C3007     1.0  0.93292  0.40097  0.56083  1.0000
  C   C3008     1.0  0.96269  0.29780  0.47091  1.0000
  C   C3009     1.0  0.87985  0.43992  0.53453  1.0000
  H   H2410     1.0  0.96829  0.39889  0.42604  1.0000
  C   C3010     1.0  0.88692  0.38338  0.61441  1.0000
  C   C3011     1.0  0.97566  0.40565  0.32531  1.0000
  C   C3012     1.0  0.89474  0.35811  0.55563  1.0000
  C   C3013     1.0  0.92487  0.42340  0.63645  1.0000
  C   C3014     1.0  0.91761  0.40662  0.57434  1.0000
  C   C3015     1.0  0.85545  0.30643  0.56051  1.0000
  H   H2411     1.0  0.92984  0.37482  0.47125  1.0000
  H   H2412     1.0  0.88057  0.37081  0.64315  1.0000
  C   C3016     1.0  0.92571  0.45373  0.51358  1.0000
  S   S402      1.0  0.98503  0.37547  0.47285  1.0000
  C   C3017     1.0  0.83556  0.29829  0.61798  1.0000
  C   C3018     1.0  0.84375  0.30245  0.64440  1.0000
  C   C3019     1.0  0.92092  0.34816  0.56985  1.0000
  H   H2413     1.0  0.86320  0.43372  0.49923  1.0000
  C   C3020     1.0  0.80664  0.35873  0.57253  1.0000
  H   H2414     1.0  0.87020  0.42800  0.59628  1.0000
  S   S403      1.0  0.95885  0.38103  0.52207  1.0000
  H   H2415     1.0  0.87810  0.38464  0.55768  1.0000
  C   C3021     1.0  0.86929  0.30856  0.58399  1.0000
  C   C3022     1.0  0.94336  0.43772  0.40186  1.0000
  C   C3023     1.0  0.90074  0.37798  0.57157  1.0000
  C   C3024     1.0  0.91048  0.34514  0.55937  1.0000
  H   H2416     1.0  0.96430  0.44527  0.45379  1.0000
  C   C3025     1.0  0.89065  0.42758  0.54634  1.0000
  H   H2417     1.0  0.93754  0.42995  0.59201  1.0000
  H   H2418     1.0  0.76983  0.24495  0.56038  1.0000
  C   C3026     1.0  0.54244  0.25869  0.59626  1.0000
  C   C3027     1.0  0.96287  0.31015  0.45402  1.0000
  H   H2419     1.0  0.95909  0.28484  0.47277  1.0000
  C   C3028     1.0  0.82102  0.26541  0.57996  1.0000
  C   C3029     1.0  0.88100  0.42073  0.42518  1.0000
  H   H2420     1.0  0.79026  0.38054  0.58589  1.0000
  C   C3030     1.0  0.94494  0.27972  0.58049  1.0000
  C   C3031     1.0  0.68715  0.24753  0.34532  1.0000
  C   C3032     1.0  0.83663  0.27393  0.64520  1.0000
  S   S404      1.0  0.89975  0.42292  0.40656  1.0000
  H   H2421     1.0  0.89622  0.43128  0.49723  1.0000
  H   H2422     1.0  0.98835  0.32042  0.58818  1.0000
  C   C3033     1.0  0.95604  0.37590  0.60041  1.0000
  H   H2423     1.0  0.91846  0.40376  0.48165  1.0000
  H   H2424     1.0  0.85250  0.45035  0.52910  1.0000
  H   H2425     1.0  0.93922  0.25406  0.63811  1.0000
  C   C3034     1.0  0.93038  0.40609  0.64727  1.0000
  C   C3035     1.0  0.97249  0.31864  0.48237  1.0000
  C   C3036     1.0  0.88402  0.39943  0.60099  1.0000
  C   C3037     1.0  0.98101  0.37622  0.62024  1.0000
  C   C3038     1.0  0.97706  0.24850  0.50881  1.0000
  C   C3039     1.0  0.99311  0.29239  0.54309  1.0000
  C   C3040     1.0  0.88723  0.30934  0.55291  1.0000
  C   C3041     1.0  0.88588  0.30966  0.57112  1.0000
  H   H2426     1.0  0.89993  0.31069  0.54279  1.0000
  H   H2427     1.0  0.89760  0.31103  0.57527  1.0000
  H   H2428     1.0  0.80599  0.36688  0.55892  1.0000
  H   H2429     1.0  0.82381  0.33516  0.56270  1.0000
  H   H2430     1.0  0.99172  0.45046  0.64195  1.0000
  H   H2431     1.0  0.94635  0.37518  0.59308  1.0000
  S   S405      1.0  0.85615  0.35093  0.63453  1.0000
  C   C3042     1.0  0.95091  0.41656  0.44382  1.0000
  C   C3043     1.0  0.95743  0.39996  0.43815  1.0000
  C   C3044     1.0  0.94982  0.40537  0.55885  1.0000
  C   C3045     1.0  0.78272  0.26194  0.50416  1.0000
  H   H2432     1.0  0.96348  0.35109  0.50552  1.0000
  C   C3046     1.0  0.97865  0.44499  0.38881  1.0000
  C   C3047     1.0  0.91152  0.28469  0.51612  1.0000
  H   H2433     1.0  0.57129  0.25516  0.59553  1.0000
  H   H2434     1.0  0.87301  0.30738  0.53352  1.0000
  C   C3048     1.0  0.91595  0.36435  0.57618  1.0000
  C   C3049     1.0  0.96348  0.25059  0.59254  1.0000
  H   H2435     1.0  0.91023  0.46341  0.49239  1.0000
  H   H2436     1.0  0.96793  0.33636  0.43827  1.0000
  C   C3050     1.0  0.97253  0.33102  0.46551  1.0000
  H   H2437     1.0  0.96223  0.41746  0.51504  1.0000
  P   P100      1.0  0.99348  0.41371  0.37410  1.0000
  H   H2438     1.0  0.95437  0.41580  0.48702  1.0000
  C   C3051     1.0  0.92877  0.28903  0.50808  1.0000
  C   C3052     1.0  0.88172  0.25389  0.63461  1.0000
  C   C3053     1.0  0.94898  0.35760  0.50820  1.0000
  C   C3054     1.0  0.87248  0.41538  0.60633  1.0000
  H   H2439     1.0  0.92969  0.43496  0.40697  1.0000
  H   H2440     1.0  0.93309  0.33809  0.57275  1.0000
  C   C3055     1.0  0.89067  0.43731  0.48505  1.0000
  H   H2441     1.0  0.85490  0.42747  0.62876  1.0000
  C   C3056     1.0  0.92502  0.47502  0.44379  1.0000
  H   H2442     1.0  0.98899  0.40672  0.62016  1.0000
  C   C3057     1.0  0.95769  0.42536  0.39327  1.0000
  C   C3058     1.0  0.80155  0.29942  0.58764  1.0000
  H   H2443     1.0  0.95196  0.42729  0.33130  1.0000
  H   H2444     1.0  0.95501  0.37208  0.44354  1.0000
  C   C3059     1.0  0.78984  0.25518  0.52008  1.0000
  C   C3060     1.0  0.79289  0.28880  0.58230  1.0000
  C   C3061     1.0  0.96004  0.32169  0.63012  1.0000
  H   H2445     1.0  0.79379  0.31258  0.59045  1.0000
  C   C3062     1.0  0.93587  0.38639  0.46367  1.0000
  S   S406      1.0  0.87279  0.45415  0.32817  1.0000
  H   H2446     1.0  0.84370  0.30562  0.55604  1.0000
  H   H2447     1.0  0.82861  0.25220  0.57711  1.0000
  H   H2448     1.0  0.83174  0.23776  0.52433  1.0000
  C   C3063     1.0  0.96998  0.42143  0.34985  1.0000
  H   H2449     1.0  0.68542  0.26213  0.34003  1.0000
  H   H2450     1.0  0.86437  0.40922  0.36623  1.0000
  H   H2451     1.0  0.90781  0.42195  0.59593  1.0000
  H   H2452     1.0  0.91475  0.33290  0.55389  1.0000
  C   C3064     1.0  0.87849  0.38331  0.63286  1.0000
  H   H2453     1.0  0.89490  0.27069  0.53992  1.0000
  H   H2454     1.0  0.96704  0.46935  0.39938  1.0000
  H   H2455     1.0  0.89555  0.37087  0.61069  1.0000
  C   C3065     1.0  0.96246  0.38518  0.62502  1.0000
  H   H2456     1.0  0.87440  0.28411  0.41374  1.0000
  C   C3066     1.0  0.86694  0.39915  0.63803  1.0000
  C   C3067     1.0  0.85386  0.30701  0.57879  1.0000
  C   C3068     1.0  0.94309  0.28243  0.51767  1.0000
  H   H2457     1.0  0.83787  0.43058  0.55705  1.0000
  C   C3069     1.0  0.87207  0.30747  0.54768  1.0000
  C   C3070     1.0  0.90224  0.44286  0.46807  1.0000
  C   C3071     1.0  0.99224  0.39522  0.33003  1.0000
  H   H2458     1.0  0.90544  0.42638  0.54275  1.0000
  C   C3072     1.0  0.90621  0.43213  0.63863  1.0000
  C   C3073     1.0  0.97262  0.29471  0.52344  1.0000
  C   C3074     1.0  0.87198  0.43854  0.48624  1.0000
  H   H2459     1.0  0.86861  0.30905  0.59788  1.0000
  P   P101      1.0  0.96611  0.28623  0.50726  1.0000
  C   C3075     1.0  0.93135  0.43925  0.48793  1.0000
  C   C3076     1.0  0.98295  0.41527  0.63006  1.0000
  H   H2460     1.0  0.51465  0.25818  0.59643  1.0000
  H   H2461     1.0  0.69853  0.24762  0.36766  1.0000
  P   P102      1.0  0.92666  0.43981  0.46632  1.0000
  C   C3077     1.0  0.79761  0.36639  0.58779  1.0000
  H   H2462     1.0  0.82991  0.27172  0.62110  1.0000
  H   H2463     1.0  0.96332  0.24734  0.51664  1.0000
  H   H2464     1.0  0.92432  0.36636  0.58421  1.0000
  C   C3078     1.0  0.82012  0.29316  0.58899  1.0000
  H   H2465     1.0  0.78274  0.30696  0.49739  1.0000
  P   P103      1.0  0.89608  0.40003  0.57736  1.0000
  C   C3079     1.0  0.79231  0.28584  0.51921  1.0000
  C   C3080     1.0  0.86391  0.41519  0.62476  1.0000
  H   H2466     1.0  0.93534  0.39048  0.61912  1.0000
  C   C3081     1.0  0.93057  0.25768  0.60461  1.0000
  H   H2467     1.0  0.97793  0.47088  0.43371  1.0000
  C   C3082     1.0  0.92942  0.40290  0.46951  1.0000
  H   H2468     1.0  0.80176  0.26220  0.53879  1.0000
  C   C3083     1.0  0.77991  0.28060  0.49616  1.0000
  H   H2469     1.0  0.77082  0.23883  0.59315  1.0000
  C   C3084     1.0  0.98180  0.30794  0.54917  1.0000
  H   H2470     1.0  0.98512  0.31292  0.55932  1.0000
  C   C3085     1.0  0.96591  0.31688  0.54242  1.0000
  H   H2471     1.0  0.94850  0.31679  0.52522  1.0000
  H   H2472     1.0  0.94388  0.44134  0.53236  1.0000
  C   C3086     1.0  0.99633  0.32305  0.61170  1.0000
  C   C3087     1.0  0.80838  0.33781  0.60768  1.0000
  C   C3088     1.0  0.79836  0.35589  0.60538  1.0000
  C   C3089     1.0  0.83351  0.28060  0.62744  1.0000
  H   H2473     1.0  0.94610  0.32113  0.63745  1.0000
  H   H2474     1.0  0.98630  0.47485  0.33558  1.0000
  C   C3090     1.0  0.79507  0.26721  0.52727  1.0000
  H   H2475     1.0  0.80831  0.32986  0.62145  1.0000
  H   H2476     1.0  0.79135  0.36184  0.61721  1.0000
  C   C3091     1.0  0.93950  0.27236  0.53575  1.0000
  C   C3092     1.0  0.96767  0.32682  0.45136  1.0000
  S   S407      1.0  0.92494  0.29216  0.64484  1.0000
  H   H2477     1.0  0.95031  0.26745  0.54344  1.0000
  S   S408      1.0  0.90843  0.33671  0.63657  1.0000
  H   H2478     1.0  0.84255  0.32277  0.61963  1.0000
  H   H2479     1.0  0.53892  0.27277  0.59764  1.0000
  H   H2480     1.0  0.94393  0.29297  0.57123  1.0000
  H   H2481     1.0  0.96470  0.41895  0.56869  1.0000
  H   H2482     1.0  0.93069  0.29751  0.49447  1.0000
  H   H2483     1.0  0.86134  0.44193  0.41198  1.0000
  H   H2484     1.0  0.91591  0.28403  0.59264  1.0000
  C   C3093     1.0  0.89503  0.44867  0.45219  1.0000
  H   H2485     1.0  0.90395  0.45153  0.43875  1.0000
  H   H2486     1.0  0.91785  0.46433  0.52099  1.0000
  S   S409      1.0  0.94965  0.47008  0.34056  1.0000
  C   C3094     1.0  0.95539  0.45748  0.44776  1.0000
  C   C3095     1.0  0.94040  0.44084  0.51996  1.0000
  H   H2487     1.0  0.91836  0.25400  0.61407  1.0000
  C   C3096     1.0  0.97536  0.42915  0.38623  1.0000
  H   H2488     1.0  0.77440  0.28576  0.48388  1.0000
  H   H2489     1.0  0.93507  0.43034  0.62665  1.0000
  S   S410      1.0  0.86959  0.46411  0.37478  1.0000
  C   C3097     1.0  0.96435  0.45711  0.39767  1.0000
  Fe  Fe204     1.0  0.88582  0.46243  0.34623  1.0000
  C   C3098     1.0  0.93633  0.45859  0.45103  1.0000
  C   C3099     1.0  0.95069  0.42733  0.51025  1.0000
  C   C3100     1.0  0.94615  0.42640  0.49435  1.0000
  H   H2490     1.0  0.79651  0.29505  0.52470  1.0000
  C   C3101     1.0  0.96204  0.26759  0.58043  1.0000
  H   H2491     1.0  0.95122  0.24006  0.56472  1.0000
  H   H2492     1.0  0.75589  0.24353  0.52724  1.0000
  C   C3102     1.0  0.92918  0.27473  0.59258  1.0000
  Fe  Fe205     1.0  0.89786  0.28939  0.64193  1.0000
  C   C3103     1.0  0.86473  0.44526  0.47050  1.0000
  C   C3104     1.0  0.94662  0.45372  0.40381  1.0000
  C   C3105     1.0  0.87288  0.29727  0.41678  1.0000
  C   C3106     1.0  0.90829  0.27410  0.53386  1.0000
  C   C3107     1.0  0.98215  0.26545  0.50254  1.0000
  S   S411      1.0  0.90629  0.47201  0.38209  1.0000
  H   H2493     1.0  0.97945  0.36132  0.58354  1.0000
  C   C3108     1.0  0.92217  0.26818  0.54381  1.0000
  C   C3109     1.0  0.97471  0.36803  0.59506  1.0000
  H   H2494     1.0  0.87075  0.45498  0.44122  1.0000
  C   C3110     1.0  0.94767  0.24539  0.60450  1.0000
  C   C3111     1.0  0.96314  0.47205  0.43657  1.0000
  S   S412      1.0  0.89178  0.26136  0.64831  1.0000
  C   C3112     1.0  0.99078  0.32387  0.63024  1.0000
  P   P104      1.0  0.95465  0.39551  0.64478  1.0000
  H   H2495     1.0  0.99075  0.37526  0.62833  1.0000
  H   H2496     1.0  0.77965  0.25275  0.49776  1.0000
  C   C3113     1.0  0.98629  0.41057  0.35511  1.0000
  C   C3114     1.0  0.96645  0.41323  0.64302  1.0000
  C   C3115     1.0  0.97259  0.32317  0.63937  1.0000
  C   C3116     1.0  0.86652  0.23956  0.61392  1.0000
  H   H2497     1.0  0.82560  0.48010  0.35005  1.0000
  C   C3117     1.0  0.99309  0.37685  0.38985  1.0000
  H   H2498     1.0  0.91020  0.47682  0.44686  1.0000
  C   C3118     1.0  0.87385  0.23868  0.64266  1.0000
  H   H2499     1.0  0.97690  0.24145  0.59213  1.0000
  H   H2500     1.0  0.99213  0.44824  0.38393  1.0000
  H   H2501     1.0  0.98750  0.37665  0.37862  1.0000
  H   H2502     1.0  0.99432  0.25693  0.61850  1.0000
  H   H2503     1.0  0.84773  0.31099  0.65083  1.0000
  H   H2504     1.0  0.97737  0.28277  0.64099  1.0000
  C   C3119     1.0  0.98457  0.44028  0.64204  1.0000
  C   C3120     1.0  0.68203  0.23687  0.33656  1.0000
  H   H2505     1.0  0.99232  0.34871  0.40252  1.0000
  C   C3121     1.0  0.99199  0.42868  0.62969  1.0000
  C   C3122     1.0  0.94482  0.24182  0.64720  1.0000
  H   H2506     1.0  0.87098  0.25803  0.68828  1.0000
  H   H2507     1.0  0.94611  0.42416  0.66508  1.0000
  H   H2508     1.0  0.58199  0.33131  0.83636  1.0000
  H   H2509     1.0  0.57800  0.26804  0.92338  1.0000
  Fe  Fe206     1.0  0.60490  0.32508  0.93273  1.0000
  S   S413      1.0  0.58762  0.31933  0.96112  1.0000
  S   S414      1.0  0.60986  0.35352  0.92078  1.0000
  Fe  Fe207     1.0  0.60701  0.28743  0.92641  1.0000
  S   S415      1.0  0.59001  0.27903  0.95430  1.0000
  S   S416      1.0  0.61698  0.26869  0.90647  1.0000
  Fe  Fe208     1.0  0.57241  0.30706  0.94862  1.0000
  S   S417      1.0  0.54164  0.31098  0.95632  1.0000
  Fe  Fe209     1.0  0.60717  0.29198  0.96376  1.0000
  C   C3123     1.0  0.56400  0.24469  0.95858  1.0000
  S   S418      1.0  0.58827  0.31470  0.91994  1.0000
  S   S419      1.0  0.62584  0.29848  0.93611  1.0000
  H   H2510     1.0  0.84555  0.34330  0.72819  1.0000
  C   C3124     1.0  0.80118  0.29914  0.75083  1.0000
  Fe  Fe210     1.0  0.66041  0.40103  0.96374  1.0000
  H   H2511     1.0  0.86748  0.48492  0.83563  1.0000
  S   S420      1.0  0.65967  0.37330  0.96086  1.0000
  Fe  Fe211     1.0  0.68988  0.42063  0.96226  1.0000
  H   H2512     1.0  0.96824  0.32347  0.65373  1.0000
  S   S421      1.0  0.72043  0.41969  0.95329  1.0000
  H   H2513     1.0  0.83025  0.37023  0.67686  1.0000
  Fe  Fe212     1.0  0.65265  0.44236  0.95510  1.0000
  Fe  Fe213     1.0  0.91149  0.46569  0.87598  1.0000
  H   H2514     1.0  0.98803  0.45185  0.71448  1.0000
  S   S422      1.0  0.67427  0.42123  0.94161  1.0000
  H   H2515     1.0  0.67106  0.33107  0.84784  1.0000
  Fe  Fe214     1.0  0.89743  0.40373  0.72048  1.0000
  S   S423      1.0  0.92501  0.40658  0.70231  1.0000
  S   S424      1.0  0.87967  0.38917  0.71333  1.0000
  Fe  Fe215     1.0  0.89956  0.42785  0.74469  1.0000
  S   S425      1.0  0.92713  0.43296  0.72803  1.0000
  S   S426      1.0  0.88536  0.44057  0.76927  1.0000
  Fe  Fe216     1.0  0.91555  0.43622  0.70360  1.0000
  S   S427      1.0  0.92003  0.45672  0.67690  1.0000
  Fe  Fe217     1.0  0.93383  0.40305  0.72844  1.0000
  S   S428      1.0  0.88722  0.43372  0.72008  1.0000
  S   S429      1.0  0.90703  0.39753  0.74678  1.0000
  H   H2516     1.0  0.60193  0.31596  0.85883  1.0000
  H   H2517     1.0  0.87466  0.33179  0.88413  1.0000
  C   C3125     1.0  0.99226  0.26090  0.68047  1.0000
  Fe  Fe218     1.0  0.93182  0.45829  0.83823  1.0000
  H   H2518     1.0  0.95120  0.35750  0.65418  1.0000
  S   S430      1.0  0.93935  0.44050  0.81755  1.0000
  C   C3126     1.0  0.56891  0.38726  0.97941  1.0000
  C   C3127     1.0  0.52388  0.29476  0.86569  1.0000
  H   H2519     1.0  0.98382  0.44530  0.79320  1.0000
  S   S431      1.0  0.93676  0.44520  0.86650  1.0000
  H   H2520     1.0  0.62156  0.33585  0.89063  1.0000
  H   H2521     1.0  0.84527  0.31193  0.69026  1.0000
  C   C3128     1.0  0.65958  0.32570  0.85709  1.0000
  S   S432      1.0  0.91817  0.31604  0.68503  1.0000
  H   H2522     1.0  0.62565  0.46494  0.97787  1.0000
  H   H2523     1.0  0.60153  0.41147  0.88884  1.0000
  H   H2524     1.0  0.94215  0.25627  0.66809  1.0000
  C   C3129     1.0  0.89129  0.36952  0.70447  1.0000
  C   C3130     1.0  0.90760  0.35868  0.70946  1.0000
  C   C3131     1.0  0.91577  0.34225  0.70344  1.0000
  C   C3132     1.0  0.90823  0.33707  0.69167  1.0000
  C   C3133     1.0  0.89226  0.34823  0.68618  1.0000
  C   C3134     1.0  0.88365  0.36425  0.69283  1.0000
  H   H2525     1.0  0.91356  0.36266  0.71843  1.0000
  H   H2526     1.0  0.92790  0.33350  0.70800  1.0000
  H   H2527     1.0  0.88619  0.34424  0.67729  1.0000
  H   H2528     1.0  0.87108  0.37263  0.68887  1.0000
  C   C3135     1.0  0.80336  0.28047  0.75855  1.0000
  H   H2529     1.0  0.88067  0.32687  0.72117  1.0000
  H   H2530     1.0  0.58893  0.29860  0.88927  1.0000
  C   C3136     1.0  0.53870  0.41751  0.97818  1.0000
  S   S433      1.0  0.89322  0.45712  0.90351  1.0000
  C   C3137     1.0  0.87608  0.26583  0.69466  1.0000
  C   C3138     1.0  0.86167  0.30030  0.76072  1.0000
  C   C3139     1.0  0.51207  0.36202  0.92197  1.0000
  C   C3140     1.0  0.86536  0.30854  0.74198  1.0000
  C   C3141     1.0  0.56174  0.30412  0.88417  1.0000
  C   C3142     1.0  0.90062  0.44183  0.78185  1.0000
  C   C3143     1.0  0.89451  0.45266  0.79506  1.0000
  C   C3144     1.0  0.90640  0.45294  0.80580  1.0000
  C   C3145     1.0  0.92427  0.44205  0.80358  1.0000
  C   C3146     1.0  0.93044  0.43168  0.79009  1.0000
  C   C3147     1.0  0.91875  0.43164  0.77916  1.0000
  H   H2531     1.0  0.88059  0.46075  0.79708  1.0000
  H   H2532     1.0  0.90161  0.46117  0.81605  1.0000
  H   H2533     1.0  0.94426  0.42340  0.78836  1.0000
  H   H2534     1.0  0.92362  0.42331  0.76900  1.0000
  C   C3148     1.0  0.57635  0.32375  0.84971  1.0000
  C   C3149     1.0  0.83761  0.35848  0.70313  1.0000
  C   C3150     1.0  0.99205  0.40763  0.76456  1.0000
  H   H2535     1.0  0.82266  0.25460  0.76259  1.0000
  C   C3151     1.0  0.96627  0.36599  0.69420  1.0000
  H   H2536     1.0  0.88826  0.31909  0.77558  1.0000
  C   C3152     1.0  0.68214  0.36293  0.84656  1.0000
  C   C3153     1.0  0.94639  0.24312  0.66428  1.0000
  C   C3154     1.0  0.90175  0.27493  0.69906  1.0000
  C   C3155     1.0  0.63178  0.32837  0.88106  1.0000
  H   H2537     1.0  0.54929  0.32910  0.84434  1.0000
  C   C3156     1.0  0.99401  0.30436  0.73885  1.0000
  C   C3157     1.0  0.74007  0.44314  0.95565  1.0000
  H   H2538     1.0  0.67916  0.45633  0.91248  1.0000
  C   C3158     1.0  0.60449  0.40025  0.88202  1.0000
  H   H2539     1.0  0.64536  0.24251  0.94661  1.0000
  H   H2540     1.0  0.74788  0.44174  0.94201  1.0000
  C   C3159     1.0  0.62105  0.36024  0.93383  1.0000
  C   C3160     1.0  0.62424  0.37795  0.92914  1.0000
  C   C3161     1.0  0.63529  0.38257  0.93808  1.0000
  C   C3162     1.0  0.64285  0.36954  0.95192  1.0000
  C   C3163     1.0  0.63872  0.35221  0.95729  1.0000
  C   C3164     1.0  0.62785  0.34757  0.94827  1.0000
  H   H2541     1.0  0.61868  0.38790  0.91823  1.0000
  H   H2542     1.0  0.63879  0.39580  0.93359  1.0000
  H   H2543     1.0  0.64441  0.34211  0.96806  1.0000
  H   H2544     1.0  0.62544  0.33393  0.95189  1.0000
  C   C3165     1.0  0.53050  0.33080  0.94311  1.0000
  C   C3166     1.0  0.53970  0.33880  0.92582  1.0000
  C   C3167     1.0  0.53056  0.35449  0.91530  1.0000
  C   C3168     1.0  0.60522  0.25354  0.88531  1.0000
  H   H2545     1.0  0.66847  0.29614  0.97621  1.0000
  C   C3169     1.0  0.51213  0.33867  0.94995  1.0000
  H   H2546     1.0  0.55363  0.33270  0.92023  1.0000
  H   H2547     1.0  0.53766  0.36047  0.90184  1.0000
  H   H2548     1.0  0.91643  0.27436  0.69609  1.0000
  C   C3170     1.0  0.50328  0.30736  0.93169  1.0000
  C   C3171     1.0  0.84190  0.28478  0.65363  1.0000
  C   C3172     1.0  0.50729  0.36630  0.86711  1.0000
  H   H2549     1.0  0.69455  0.38696  0.80307  1.0000
  H   H2550     1.0  0.96410  0.34524  0.74200  1.0000
  C   C3173     1.0  0.64639  0.33591  0.86913  1.0000
  H   H2551     1.0  0.92732  0.48399  0.75946  1.0000
  C   C3174     1.0  0.97514  0.41786  0.76059  1.0000
  C   C3175     1.0  0.50503  0.27574  0.86296  1.0000
  C   C3176     1.0  0.60021  0.26083  0.90098  1.0000
  C   C3177     1.0  0.58216  0.26183  0.91163  1.0000
  C   C3178     1.0  0.99266  0.26615  0.66157  1.0000
  C   C3179     1.0  0.83709  0.34090  0.68212  1.0000
  H   H2552     1.0  0.92067  0.38424  0.66881  1.0000
  P   P105      1.0  0.64828  0.35829  0.86977  1.0000
  C   C3180     1.0  0.62568  0.37345  0.87221  1.0000
  C   C3181     1.0  0.61982  0.23735  0.96473  1.0000
  C   C3182     1.0  0.61193  0.37088  0.86510  1.0000
  C   C3183     1.0  0.59458  0.38280  0.86662  1.0000
  C   C3184     1.0  0.59088  0.39751  0.87504  1.0000
  C   C3185     1.0  0.65849  0.35672  0.88866  1.0000
  C   C3186     1.0  0.66657  0.37078  0.88873  1.0000
  C   C3187     1.0  0.67464  0.36956  0.90320  1.0000
  C   C3188     1.0  0.67491  0.35424  0.91758  1.0000
  C   C3189     1.0  0.66704  0.34015  0.91757  1.0000
  C   C3190     1.0  0.65877  0.34140  0.90325  1.0000
  H   H2553     1.0  0.66054  0.39497  0.80646  1.0000
  H   H2554     1.0  0.61456  0.35967  0.85839  1.0000
  H   H2555     1.0  0.58394  0.38057  0.86138  1.0000
  H   H2556     1.0  0.57740  0.40667  0.87634  1.0000
  H   H2557     1.0  0.66641  0.38280  0.87774  1.0000
  H   H2558     1.0  0.68033  0.38066  0.90353  1.0000
  H   H2559     1.0  0.68063  0.35360  0.92908  1.0000
  H   H2560     1.0  0.66666  0.32858  0.92907  1.0000
  H   H2561     1.0  0.65222  0.33058  0.90395  1.0000
  C   C3191     1.0  0.56944  0.25481  0.90696  1.0000
  C   C3192     1.0  0.83455  0.35776  0.68646  1.0000
  S   S434      1.0  0.96077  0.38631  0.73504  1.0000
  H   H2562     1.0  0.50612  0.32898  0.90796  1.0000
  C   C3193     1.0  0.84329  0.32477  0.69407  1.0000
  H   H2563     1.0  0.61974  0.24578  0.97379  1.0000
  C   C3194     1.0  0.91356  0.38517  0.79585  1.0000
  C   C3195     1.0  0.93202  0.38441  0.78679  1.0000
  H   H2564     1.0  0.59637  0.24210  0.86781  1.0000
  C   C3196     1.0  0.93902  0.38738  0.81425  1.0000
  C   C3197     1.0  0.92054  0.38786  0.82355  1.0000
  C   C3198     1.0  0.90786  0.38671  0.81420  1.0000
  P   P106      1.0  0.91319  0.38883  0.84758  1.0000
  C   C3199     1.0  0.90096  0.37078  0.85928  1.0000
  C   C3200     1.0  0.93329  0.38504  0.85686  1.0000
  C   C3201     1.0  0.94156  0.36749  0.86535  1.0000
  C   C3202     1.0  0.54766  0.25781  0.96190  1.0000
  C   C3203     1.0  0.94130  0.39973  0.85484  1.0000
  C   C3204     1.0  0.88613  0.37302  0.87437  1.0000
  C   C3205     1.0  0.87671  0.35899  0.88327  1.0000
  C   C3206     1.0  0.89681  0.34023  0.86228  1.0000
  C   C3207     1.0  0.90626  0.35423  0.85334  1.0000
  C   C3208     1.0  0.89822  0.41053  0.85117  1.0000
  C   C3209     1.0  0.88774  0.42150  0.83838  1.0000
  C   C3210     1.0  0.87516  0.43753  0.84207  1.0000
  C   C3211     1.0  0.87307  0.44282  0.85844  1.0000
  C   C3212     1.0  0.88368  0.43220  0.87108  1.0000
  C   C3213     1.0  0.89619  0.41613  0.86750  1.0000
  H   H2565     1.0  0.90360  0.38482  0.78856  1.0000
  H   H2566     1.0  0.93638  0.38343  0.77250  1.0000
  H   H2567     1.0  0.98635  0.43076  0.68317  1.0000
  C   C3214     1.0  0.95758  0.36480  0.87175  1.0000
  H   H2568     1.0  0.89354  0.38709  0.82105  1.0000
  C   C3215     1.0  0.98740  0.41176  0.88160  1.0000
  H   H2569     1.0  0.93518  0.41333  0.84832  1.0000
  H   H2570     1.0  0.88172  0.38557  0.87931  1.0000
  H   H2571     1.0  0.55226  0.28943  0.85042  1.0000
  H   H2572     1.0  0.55463  0.44679  0.94877  1.0000
  H   H2573     1.0  0.88928  0.41794  0.82546  1.0000
  H   H2574     1.0  0.86719  0.44592  0.83210  1.0000
  H   H2575     1.0  0.86327  0.45516  0.86137  1.0000
  H   H2576     1.0  0.88216  0.43638  0.88373  1.0000
  H   H2577     1.0  0.90409  0.40799  0.87762  1.0000
  C   C3216     1.0  0.68573  0.38151  0.81575  1.0000
  C   C3217     1.0  0.94474  0.38542  0.79601  1.0000
  H   H2578     1.0  0.89497  0.33361  0.74251  1.0000
  C   C3218     1.0  0.93232  0.48448  0.92011  1.0000
  C   C3219     1.0  0.95557  0.36004  0.66519  1.0000
  H   H2579     1.0  0.51840  0.26242  0.97329  1.0000
  C   C3220     1.0  0.58147  0.45299  0.94151  1.0000
  C   C3221     1.0  0.62186  0.38836  0.88051  1.0000
  C   C3222     1.0  0.50710  0.28915  0.87054  1.0000
  C   C3223     1.0  0.83063  0.47786  0.91330  1.0000
  H   H2580     1.0  0.57645  0.46745  0.93661  1.0000
  H   H2581     1.0  0.64037  0.38270  0.83521  1.0000
  H   H2582     1.0  0.86522  0.36087  0.89485  1.0000
  C   C3224     1.0  0.97728  0.27813  0.65549  1.0000
  C   C3225     1.0  0.86996  0.30404  0.77279  1.0000
  H   H2583     1.0  0.80772  0.46593  0.75867  1.0000
  H   H2584     1.0  0.96344  0.40851  0.85914  1.0000
  H   H2585     1.0  0.83118  0.46910  0.94189  1.0000
  C   C3226     1.0  0.85930  0.47183  0.96802  1.0000
  C   C3227     1.0  0.97667  0.26754  0.69309  1.0000
  C   C3228     1.0  0.85254  0.45587  0.97530  1.0000
  H   H2586     1.0  0.97795  0.37752  0.87441  1.0000
  H   H2587     1.0  0.76762  0.48449  0.90461  1.0000
  C   C3229     1.0  0.67700  0.31982  0.97732  1.0000
  H   H2588     1.0  0.94954  0.28529  0.69653  1.0000
  Fe  Fe219     1.0  0.95213  0.46698  0.86224  1.0000
  C   C3230     1.0  0.83935  0.47032  0.92803  1.0000
  H   H2589     1.0  0.63213  0.39075  0.88605  1.0000
  C   C3231     1.0  0.65516  0.37907  0.83404  1.0000
  C   C3232     1.0  0.50616  0.38741  0.95344  1.0000
  S   S435      1.0  0.67769  0.39885  0.98347  1.0000
  C   C3233     1.0  0.83709  0.46198  0.78575  1.0000
  H   H2590     1.0  0.78753  0.30798  0.75237  1.0000
  C   C3234     1.0  0.69351  0.36992  0.83018  1.0000
  H   H2591     1.0  0.73451  0.48455  0.91615  1.0000
  H   H2592     1.0  0.60990  0.45511  0.93532  1.0000
  H   H2593     1.0  0.96550  0.33785  0.70662  1.0000
  C   C3235     1.0  0.66286  0.36766  0.84871  1.0000
  H   H2594     1.0  0.92140  0.46243  0.91879  1.0000
  Fe  Fe220     1.0  0.76158  0.48417  0.97897  1.0000
  H   H2595     1.0  0.95574  0.33268  0.68108  1.0000
  C   C3236     1.0  0.52441  0.36350  0.97262  1.0000
  H   H2596     1.0  0.97652  0.26365  0.70761  1.0000
  C   C3237     1.0  0.66658  0.38603  0.81767  1.0000
  H   H2597     1.0  0.98014  0.47654  0.79764  1.0000
  C   C3238     1.0  0.50933  0.31436  0.91303  1.0000
  C   C3239     1.0  0.56564  0.38695  0.91889  1.0000
  C   C3240     1.0  0.54975  0.39654  0.91238  1.0000
  C   C3241     1.0  0.53724  0.40997  0.92106  1.0000
  C   C3242     1.0  0.54024  0.41332  0.93670  1.0000
  C   C3243     1.0  0.55573  0.40308  0.94387  1.0000
  C   C3244     1.0  0.56886  0.39051  0.93430  1.0000
  P   P107      1.0  0.55982  0.40752  0.96389  1.0000
  C   C3245     1.0  0.56888  0.36975  0.97787  1.0000
  C   C3246     1.0  0.57566  0.42260  0.95524  1.0000
  C   C3247     1.0  0.56917  0.44128  0.94854  1.0000
  H   H2598     1.0  0.52943  0.34711  0.87809  1.0000
  C   C3248     1.0  0.50290  0.35419  0.93934  1.0000
  C   C3249     1.0  0.51775  0.34876  0.87220  1.0000
  C   C3250     1.0  0.59466  0.41565  0.95409  1.0000
  C   C3251     1.0  0.68397  0.46722  0.91461  1.0000
  S   S436      1.0  0.90492  0.47694  0.84802  1.0000
  C   C3252     1.0  0.84323  0.48451  0.75756  1.0000
  C   C3253     1.0  0.60033  0.44605  0.94072  1.0000
  H   H2599     1.0  0.56420  0.36774  0.96684  1.0000
  C   C3254     1.0  0.74392  0.45470  0.96454  1.0000
  H   H2600     1.0  0.93577  0.35587  0.86700  1.0000
  H   H2601     1.0  0.61903  0.25287  0.87690  1.0000
  H   H2602     1.0  0.97286  0.41773  0.88586  1.0000
  H   H2603     1.0  0.57546  0.37660  0.91211  1.0000
  H   H2604     1.0  0.54702  0.39346  0.90071  1.0000
  H   H2605     1.0  0.52497  0.41747  0.91590  1.0000
  H   H2606     1.0  0.53035  0.42375  0.94324  1.0000
  H   H2607     1.0  0.58148  0.38319  0.93888  1.0000
  C   C3255     1.0  0.95537  0.47404  0.77624  1.0000
  H   H2608     1.0  0.50446  0.39534  0.93995  1.0000
  H   H2609     1.0  0.61914  0.30521  0.89022  1.0000
  C   C3256     1.0  0.87158  0.47562  0.97610  1.0000
  C   C3257     1.0  0.52265  0.37470  0.95551  1.0000
  C   C3258     1.0  0.98659  0.44572  0.75249  1.0000
  C   C3259     1.0  0.51281  0.33347  0.87026  1.0000
  C   C3260     1.0  0.85857  0.46384  0.92477  1.0000
  S   S437      1.0  0.55932  0.23956  0.88353  1.0000
  H   H2610     1.0  0.55574  0.25509  0.91549  1.0000
  S   S438      1.0  0.97876  0.45932  0.87179  1.0000
  C   C3261     1.0  0.96788  0.43873  0.65456  1.0000
  C   C3262     1.0  0.65809  0.30824  0.85703  1.0000
  H   H2611     1.0  0.68218  0.34349  0.98224  1.0000
  C   C3263     1.0  0.96148  0.27963  0.68691  1.0000
  S   S439      1.0  0.79102  0.46913  0.97203  1.0000
  S   S440      1.0  0.66941  0.44349  0.97398  1.0000
  H   H2612     1.0  0.83694  0.48181  0.83382  1.0000
  H   H2613     1.0  0.69827  0.44978  0.93530  1.0000
  H   H2614     1.0  0.96389  0.35127  0.87834  1.0000
  H   H2615     1.0  0.55641  0.29644  0.89758  1.0000
  C   C3264     1.0  0.63035  0.31098  0.88090  1.0000
  C   C3265     1.0  0.52304  0.28356  0.90837  1.0000
  C   C3266     1.0  0.82873  0.48142  0.75200  1.0000
  C   C3267     1.0  0.88202  0.34262  0.87723  1.0000
  H   H2616     1.0  0.96607  0.39322  0.67887  1.0000
  P   P108      1.0  0.98272  0.47024  0.74415  1.0000
  C   C3268     1.0  0.90368  0.47701  0.93940  1.0000
  H   H2617     1.0  0.85000  0.26734  0.74550  1.0000
  C   C3269     1.0  0.83432  0.29505  0.73892  1.0000
  C   C3270     1.0  0.86058  0.47357  0.89207  1.0000
  C   C3271     1.0  0.96917  0.46829  0.69755  1.0000
  H   H2618     1.0  0.94439  0.48178  0.90923  1.0000
  H   H2619     1.0  0.99417  0.39296  0.76905  1.0000
  H   H2620     1.0  0.96229  0.41359  0.70126  1.0000
  H   H2621     1.0  0.89378  0.46845  0.94307  1.0000
  C   C3272     1.0  0.82292  0.45870  0.77999  1.0000
  C   C3273     1.0  0.53685  0.27252  0.84630  1.0000
  C   C3274     1.0  0.88196  0.31603  0.76625  1.0000
  C   C3275     1.0  0.58756  0.31515  0.86234  1.0000
  C   C3276     1.0  0.51904  0.30244  0.90119  1.0000
  H   H2622     1.0  0.81462  0.32094  0.73524  1.0000
  C   C3277     1.0  0.69464  0.46354  0.92757  1.0000
  H   H2623     1.0  0.99023  0.39675  0.90874  1.0000
  H   H2624     1.0  0.99241  0.35630  0.72558  1.0000
  C   C3278     1.0  0.95893  0.42524  0.65510  1.0000
  H   H2625     1.0  0.53374  0.37280  0.94367  1.0000
  C   C3279     1.0  0.86923  0.46559  0.90684  1.0000
  C   C3280     1.0  0.82097  0.26907  0.75659  1.0000
  H   H2626     1.0  0.95443  0.46014  0.77772  1.0000
  C   C3281     1.0  0.60692  0.42738  0.94680  1.0000
  C   C3282     1.0  0.99178  0.47622  0.86386  1.0000
  C   C3283     1.0  0.97695  0.33548  0.73869  1.0000
  S   S441      1.0  0.63967  0.46931  0.93918  1.0000
  C   C3284     1.0  0.64348  0.30087  0.86897  1.0000
  H   H2627     1.0  0.96426  0.41111  0.76163  1.0000
  C   C3285     1.0  0.58024  0.30537  0.87953  1.0000
  H   H2628     1.0  0.86281  0.47038  0.72561  1.0000
  H   H2629     1.0  0.75473  0.46214  0.95781  1.0000
  H   H2630     1.0  0.57675  0.24912  0.95222  1.0000
  C   C3286     1.0  0.83642  0.27632  0.74685  1.0000
  C   C3287     1.0  0.91025  0.47770  0.74556  1.0000
  H   H2631     1.0  0.52303  0.39988  0.97530  1.0000
  C   C3288     1.0  0.84125  0.47933  0.89531  1.0000
  C   C3289     1.0  0.91939  0.47353  0.92554  1.0000
  H   H2632     1.0  0.90453  0.25565  0.68265  1.0000
  H   H2633     1.0  0.85234  0.29108  0.76614  1.0000
  H   H2634     1.0  0.86527  0.45737  0.93613  1.0000
  C   C3290     1.0  0.89506  0.26446  0.69146  1.0000
  C   C3291     1.0  0.94323  0.48417  0.78881  1.0000
  C   C3292     1.0  0.84697  0.32535  0.71059  1.0000
  H   H2635     1.0  0.84907  0.27892  0.70729  1.0000
  H   H2636     1.0  0.62158  0.42204  0.94585  1.0000
  C   C3293     1.0  0.96375  0.38016  0.67901  1.0000
  C   C3294     1.0  0.87759  0.32040  0.73555  1.0000
  H   H2637     1.0  0.84493  0.27936  0.66712  1.0000
  H   H2638     1.0  0.89505  0.29497  0.71524  1.0000
  C   C3295     1.0  0.72587  0.43371  0.96429  1.0000
  H   H2639     1.0  0.81538  0.44844  0.78849  1.0000
  H   H2640     1.0  0.84072  0.45414  0.79858  1.0000
  C   C3296     1.0  0.97801  0.39795  0.72157  1.0000
  C   C3297     1.0  0.87035  0.28833  0.71311  1.0000
  C   C3298     1.0  0.88577  0.32420  0.74763  1.0000
  P   P109      1.0  0.52662  0.31094  0.87699  1.0000
  C   C3299     1.0  0.97499  0.41106  0.70573  1.0000
  H   H2641     1.0  0.68839  0.35384  0.85757  1.0000
  C   C3300     1.0  0.88947  0.28676  0.70989  1.0000
  C   C3301     1.0  0.95837  0.37730  0.66437  1.0000
  Fe  Fe221     1.0  0.90881  0.31355  0.66091  1.0000
  S   S442      1.0  0.50019  0.38086  0.90849  1.0000
  C   C3302     1.0  0.97233  0.43682  0.75480  1.0000
  H   H2642     1.0  0.70837  0.36636  0.82868  1.0000
  C   C3303     1.0  0.71583  0.43551  0.98186  1.0000
  S   S443      1.0  0.63722  0.42217  0.97553  1.0000
  H   H2643     1.0  0.96186  0.44784  0.66404  1.0000
  H   H2644     1.0  0.98859  0.42601  0.85367  1.0000
  C   C3304     1.0  0.84707  0.47499  0.77467  1.0000
  H   H2645     1.0  0.60009  0.40120  0.95863  1.0000
  H   H2646     1.0  0.54796  0.27218  0.95828  1.0000
  C   C3305     1.0  0.86635  0.48137  0.69668  1.0000
  H   H2647     1.0  0.95908  0.44449  0.75182  1.0000
  H   H2648     1.0  0.88795  0.39987  0.67248  1.0000
  H   H2649     1.0  0.50205  0.28316  0.95292  1.0000
  H   H2650     1.0  0.79139  0.27483  0.76606  1.0000
  H   H2651     1.0  0.94906  0.38866  0.82088  1.0000
  H   H2652     1.0  0.62051  0.31421  0.98027  1.0000
  H   H2653     1.0  0.90093  0.32754  0.85758  1.0000
  C   C3306     1.0  0.98924  0.46511  0.80448  1.0000
  S   S444      1.0  0.94924  0.47858  0.83329  1.0000
  C   C3307     1.0  0.84354  0.34235  0.71528  1.0000
  C   C3308     1.0  0.51706  0.27670  0.92704  1.0000
  C   C3309     1.0  0.96550  0.37956  0.86956  1.0000
  H   H2654     1.0  0.95896  0.38515  0.78886  1.0000
  H   H2655     1.0  0.54862  0.26548  0.83759  1.0000
  H   H2656     1.0  0.53710  0.35342  0.97374  1.0000
  H   H2657     1.0  0.64234  0.28725  0.86919  1.0000
  C   C3310     1.0  0.97741  0.31679  0.74339  1.0000
  H   H2658     1.0  0.91773  0.35214  0.84180  1.0000
  H   H2659     1.0  0.68176  0.32372  0.96261  1.0000
  C   C3311     1.0  0.97119  0.47531  0.72546  1.0000
  S   S445      1.0  0.88182  0.30839  0.66077  1.0000
  C   C3312     1.0  0.86279  0.48270  0.71498  1.0000
  H   H2660     1.0  0.93313  0.47810  0.79973  1.0000
  H   H2661     1.0  0.53061  0.27409  0.89952  1.0000
  C   C3313     1.0  0.81866  0.46850  0.76317  1.0000
  H   H2662     1.0  0.91330  0.47492  0.70684  1.0000
  H   H2663     1.0  0.97038  0.36839  0.70539  1.0000
  C   C3314     1.0  0.95819  0.34589  0.68039  1.0000
  P   P110      1.0  0.85429  0.30433  0.72628  1.0000
  C   C3315     1.0  0.81660  0.30643  0.74108  1.0000
  C   C3316     1.0  0.55043  0.31263  0.87153  1.0000
  C   C3317     1.0  0.96356  0.34884  0.69487  1.0000
  C   C3318     1.0  0.86375  0.27773  0.70539  1.0000
  C   C3319     1.0  0.95736  0.39700  0.86106  1.0000
  C   C3320     1.0  0.91691  0.39751  0.66013  1.0000
  H   H2664     1.0  0.86699  0.29773  0.78724  1.0000
  C   C3321     1.0  0.55785  0.32249  0.85427  1.0000
  H   H2665     1.0  0.66832  0.30034  0.84783  1.0000
  H   H2666     1.0  0.83446  0.34034  0.66931  1.0000
  C   C3322     1.0  0.98847  0.42099  0.69563  1.0000
  H   H2667     1.0  0.97380  0.45955  0.68780  1.0000
  C   C3323     1.0  0.99304  0.34174  0.72938  1.0000
  H   H2668     1.0  0.83564  0.37157  0.70655  1.0000
  C   C3324     1.0  0.96813  0.48210  0.76181  1.0000
  C   C3325     1.0  0.97712  0.46396  0.71275  1.0000
  C   C3326     1.0  0.62730  0.47885  0.97241  1.0000
  H   H2669     1.0  0.51989  0.26216  0.93249  1.0000
  H   H2670     1.0  0.86931  0.46813  0.69328  1.0000
  C   C3327     1.0  0.89826  0.40631  0.66224  1.0000
  C   C3328     1.0  0.49692  0.33604  0.86359  1.0000
  H   H2671     1.0  0.50502  0.33296  0.96350  1.0000
  C   C3329     1.0  0.89272  0.48170  0.74180  1.0000
  C   C3330     1.0  0.99464  0.39457  0.72700  1.0000
  H   H2672     1.0  0.95031  0.29479  0.66347  1.0000
  H   H2673     1.0  0.92113  0.46733  0.73985  1.0000
  C   C3331     1.0  0.52284  0.41061  0.98169  1.0000
  C   C3332     1.0  0.50712  0.28858  0.93864  1.0000
  H   H2674     1.0  0.89018  0.47392  0.73356  1.0000
  H   H2675     1.0  0.96487  0.31198  0.75041  1.0000
  H   H2676     1.0  0.51851  0.25644  0.84560  1.0000
  C   C3333     1.0  0.57453  0.24773  0.89104  1.0000
  H   H2677     1.0  0.70810  0.47454  0.94142  1.0000
  H   H2678     1.0  0.85471  0.48130  0.95625  1.0000
  C   C3334     1.0  0.73374  0.45648  0.98217  1.0000
  C   C3335     1.0  0.96183  0.28490  0.66818  1.0000
  H   H2679     1.0  0.51086  0.37797  0.86916  1.0000
  C   C3336     1.0  0.53096  0.25239  0.97005  1.0000
  C   C3337     1.0  0.59236  0.24742  0.88017  1.0000
  C   C3338     1.0  0.53885  0.28619  0.85364  1.0000
  H   H2680     1.0  0.85815  0.47716  0.77923  1.0000
  C   C3339     1.0  0.51993  0.26735  0.85089  1.0000
  C   C3340     1.0  0.99140  0.44755  0.80192  1.0000
  C   C3341     1.0  0.91509  0.47984  0.67794  1.0000
  H   H2681     1.0  0.84259  0.45330  0.96939  1.0000
  H   H2682     1.0  0.86877  0.47505  0.87823  1.0000
  H   H2683     1.0  0.50467  0.30173  0.97509  1.0000
  C   C3342     1.0  0.70020  0.47765  0.93096  1.0000
  C   C3343     1.0  0.67881  0.48506  0.90497  1.0000
  H   H2684     1.0  0.99582  0.48133  0.81917  1.0000
  C   C3344     1.0  0.91217  0.48521  0.69447  1.0000
  H   H2685     1.0  0.87849  0.43050  0.65359  1.0000
  H   H2686     1.0  0.91506  0.48593  0.97970  1.0000
  H   H2687     1.0  0.83450  0.48502  0.88391  1.0000
  S   S446      1.0  0.80649  0.48536  0.91713  1.0000
  H   H2688     1.0  0.99433  0.28987  0.74233  1.0000
  C   C3345     1.0  0.95571  0.48424  0.69458  1.0000
  C   C3346     1.0  0.63359  0.48487  0.95361  1.0000
  H   H2689     1.0  0.86027  0.39889  0.65231  1.0000
  H   H2690     1.0  0.83553  0.26009  0.65219  1.0000
  C   C3347     1.0  0.89291  0.42360  0.65157  1.0000
  S   S447      1.0  0.89829  0.64124  0.30104  1.0000
  S   S448      1.0  0.95071  0.62055  0.28272  1.0000
  S   S449      1.0  0.85724  0.62065  0.30177  1.0000
  C   C3348     1.0  0.97708  0.51307  0.25058  1.0000
  C   C3349     1.0  0.92257  0.49183  0.26167  1.0000
  C   C3350     1.0  0.82622  0.49101  0.18330  1.0000
  S   S450      1.0  0.97375  0.58673  0.19801  1.0000
  C   C3351     1.0  0.96390  0.51476  0.31334  1.0000
  C   C3352     1.0  0.98321  0.52645  0.23584  1.0000
  Fe  Fe222     1.0  0.86031  0.54704  0.19688  1.0000
  S   S451      1.0  0.87792  0.52119  0.20974  1.0000
  S   S452      1.0  0.85320  0.54888  0.16959  1.0000
  Fe  Fe223     1.0  0.86015  0.56623  0.22684  1.0000
  S   S453      1.0  0.87755  0.54179  0.24185  1.0000
  S   S454      1.0  0.84746  0.59309  0.23595  1.0000
  Fe  Fe224     1.0  0.89427  0.53903  0.21363  1.0000
  S   S455      1.0  0.92534  0.52955  0.20767  1.0000
  Fe  Fe225     1.0  0.85979  0.52616  0.23670  1.0000
  C   C3353     1.0  0.82341  0.58738  0.31568  1.0000
  S   S456      1.0  0.87821  0.56470  0.19877  1.0000
  S   S457      1.0  0.84093  0.55078  0.22362  1.0000
  Fe  Fe226     1.0  0.64188  0.57194  0.00606  1.0000
  H   H2691     1.0  0.83257  0.63382  0.27791  1.0000
  S   S458      1.0  0.64983  0.57457  0.03092  1.0000
  Fe  Fe227     1.0  0.60713  0.53685  0.12917  1.0000
  S   S459      1.0  0.58434  0.53068  0.15316  1.0000
  S   S460      1.0  0.60160  0.53585  0.10273  1.0000
  Fe  Fe228     1.0  0.62982  0.54200  0.15238  1.0000
  S   S461      1.0  0.60866  0.53658  0.17847  1.0000
  S   S462      1.0  0.65563  0.54732  0.15572  1.0000
  Fe  Fe229     1.0  0.60677  0.51360  0.16752  1.0000
  Fe  Fe230     1.0  0.58825  0.55407  0.16183  1.0000
  S   S463      1.0  0.56279  0.57411  0.17173  1.0000
  S   S464      1.0  0.62954  0.51760  0.14262  1.0000
  S   S465      1.0  0.60944  0.56178  0.13660  1.0000
  S   S466      1.0  0.77770  0.53324  0.10335  1.0000
  S   S467      1.0  0.78300  0.53120  0.15487  1.0000
  S   S468      1.0  0.72925  0.53194  0.09642  1.0000
  H   H2692     1.0  0.80278  0.53406  0.01942  1.0000
  C   C3354     1.0  0.67940  0.63981  0.01817  1.0000
  H   H2693     1.0  0.61804  0.48606  0.99879  1.0000
  S   S469      1.0  0.84737  0.50317  0.25601  1.0000
  H   H2694     1.0  0.82862  0.62293  0.25259  1.0000
  H   H2695     1.0  0.52338  0.55038  0.19695  1.0000
  H   H2696     1.0  0.50965  0.50394  0.18877  1.0000
  C   C3355     1.0  0.50831  0.63863  0.04006  1.0000
  C   C3356     1.0  0.77949  0.53988  0.00695  1.0000
  S   S470      1.0  0.55971  0.68630  0.08250  1.0000
  S   S471      1.0  0.56853  0.69662  0.12443  1.0000
  C   C3357     1.0  0.54360  0.60221  0.99455  1.0000
  H   H2697     1.0  0.96117  0.71357  0.17402  1.0000
  H   H2698     1.0  0.84680  0.49847  0.03977  1.0000
  C   C3358     1.0  0.55152  0.70399  0.06548  1.0000
  C   C3359     1.0  0.55869  0.70258  0.04722  1.0000
  C   C3360     1.0  0.55217  0.71624  0.03320  1.0000
  C   C3361     1.0  0.50925  0.72284  0.18944  1.0000
  H   H2699     1.0  0.53816  0.55984  0.01843  1.0000
  H   H2700     1.0  0.56921  0.69085  0.04393  1.0000
  H   H2701     1.0  0.55800  0.71524  0.01907  1.0000
  C   C3362     1.0  0.80098  0.49255  0.03310  1.0000
  C   C3363     1.0  0.68736  0.50669  0.98892  1.0000
  H   H2702     1.0  0.57166  0.61696  0.01657  1.0000
  S   S472      1.0  0.99205  0.66957  0.30318  1.0000
  H   H2703     1.0  0.54429  0.57772  0.98648  1.0000
  C   C3364     1.0  0.56806  0.59537  0.16863  1.0000
  C   C3365     1.0  0.55394  0.61109  0.16897  1.0000
  C   C3366     1.0  0.55817  0.62823  0.16573  1.0000
  C   C3367     1.0  0.57653  0.62959  0.16258  1.0000
  C   C3368     1.0  0.59052  0.61374  0.16298  1.0000
  C   C3369     1.0  0.58635  0.59670  0.16564  1.0000
  H   H2704     1.0  0.53978  0.61001  0.17162  1.0000
  H   H2705     1.0  0.54723  0.64033  0.16601  1.0000
  H   H2706     1.0  0.60459  0.61467  0.16109  1.0000
  H   H2707     1.0  0.59726  0.58455  0.16562  1.0000
  C   C3370     1.0  0.67590  0.54200  0.13937  1.0000
  C   C3371     1.0  0.69286  0.54032  0.14354  1.0000
  C   C3372     1.0  0.70930  0.53714  0.13041  1.0000
  C   C3373     1.0  0.70878  0.53594  0.11297  1.0000
  C   C3374     1.0  0.69180  0.53763  0.10876  1.0000
  C   C3375     1.0  0.67533  0.54041  0.12204  1.0000
  H   H2708     1.0  0.69328  0.54156  0.15694  1.0000
  H   H2709     1.0  0.72233  0.53601  0.13369  1.0000
  H   H2710     1.0  0.69150  0.53644  0.09534  1.0000
  H   H2711     1.0  0.66224  0.54160  0.11883  1.0000
  C   C3376     1.0  0.63614  0.56444  0.05105  1.0000
  C   C3377     1.0  0.62542  0.55314  0.05014  1.0000
  C   C3378     1.0  0.61435  0.54509  0.06607  1.0000
  C   C3379     1.0  0.61445  0.54765  0.08310  1.0000
  C   C3380     1.0  0.62516  0.55896  0.08417  1.0000
  C   C3381     1.0  0.63589  0.56755  0.06807  1.0000
  H   H2712     1.0  0.62611  0.55002  0.03726  1.0000
  H   H2713     1.0  0.60614  0.53639  0.06527  1.0000
  H   H2714     1.0  0.62528  0.56086  0.09736  1.0000
  H   H2715     1.0  0.64402  0.57647  0.06876  1.0000
  C   C3382     1.0  0.55787  0.65396  0.04555  1.0000
  Fe  Fe231     1.0  0.75439  0.51920  0.10862  1.0000
  C   C3383     1.0  0.51448  0.62152  0.05090  1.0000
  C   C3384     1.0  0.83385  0.54295  0.16625  1.0000
  C   C3385     1.0  0.81686  0.54464  0.17880  1.0000
  C   C3386     1.0  0.80147  0.54118  0.17496  1.0000
  C   C3387     1.0  0.80296  0.53541  0.15884  1.0000
  C   C3388     1.0  0.82005  0.53339  0.14643  1.0000
  C   C3389     1.0  0.83529  0.53745  0.14999  1.0000
  H   H2716     1.0  0.81546  0.54905  0.19126  1.0000
  H   H2717     1.0  0.78833  0.54286  0.18464  1.0000
  H   H2718     1.0  0.82142  0.52908  0.13392  1.0000
  H   H2719     1.0  0.84825  0.53644  0.14002  1.0000
  C   C3390     1.0  0.96044  0.57085  0.20011  1.0000
  C   C3391     1.0  0.96879  0.55311  0.19757  1.0000
  C   C3392     1.0  0.95788  0.54056  0.19993  1.0000
  C   C3393     1.0  0.93856  0.54574  0.20457  1.0000
  C   C3394     1.0  0.93018  0.56360  0.20673  1.0000
  C   C3395     1.0  0.94113  0.57608  0.20449  1.0000
  H   H2720     1.0  0.98366  0.54903  0.19385  1.0000
  H   H2721     1.0  0.96443  0.52680  0.19815  1.0000
  H   H2722     1.0  0.91529  0.56774  0.21023  1.0000
  H   H2723     1.0  0.93465  0.58974  0.20646  1.0000
  H   H2724     1.0  0.52998  0.66376  0.08801  1.0000
  C   C3396     1.0  0.52445  0.58193  0.15013  1.0000
  H   H2725     1.0  0.50078  0.68200  0.12170  1.0000
  C   C3397     1.0  0.91846  0.68834  0.29105  1.0000
  H   H2726     1.0  0.54252  0.62441  0.00633  1.0000
  C   C3398     1.0  0.51000  0.69523  0.04909  1.0000
  C   C3399     1.0  0.54620  0.58611  0.09784  1.0000
  H   H2727     1.0  0.86957  0.50941  0.27817  1.0000
  H   H2728     1.0  0.52767  0.54161  0.13935  1.0000
  C   C3400     1.0  0.96237  0.63428  0.28802  1.0000
  C   C3401     1.0  0.98158  0.63208  0.28202  1.0000
  C   C3402     1.0  0.51892  0.64370  0.11053  1.0000
  C   C3403     1.0  0.98101  0.65580  0.29712  1.0000
  C   C3404     1.0  0.96176  0.65842  0.30248  1.0000
  C   C3405     1.0  0.95251  0.64747  0.29827  1.0000
  Fe  Fe232     1.0  0.63129  0.54848  0.98664  1.0000
  H   H2729     1.0  0.97144  0.63093  0.19736  1.0000
  H   H2730     1.0  0.67435  0.53236  0.04719  1.0000
  C   C3406     1.0  0.85664  0.61286  0.28262  1.0000
  C   C3407     1.0  0.86879  0.59724  0.27718  1.0000
  C   C3408     1.0  0.86600  0.59053  0.26316  1.0000
  C   C3409     1.0  0.85154  0.59986  0.25416  1.0000
  C   C3410     1.0  0.83980  0.61562  0.25944  1.0000
  C   C3411     1.0  0.84212  0.62187  0.27373  1.0000
  H   H2731     1.0  0.87994  0.59006  0.28408  1.0000
  H   H2732     1.0  0.87501  0.57825  0.25926  1.0000
  C   C3412     1.0  0.53887  0.50186  0.18596  1.0000
  C   C3413     1.0  0.62409  0.57896  0.19004  1.0000
  C   C3414     1.0  0.62505  0.58577  0.20454  1.0000
  C   C3415     1.0  0.63470  0.59951  0.20110  1.0000
  C   C3416     1.0  0.64331  0.60651  0.18314  1.0000
  C   C3417     1.0  0.64211  0.59995  0.16847  1.0000
  C   C3418     1.0  0.63263  0.58599  0.17208  1.0000
  P   P111      1.0  0.65357  0.60875  0.14537  1.0000
  C   C3419     1.0  0.65045  0.63315  0.14241  1.0000
  C   C3420     1.0  0.67774  0.59738  0.14133  1.0000
  C   C3421     1.0  0.68856  0.59913  0.12338  1.0000
  C   C3422     1.0  0.70700  0.58967  0.12004  1.0000
  C   C3423     1.0  0.71483  0.57851  0.13459  1.0000
  C   C3424     1.0  0.70422  0.57676  0.15248  1.0000
  C   C3425     1.0  0.68572  0.58604  0.15587  1.0000
  C   C3426     1.0  0.66463  0.64218  0.13208  1.0000
  C   C3427     1.0  0.66173  0.66115  0.12949  1.0000
  C   C3428     1.0  0.64468  0.67122  0.13719  1.0000
  C   C3429     1.0  0.63058  0.66231  0.14764  1.0000
  C   C3430     1.0  0.63348  0.64338  0.15034  1.0000
  C   C3431     1.0  0.64281  0.60471  0.12931  1.0000
  C   C3432     1.0  0.62649  0.61651  0.12499  1.0000
  C   C3433     1.0  0.61809  0.61313  0.11283  1.0000
  C   C3434     1.0  0.62591  0.59797  0.10484  1.0000
  C   C3435     1.0  0.64193  0.58597  0.10934  1.0000
  C   C3436     1.0  0.65031  0.58926  0.12155  1.0000
  H   H2733     1.0  0.61667  0.56828  0.19263  1.0000
  H   H2734     1.0  0.61831  0.58038  0.21842  1.0000
  H   H2735     1.0  0.63550  0.60475  0.21235  1.0000
  H   H2736     1.0  0.65086  0.61705  0.18070  1.0000
  H   H2737     1.0  0.63158  0.58064  0.16104  1.0000
  H   H2738     1.0  0.68262  0.60759  0.11197  1.0000
  H   H2739     1.0  0.71523  0.59071  0.10617  1.0000
  H   H2740     1.0  0.72905  0.57095  0.13198  1.0000
  H   H2741     1.0  0.71025  0.56782  0.16370  1.0000
  H   H2742     1.0  0.67769  0.58398  0.16979  1.0000
  H   H2743     1.0  0.67794  0.63471  0.12607  1.0000
  H   H2744     1.0  0.67272  0.66805  0.12154  1.0000
  H   H2745     1.0  0.64240  0.68591  0.13513  1.0000
  H   H2746     1.0  0.61728  0.67002  0.15361  1.0000
  H   H2747     1.0  0.62232  0.63680  0.15850  1.0000
  H   H2748     1.0  0.61994  0.62819  0.13116  1.0000
  H   H2749     1.0  0.60534  0.62219  0.10989  1.0000
  H   H2750     1.0  0.61926  0.59518  0.09563  1.0000
  H   H2751     1.0  0.64750  0.57370  0.10396  1.0000
  H   H2752     1.0  0.66239  0.57947  0.12525  1.0000
  C   C3437     1.0  0.60412  0.66238  0.09454  1.0000
  C   C3438     1.0  0.61969  0.65996  0.10143  1.0000
  C   C3439     1.0  0.63711  0.65231  0.09195  1.0000
  C   C3440     1.0  0.63897  0.64721  0.07548  1.0000
  C   C3441     1.0  0.62336  0.64988  0.06830  1.0000
  C   C3442     1.0  0.60593  0.65745  0.07804  1.0000
  P   P112      1.0  0.62557  0.64417  0.04657  1.0000
  C   C3443     1.0  0.61768  0.66428  0.02998  1.0000
  C   C3444     1.0  0.64953  0.63506  0.03707  1.0000
  C   C3445     1.0  0.66113  0.64687  0.02635  1.0000
  C   C3446     1.0  0.86464  0.55787  0.31545  1.0000
  S   S473      1.0  0.76705  0.50344  0.99265  1.0000
  C   C3447     1.0  0.67481  0.60912  0.03151  1.0000
  C   C3448     1.0  0.65667  0.61611  0.03995  1.0000
  C   C3449     1.0  0.61998  0.66309  0.01172  1.0000
  C   C3450     1.0  0.76025  0.54403  0.00975  1.0000
  H   H2753     1.0  0.53057  0.58745  0.15778  1.0000
  C   C3451     1.0  0.60337  0.69656  0.02188  1.0000
  C   C3452     1.0  0.60968  0.68134  0.03482  1.0000
  C   C3453     1.0  0.61284  0.62692  0.04918  1.0000
  C   C3454     1.0  0.61573  0.61833  0.03459  1.0000
  C   C3455     1.0  0.60746  0.60387  0.03681  1.0000
  C   C3456     1.0  0.59645  0.59761  0.05365  1.0000
  C   C3457     1.0  0.59314  0.60618  0.06819  1.0000
  C   C3458     1.0  0.60130  0.62078  0.06600  1.0000
  H   H2754     1.0  0.59058  0.66820  0.10194  1.0000
  H   H2755     1.0  0.61816  0.66384  0.11425  1.0000
  H   H2756     1.0  0.64914  0.65026  0.09745  1.0000
  H   H2757     1.0  0.65258  0.64128  0.06840  1.0000
  H   H2758     1.0  0.59371  0.65979  0.07272  1.0000
  H   H2759     1.0  0.65601  0.66153  0.02408  1.0000
  P   P113      1.0  0.53848  0.61014  0.04586  1.0000
  C   C3459     1.0  0.52759  0.53684  0.19397  1.0000
  H   H2760     1.0  0.67988  0.59449  0.03308  1.0000
  H   H2761     1.0  0.64816  0.60662  0.04826  1.0000
  C   C3460     1.0  0.94874  0.70829  0.31644  1.0000
  C   C3461     1.0  0.55852  0.56959  0.09567  1.0000
  C   C3462     1.0  0.55223  0.62715  0.03965  1.0000
  H   H2762     1.0  0.50206  0.62915  0.21004  1.0000
  H   H2763     1.0  0.60814  0.68316  0.04848  1.0000
  H   H2764     1.0  0.62514  0.62199  0.02173  1.0000
  H   H2765     1.0  0.61031  0.59697  0.02564  1.0000
  H   H2766     1.0  0.59115  0.58567  0.05552  1.0000
  H   H2767     1.0  0.58470  0.60111  0.08130  1.0000
  H   H2768     1.0  0.59900  0.62665  0.07769  1.0000
  H   H2769     1.0  0.92199  0.51287  0.30841  1.0000
  H   H2770     1.0  0.51793  0.64558  0.02929  1.0000
  H   H2771     1.0  0.53243  0.72042  0.08387  1.0000
  C   C3463     1.0  0.91348  0.60894  0.23940  1.0000
  C   C3464     1.0  0.55839  0.57733  0.06332  1.0000
  H   H2772     1.0  0.94609  0.69226  0.28010  1.0000
  C   C3465     1.0  0.80133  0.49763  0.04910  1.0000
  S   S474      1.0  0.77191  0.49413  0.09868  1.0000
  C   C3466     1.0  0.54564  0.59382  0.06547  1.0000
  C   C3467     1.0  0.65546  0.50656  0.21417  1.0000
  H   H2773     1.0  0.71577  0.49644  0.01650  1.0000
  C   C3468     1.0  0.60510  0.69500  0.00398  1.0000
  C   C3469     1.0  0.56735  0.62737  0.02461  1.0000
  S   S475      1.0  0.80000  0.49404  0.12372  1.0000
  H   H2774     1.0  0.81489  0.53123  0.26417  1.0000
  C   C3470     1.0  0.69157  0.57801  0.99415  1.0000
  H   H2775     1.0  0.68821  0.64898  0.00967  1.0000
  H   H2776     1.0  0.50483  0.65106  0.11054  1.0000
  H   H2777     1.0  0.84649  0.48814  0.01252  1.0000
  C   C3471     1.0  0.86521  0.49673  0.28457  1.0000
  H   H2778     1.0  0.86981  0.50533  0.13711  1.0000
  H   H2779     1.0  0.97139  0.69386  0.20156  1.0000
  C   C3472     1.0  0.68618  0.62093  0.02062  1.0000
  H   H2780     1.0  0.98927  0.62201  0.27390  1.0000
  S   S476      1.0  0.62184  0.52219  0.99351  1.0000
  H   H2781     1.0  0.59981  0.70666  0.99402  1.0000
  C   C3473     1.0  0.82398  0.55528  0.29009  1.0000
  H   H2782     1.0  0.94599  0.65425  0.25026  1.0000
  C   C3474     1.0  0.90306  0.68499  0.28756  1.0000
  H   H2783     1.0  0.51132  0.64741  0.15164  1.0000
  C   C3475     1.0  0.86825  0.54434  0.28974  1.0000
  C   C3476     1.0  0.89507  0.54863  0.29700  1.0000
  C   C3477     1.0  0.98332  0.69143  0.25640  1.0000
  H   H2784     1.0  0.91889  0.49647  0.24837  1.0000
  C   C3478     1.0  0.66608  0.52418  0.05823  1.0000
  H   H2785     1.0  0.75403  0.54541  0.99839  1.0000
  C   C3479     1.0  0.49707  0.71169  0.04616  1.0000
  C   C3480     1.0  0.56455  0.56518  0.07843  1.0000
  C   C3481     1.0  0.64626  0.50235  0.06827  1.0000
  H   H2786     1.0  0.68849  0.49959  0.10144  1.0000
  C   C3482     1.0  0.84409  0.48835  0.18603  1.0000
  H   H2787     1.0  0.64701  0.51558  0.22318  1.0000
  H   H2788     1.0  0.58323  0.50736  0.12191  1.0000
  C   C3483     1.0  0.52286  0.55593  0.13982  1.0000
  C   C3484     1.0  0.93217  0.51592  0.31359  1.0000
  C   C3485     1.0  0.66356  0.52553  0.07634  1.0000
  H   H2789     1.0  0.99292  0.67858  0.22212  1.0000
  C   C3486     1.0  0.89612  0.51248  0.16664  1.0000
  Fe  Fe233     1.0  0.79530  0.50721  0.09533  1.0000
  C   C3487     1.0  0.71132  0.49414  0.04545  1.0000
  H   H2790     1.0  0.79720  0.50152  0.19274  1.0000
  C   C3488     1.0  0.83398  0.49687  0.03799  1.0000
  C   C3489     1.0  0.49749  0.71169  0.19050  1.0000
  C   C3490     1.0  0.95114  0.51031  0.30639  1.0000
  S   S477      1.0  0.60283  0.48708  0.18702  1.0000
  H   H2791     1.0  0.55765  0.50798  0.14912  1.0000
  C   C3491     1.0  0.87033  0.48612  0.30103  1.0000
  H   H2792     1.0  0.86059  0.51137  0.10785  1.0000
  C   C3492     1.0  0.53117  0.73280  0.05574  1.0000
  H   H2793     1.0  0.94319  0.50747  0.25380  1.0000
  H   H2794     1.0  0.89418  0.52716  0.16457  1.0000
  H   H2795     1.0  0.86862  0.51410  0.16449  1.0000
  C   C3493     1.0  0.50775  0.63711  0.16373  1.0000
  C   C3494     1.0  0.87834  0.51640  0.01052  1.0000
  C   C3495     1.0  0.52007  0.51054  0.18922  1.0000
  H   H2796     1.0  0.98619  0.67665  0.25930  1.0000
  C   C3496     1.0  0.96636  0.51785  0.26708  1.0000
  C   C3497     1.0  0.57704  0.64133  0.01963  1.0000
  C   C3498     1.0  0.57215  0.65475  0.02992  1.0000
  C   C3499     1.0  0.98850  0.63511  0.22846  1.0000
  C   C3500     1.0  0.71629  0.56552  0.01070  1.0000
  C   C3501     1.0  0.69877  0.56571  0.00859  1.0000
  P   P114      1.0  0.72440  0.55123  0.03068  1.0000
  C   C3502     1.0  0.74923  0.54609  0.02708  1.0000
  C   C3503     1.0  0.71297  0.56368  0.04863  1.0000
  C   C3504     1.0  0.72165  0.57508  0.05294  1.0000
  C   C3505     1.0  0.71252  0.58467  0.06688  1.0000
  C   C3506     1.0  0.69453  0.58329  0.07627  1.0000
  C   C3507     1.0  0.68557  0.57260  0.07146  1.0000
  C   C3508     1.0  0.69467  0.56294  0.05762  1.0000
  C   C3509     1.0  0.75773  0.54283  0.04183  1.0000
  C   C3510     1.0  0.77698  0.53897  0.03893  1.0000
  C   C3511     1.0  0.51080  0.59321  0.14080  1.0000
  C   C3512     1.0  0.65199  0.51578  0.09036  1.0000
  H   H2797     1.0  0.90983  0.54724  0.29421  1.0000
  C   C3513     1.0  0.71850  0.52926  0.03645  1.0000
  C   C3514     1.0  0.71872  0.52076  0.02258  1.0000
  C   C3515     1.0  0.71514  0.50324  0.02714  1.0000
  C   C3516     1.0  0.99394  0.69999  0.26190  1.0000
  C   C3517     1.0  0.71122  0.50249  0.05926  1.0000
  C   C3518     1.0  0.71505  0.51985  0.05481  1.0000
  H   H2798     1.0  0.55647  0.53520  0.19135  1.0000
  H   H2799     1.0  0.66988  0.53475  0.07944  1.0000
  H   H2800     1.0  0.67811  0.57804  0.99253  1.0000
  C   C3519     1.0  0.83378  0.49112  0.02250  1.0000
  H   H2801     1.0  0.69052  0.55655  0.01820  1.0000
  H   H2802     1.0  0.73548  0.57651  0.04565  1.0000
  H   H2803     1.0  0.71950  0.59301  0.07050  1.0000
  H   H2804     1.0  0.68752  0.59044  0.08725  1.0000
  H   H2805     1.0  0.67165  0.57159  0.07858  1.0000
  H   H2806     1.0  0.68739  0.55500  0.05385  1.0000
  H   H2807     1.0  0.74957  0.54308  0.05562  1.0000
  H   H2808     1.0  0.78349  0.53654  0.05035  1.0000
  C   C3520     1.0  0.91918  0.68457  0.25607  1.0000
  H   H2809     1.0  0.72206  0.52747  0.00828  1.0000
  C   C3521     1.0  0.93648  0.49804  0.26487  1.0000
  C   C3522     1.0  0.57957  0.52453  0.05205  1.0000
  C   C3523     1.0  0.90935  0.49864  0.00249  1.0000
  H   H2810     1.0  0.71563  0.52579  0.06569  1.0000
  H   H2811     1.0  0.95341  0.54023  0.28102  1.0000
  C   C3524     1.0  0.53997  0.59983  0.02714  1.0000
  C   C3525     1.0  0.54196  0.61020  0.00914  1.0000
  H   H2812     1.0  0.56660  0.53335  0.04948  1.0000
  C   C3526     1.0  0.50155  0.61266  0.06428  1.0000
  C   C3527     1.0  0.91272  0.50098  0.17020  1.0000
  C   C3528     1.0  0.93034  0.59391  0.26352  1.0000
  C   C3529     1.0  0.92540  0.57764  0.26484  1.0000
  C   C3530     1.0  0.91490  0.57680  0.25321  1.0000
  H   H2813     1.0  0.93880  0.59445  0.27227  1.0000
  H   H2814     1.0  0.92985  0.56571  0.27480  1.0000
  H   H2815     1.0  0.91142  0.56408  0.25389  1.0000
  H   H2816     1.0  0.89958  0.51231  0.02516  1.0000
  H   H2817     1.0  0.98076  0.49902  0.24916  1.0000
  H   H2818     1.0  0.73948  0.57879  0.00011  1.0000
  C   C3531     1.0  0.96804  0.54949  0.25381  1.0000
  C   C3532     1.0  0.66599  0.49985  0.18378  1.0000
  H   H2819     1.0  0.83433  0.58988  0.30373  1.0000
  C   C3533     1.0  0.50413  0.67910  0.05838  1.0000
  C   C3534     1.0  0.65506  0.51135  0.19558  1.0000
  H   H2820     1.0  0.80146  0.51135  0.21883  1.0000
  S   S478      1.0  0.90841  0.59610  0.31031  1.0000
  H   H2821     1.0  0.55429  0.66421  0.05372  1.0000
  H   H2822     1.0  0.82398  0.48717  0.17186  1.0000
  H   H2823     1.0  0.82920  0.52642  0.29014  1.0000
  H   H2824     1.0  0.54529  0.60767  0.13464  1.0000
  C   C3535     1.0  0.54628  0.52829  0.19079  1.0000
  H   H2825     1.0  0.85980  0.51794  0.99400  1.0000
  H   H2826     1.0  0.89164  0.67992  0.26758  1.0000
  Fe  Fe234     1.0  0.92354  0.61892  0.30257  1.0000
  C   C3536     1.0  0.88736  0.54260  0.28607  1.0000
  H   H2827     1.0  0.53704  0.63969  0.06260  1.0000
  C   C3537     1.0  0.97025  0.63677  0.23829  1.0000
  H   H2828     1.0  0.97652  0.71155  0.30655  1.0000
  H   H2829     1.0  0.68374  0.50536  0.00363  1.0000
  S   S479      1.0  0.58228  0.65093  0.15778  1.0000
  H   H2830     1.0  0.93768  0.64940  0.30284  1.0000
  S   S480      1.0  0.53724  0.70242  0.00214  1.0000
  H   H2831     1.0  0.52459  0.69504  0.04420  1.0000
  C   C3538     1.0  0.53973  0.59820  0.08285  1.0000
  S   S481      1.0  0.61470  0.56743  0.00531  1.0000
  C   C3539     1.0  0.84636  0.49397  0.20084  1.0000
  H   H2832     1.0  0.56378  0.56037  0.10724  1.0000
  H   H2833     1.0  0.64927  0.51767  0.10422  1.0000
  H   H2834     1.0  0.57002  0.62035  0.11184  1.0000
  C   C3540     1.0  0.92441  0.60953  0.25087  1.0000
  C   C3541     1.0  0.85784  0.49942  0.11829  1.0000
  C   C3542     1.0  0.56731  0.49519  0.14757  1.0000
  C   C3543     1.0  0.54159  0.61942  0.12410  1.0000
  H   H2835     1.0  0.92832  0.62205  0.25016  1.0000
  Fe  Fe235     1.0  0.78049  0.51892  0.13228  1.0000
  P   P115      1.0  0.83253  0.55182  0.31054  1.0000
  C   C3544     1.0  0.84862  0.48784  0.11521  1.0000
  H   H2836     1.0  0.57943  0.66575  0.02577  1.0000
  C   C3545     1.0  0.68927  0.49324  0.11550  1.0000
  S   S482      1.0  0.52442  0.71112  0.12296  1.0000
  C   C3546     1.0  0.90882  0.59243  0.24061  1.0000
  H   H2837     1.0  0.94550  0.61568  0.21139  1.0000
  S   S483      1.0  0.75530  0.50706  0.13824  1.0000
  H   H2838     1.0  0.91835  0.68909  0.30482  1.0000
  H   H2839     1.0  0.91939  0.68274  0.24268  1.0000
  C   C3547     1.0  0.65729  0.51284  0.05416  1.0000
  C   C3548     1.0  0.85460  0.49070  0.27636  1.0000
  C   C3549     1.0  0.99096  0.64254  0.28691  1.0000
  C   C3550     1.0  0.88358  0.48616  0.16980  1.0000
  H   H2840     1.0  0.80256  0.56255  0.24810  1.0000
  H   H2841     1.0  0.58835  0.64178  0.00769  1.0000
  H   H2842     1.0  0.87847  0.49078  0.30738  1.0000
  C   C3551     1.0  0.51449  0.52798  0.19315  1.0000
  C   C3552     1.0  0.98963  0.55041  0.30905  1.0000
  Fe  Fe236     1.0  0.88289  0.61857  0.31152  1.0000
  C   C3553     1.0  0.70500  0.49213  0.12166  1.0000
  C   C3554     1.0  0.95994  0.65358  0.24224  1.0000
  H   H2843     1.0  0.97859  0.51072  0.30799  1.0000
  H   H2844     1.0  0.53479  0.57395  0.04433  1.0000
  H   H2845     1.0  0.52259  0.71685  0.19295  1.0000
  H   H2846     1.0  0.95157  0.58210  0.29917  1.0000
  H   H2847     1.0  0.98349  0.55498  0.22622  1.0000
  C   C3555     1.0  0.94742  0.70521  0.22069  1.0000
  C   C3556     1.0  0.53928  0.57389  0.01587  1.0000
  C   C3557     1.0  0.66681  0.49020  0.22106  1.0000
  C   C3558     1.0  0.85678  0.55192  0.30447  1.0000
  C   C3559     1.0  0.59745  0.50230  0.07270  1.0000
  H   H2848     1.0  0.56846  0.51407  0.08052  1.0000
  C   C3560     1.0  0.55577  0.62661  0.11113  1.0000
  C   C3561     1.0  0.96788  0.66893  0.23634  1.0000
  H   H2849     1.0  0.84420  0.49085  0.10239  1.0000
  H   H2850     1.0  0.96606  0.66471  0.19146  1.0000
  C   C3562     1.0  0.55157  0.64222  0.09776  1.0000
  C   C3563     1.0  0.96903  0.70187  0.24755  1.0000
  H   H2851     1.0  0.90055  0.59145  0.23188  1.0000
  H   H2852     1.0  0.95397  0.66853  0.31048  1.0000
  C   C3564     1.0  0.78786  0.53757  0.02148  1.0000
  C   C3565     1.0  0.96297  0.57510  0.30577  1.0000
  C   C3566     1.0  0.94282  0.63044  0.20876  1.0000
  C   C3567     1.0  0.58172  0.49488  0.13201  1.0000
  H   H2853     1.0  0.92369  0.50677  0.17090  1.0000
  C   C3568     1.0  0.90343  0.68303  0.27009  1.0000
  H   H2854     1.0  0.87584  0.65765  0.21001  1.0000
  H   H2855     1.0  0.84902  0.67791  0.22557  1.0000
  C   C3569     1.0  0.95759  0.63910  0.20076  1.0000
  H   H2856     1.0  0.53046  0.61111  0.08478  1.0000
  C   C3570     1.0  0.95266  0.71490  0.18747  1.0000
  P   P116      1.0  0.50481  0.61753  0.13999  1.0000
  H   H2857     1.0  0.86241  0.53956  0.28128  1.0000
  C   C3571     1.0  0.58061  0.51360  0.06946  1.0000
  C   C3572     1.0  0.87393  0.65685  0.22454  1.0000
  C   C3573     1.0  0.85878  0.66843  0.23328  1.0000
  C   C3574     1.0  0.93418  0.69001  0.27703  1.0000
  H   H2858     1.0  0.51414  0.66647  0.06072  1.0000
  C   C3575     1.0  0.97479  0.55933  0.30066  1.0000
  H   H2859     1.0  0.97266  0.55412  0.29007  1.0000
  H   H2860     1.0  0.66555  0.50402  0.16940  1.0000
  H   H2861     1.0  0.59475  0.53300  0.02454  1.0000
  P   P117      1.0  0.95925  0.50039  0.28637  1.0000
  H   H2862     1.0  0.54194  0.58960  0.11114  1.0000
  C   C3576     1.0  0.96504  0.72097  0.24501  1.0000
  H   H2863     1.0  0.57454  0.55258  0.07671  1.0000
  P   P118      1.0  0.95473  0.69084  0.24116  1.0000
  C   C3577     1.0  0.61333  0.50167  0.05845  1.0000
  C   C3578     1.0  0.88637  0.64416  0.23454  1.0000
  P   P119      1.0  0.90586  0.62921  0.22313  1.0000
  C   C3579     1.0  0.92477  0.64071  0.21318  1.0000
  H   H2864     1.0  0.80535  0.58922  0.25777  1.0000
  C   C3580     1.0  0.97874  0.54460  0.23754  1.0000
  Fe  Fe237     1.0  0.56019  0.67350  0.14690  1.0000
  C   C3581     1.0  0.53316  0.65095  0.09765  1.0000
  C   C3582     1.0  0.64320  0.50435  0.08636  1.0000
  H   H2865     1.0  0.86797  0.52452  0.01947  1.0000
  C   C3583     1.0  0.54254  0.58399  0.99787  1.0000
  C   C3584     1.0  0.96171  0.53618  0.26852  1.0000
  C   C3585     1.0  0.85604  0.66757  0.25202  1.0000
  C   C3586     1.0  0.95452  0.65810  0.19743  1.0000
  Fe  Fe238     1.0  0.54340  0.71432  0.13852  1.0000
  H   H2866     1.0  0.84414  0.67629  0.25890  1.0000
  H   H2867     1.0  0.65888  0.51257  0.03994  1.0000
  H   H2868     1.0  0.62454  0.51339  0.03031  1.0000
  H   H2869     1.0  0.96480  0.56362  0.25490  1.0000
  H   H2870     1.0  0.59680  0.70954  0.02583  1.0000
  H   H2871     1.0  0.56257  0.64801  0.08796  1.0000
  H   H2872     1.0  0.64631  0.52407  0.19026  1.0000
  C   C3587     1.0  0.93463  0.68822  0.25943  1.0000
  H   H2873     1.0  0.78879  0.50001  0.05940  1.0000
  C   C3588     1.0  0.93081  0.71846  0.22216  1.0000
  C   C3589     1.0  0.86301  0.49594  0.13502  1.0000
  Fe  Fe239     1.0  0.51955  0.68739  0.14606  1.0000
  Fe  Fe240     1.0  0.54896  0.69127  0.11100  1.0000
  C   C3590     1.0  0.88355  0.64345  0.25336  1.0000
  H   H2874     1.0  0.92608  0.62220  0.18645  1.0000
  C   C3591     1.0  0.86848  0.65518  0.26200  1.0000
  C   C3592     1.0  0.89941  0.62292  0.20540  1.0000
  H   H2875     1.0  0.59815  0.49440  0.08639  1.0000
  H   H2876     1.0  0.62675  0.65048  0.00721  1.0000
  C   C3593     1.0  0.50236  0.62695  0.19677  1.0000
  C   C3594     1.0  0.80978  0.57555  0.26543  1.0000
  C   C3595     1.0  0.53059  0.56347  0.14946  1.0000
  S   S484      1.0  0.81927  0.50679  0.07084  1.0000
  C   C3596     1.0  0.49785  0.61128  0.19546  1.0000
  Fe  Fe241     1.0  0.51402  0.70689  0.98830  1.0000
  S   S485      1.0  0.53704  0.69163  0.16257  1.0000
  H   H2877     1.0  0.63365  0.49755  0.09729  1.0000
  C   C3597     1.0  0.93660  0.66845  0.20194  1.0000
  H   H2878     1.0  0.89265  0.63367  0.26157  1.0000
  H   H2879     1.0  0.86618  0.65423  0.27662  1.0000
  C   C3598     1.0  0.92175  0.65981  0.20974  1.0000
  C   C3599     1.0  0.91226  0.62006  0.18909  1.0000
  H   H2880     1.0  0.78786  0.53817  0.99356  1.0000
  C   C3600     1.0  0.82341  0.54025  0.28375  1.0000
  C   C3601     1.0  0.80838  0.56053  0.25988  1.0000
  H   H2881     1.0  0.81860  0.58489  0.28420  1.0000
  C   C3602     1.0  0.94127  0.49229  0.28210  1.0000
  C   C3603     1.0  0.98633  0.66709  0.22655  1.0000
  C   C3604     1.0  0.89613  0.50946  0.01377  1.0000
  C   C3605     1.0  0.53771  0.58186  0.03049  1.0000
  C   C3606     1.0  0.61228  0.51305  0.04120  1.0000
  H   H2882     1.0  0.87194  0.62065  0.22132  1.0000
  H   H2883     1.0  0.90800  0.66806  0.21303  1.0000
  C   C3607     1.0  0.88188  0.61921  0.20857  1.0000
  C   C3608     1.0  0.52301  0.62752  0.12356  1.0000
  C   C3609     1.0  0.81751  0.57298  0.28047  1.0000
  H   H2884     1.0  0.54153  0.55512  0.15632  1.0000
  H   H2885     1.0  0.91778  0.61089  0.16394  1.0000
  C   C3610     1.0  0.90762  0.61360  0.17622  1.0000
  H   H2886     1.0  0.93416  0.68316  0.19932  1.0000
  H   H2887     1.0  0.70017  0.61541  0.01396  1.0000
  H   H2888     1.0  0.89106  0.68335  0.29862  1.0000
  C   C3611     1.0  0.99000  0.71898  0.25921  1.0000
  C   C3612     1.0  0.59542  0.52433  0.03799  1.0000
  C   C3613     1.0  0.89012  0.61003  0.17947  1.0000
  C   C3614     1.0  0.87724  0.61293  0.19559  1.0000
  S   S486      1.0  0.54210  0.66708  0.13258  1.0000
  H   H2889     1.0  0.56424  0.57412  0.04989  1.0000
  H   H2890     1.0  0.96420  0.62487  0.24314  1.0000
  C   C3615     1.0  0.55189  0.51095  0.18670  1.0000
  C   C3616     1.0  0.81784  0.50002  0.05145  1.0000
  H   H2891     1.0  0.71648  0.49753  0.11235  1.0000
  C   C3617     1.0  0.53793  0.71921  0.06979  1.0000
  H   H2892     1.0  0.89615  0.53647  0.27480  1.0000
  C   C3618     1.0  0.54805  0.64013  0.05047  1.0000
  H   H2893     1.0  0.86380  0.60974  0.19834  1.0000
  H   H2894     1.0  0.88664  0.60463  0.16971  1.0000
  C   C3619     1.0  0.81534  0.54289  0.26893  1.0000
  C   C3620     1.0  0.88162  0.50508  0.16659  1.0000
  C   C3621     1.0  0.95841  0.70368  0.20320  1.0000
  C   C3622     1.0  0.50902  0.56692  0.13075  1.0000
  C   C3623     1.0  0.83102  0.50217  0.21264  1.0000
  Fe  Fe242     1.0  0.53037  0.73288  0.99819  1.0000
  H   H2895     1.0  0.70848  0.49537  0.07338  1.0000
  C   C3624     1.0  0.61367  0.67836  0.99886  1.0000
  H   H2896     1.0  0.92308  0.49307  0.00517  1.0000
  H   H2897     1.0  0.94896  0.70327  0.30470  1.0000
  C   C3625     1.0  0.81329  0.50468  0.20988  1.0000
  P   P120      1.0  0.63518  0.48758  0.06275  1.0000
  C   C3626     1.0  0.87377  0.51265  0.99593  1.0000
  C   C3627     1.0  0.50306  0.58550  0.13114  1.0000
  H   H2898     1.0  0.50191  0.72402  0.03897  1.0000
  H   H2899     1.0  0.66718  0.48651  0.23546  1.0000
  H   H2900     1.0  0.51053  0.65215  0.18192  1.0000
  C   C3628     1.0  0.81730  0.48918  0.01983  1.0000
  H   H2901     1.0  0.56643  0.50455  0.18421  1.0000
  C   C3629     1.0  0.53814  0.73112  0.03749  1.0000
  H   H2902     1.0  0.85995  0.49206  0.20334  1.0000
  H   H2903     1.0  0.50593  0.59920  0.07234  1.0000
  H   H2904     1.0  0.92229  0.72027  0.23547  1.0000
  H   H2905     1.0  0.71535  0.49126  0.17460  1.0000
  C   C3630     1.0  0.81090  0.49904  0.19525  1.0000
  C   C3631     1.0  0.92509  0.72962  0.20640  1.0000
  C   C3632     1.0  0.88372  0.55632  0.31165  1.0000
  H   H2906     1.0  0.81545  0.61544  0.31796  1.0000
  H   H2907     1.0  0.83291  0.50674  0.22385  1.0000
  H   H2908     1.0  0.78820  0.49100  0.03119  1.0000
  C   C3633     1.0  0.97552  0.72947  0.25080  1.0000
  C   C3634     1.0  0.93598  0.72781  0.18907  1.0000
  H   H2909     1.0  0.71491  0.50990  0.98603  1.0000
  H   H2910     1.0  0.50171  0.69700  0.19475  1.0000
  C   C3635     1.0  0.90479  0.49477  0.98795  1.0000
  C   C3636     1.0  0.49836  0.60846  0.17828  1.0000
  C   C3637     1.0  0.72622  0.57819  0.99845  1.0000
  C   C3638     1.0  0.96451  0.71299  0.31761  1.0000
  H   H2911     1.0  0.50301  0.56107  0.12327  1.0000
  C   C3639     1.0  0.50720  0.63989  0.18093  1.0000
  H   H2912     1.0  0.49999  0.53464  0.19563  1.0000
  H   H2913     1.0  0.95373  0.72932  0.23877  1.0000
  S   S487      1.0  0.65855  0.55092  0.98973  1.0000
  C   C3640     1.0  0.50368  0.62121  0.16226  1.0000
  H   H2914     1.0  0.99150  0.52279  0.22311  1.0000
  C   C3641     1.0  0.67447  0.48636  0.12760  1.0000
  H   H2915     1.0  0.66234  0.48698  0.12288  1.0000
  H   H2916     1.0  0.66114  0.50325  0.98742  1.0000
  H   H2917     1.0  0.61529  0.67733  0.98486  1.0000
  H   H2918     1.0  0.97051  0.70240  0.52001  1.0000
  H   H2919     1.0  0.92083  0.71637  0.35707  1.0000
  S   S488      1.0  0.91289  0.57326  0.36123  1.0000
  C   C3642     1.0  0.98135  0.57365  0.32707  1.0000
  H   H2920     1.0  0.96753  0.61043  0.50244  1.0000
  C   C3643     1.0  0.98060  0.61320  0.57922  1.0000
  H   H2921     1.0  0.88090  0.56423  0.40874  1.0000
  C   C3644     1.0  0.99367  0.71247  0.59513  1.0000
  C   C3645     1.0  0.98376  0.55439  0.44708  1.0000
  C   C3646     1.0  0.95821  0.60414  0.51412  1.0000
  H   H2922     1.0  0.96726  0.67929  0.43821  1.0000
  C   C3647     1.0  0.98506  0.48960  0.35583  1.0000
  C   C3648     1.0  0.90516  0.58388  0.61430  1.0000
  S   S489      1.0  0.86452  0.51543  0.37548  1.0000
  C   C3649     1.0  0.99455  0.68036  0.37737  1.0000
  C   C3650     1.0  0.82974  0.52969  0.32463  1.0000
  H   H2923     1.0  0.98416  0.64449  0.41265  1.0000
  C   C3651     1.0  0.97741  0.68607  0.45803  1.0000
  P   P121      1.0  0.98382  0.59526  0.64356  1.0000
  C   C3652     1.0  0.88243  0.56256  0.35974  1.0000
  H   H2924     1.0  0.95256  0.72978  0.42937  1.0000
  Fe  Fe243     1.0  0.91340  0.69924  0.57030  1.0000
  S   S490      1.0  0.93375  0.71205  0.57516  1.0000
  S   S491      1.0  0.90275  0.70771  0.54456  1.0000
  Fe  Fe244     1.0  0.90648  0.67668  0.60892  1.0000
  S   S492      1.0  0.92577  0.68784  0.61751  1.0000
  S   S493      1.0  0.89045  0.65538  0.62595  1.0000
  Fe  Fe245     1.0  0.91346  0.71496  0.60160  1.0000
  C   C3653     1.0  0.98549  0.55211  0.39996  1.0000
  Fe  Fe246     1.0  0.94454  0.68398  0.59053  1.0000
  H   H2925     1.0  0.83078  0.53177  0.41972  1.0000
  S   S494      1.0  0.89215  0.70426  0.59568  1.0000
  S   S495      1.0  0.92621  0.67086  0.58300  1.0000
  S   S496      1.0  0.93895  0.66183  0.48281  1.0000
  C   C3654     1.0  0.91334  0.69453  0.52788  1.0000
  C   C3655     1.0  0.90612  0.69877  0.51227  1.0000
  C   C3656     1.0  0.91418  0.68877  0.49856  1.0000
  C   C3657     1.0  0.92940  0.67426  0.50034  1.0000
  C   C3658     1.0  0.93682  0.66997  0.51595  1.0000
  C   C3659     1.0  0.92886  0.68026  0.52967  1.0000
  H   H2926     1.0  0.89437  0.71002  0.51061  1.0000
  H   H2927     1.0  0.90847  0.69250  0.48658  1.0000
  H   H2928     1.0  0.94880  0.65899  0.51730  1.0000
  H   H2929     1.0  0.93480  0.67747  0.54145  1.0000
  C   C3660     1.0  0.97860  0.63984  0.44203  1.0000
  Fe  Fe247     1.0  0.90584  0.59799  0.33927  1.0000
  C   C3661     1.0  0.98504  0.59130  0.43659  1.0000
  H   H2930     1.0  0.94287  0.54990  0.60617  1.0000
  H   H2931     1.0  0.92294  0.58321  0.55514  1.0000
  C   C3662     1.0  0.84154  0.53893  0.41791  1.0000
  C   C3663     1.0  0.94077  0.60251  0.54562  1.0000
  C   C3664     1.0  0.87992  0.60056  0.39125  1.0000
  H   H2932     1.0  0.80293  0.55342  0.34420  1.0000
  C   C3665     1.0  0.96964  0.63881  0.34187  1.0000
  H   H2933     1.0  0.97716  0.63473  0.47092  1.0000
  H   H2934     1.0  0.96374  0.64293  0.44363  1.0000
  P   P122      1.0  0.98982  0.69668  0.48315  1.0000
  C   C3666     1.0  0.99035  0.72207  0.39532  1.0000
  C   C3667     1.0  0.80586  0.56684  0.33839  1.0000
  C   C3668     1.0  0.97358  0.49847  0.36965  1.0000
  C   C3669     1.0  0.95452  0.49975  0.37359  1.0000
  C   C3670     1.0  0.93359  0.56316  0.60404  1.0000
  C   C3671     1.0  0.94872  0.72031  0.34718  1.0000
  H   H2935     1.0  0.98587  0.60548  0.43239  1.0000
  H   H2936     1.0  0.94553  0.50690  0.38401  1.0000
  C   C3672     1.0  0.99627  0.70556  0.35088  1.0000
  H   H2937     1.0  0.89246  0.58674  0.62441  1.0000
  C   C3673     1.0  0.90475  0.67481  0.38470  1.0000
  H   H2938     1.0  0.91486  0.61705  0.62189  1.0000
  H   H2939     1.0  0.96682  0.53933  0.39454  1.0000
  H   H2940     1.0  0.90757  0.62153  0.40177  1.0000
  C   C3674     1.0  0.90946  0.59726  0.59861  1.0000
  C   C3675     1.0  0.89937  0.55732  0.36501  1.0000
  C   C3676     1.0  0.90565  0.53913  0.37336  1.0000
  C   C3677     1.0  0.89536  0.52607  0.37584  1.0000
  C   C3678     1.0  0.87821  0.53137  0.37101  1.0000
  C   C3679     1.0  0.93296  0.71562  0.34595  1.0000
  H   H2941     1.0  0.98013  0.65530  0.36720  1.0000
  H   H2942     1.0  0.91873  0.53504  0.37749  1.0000
  H   H2943     1.0  0.90043  0.51200  0.38203  1.0000
  H   H2944     1.0  0.97492  0.65114  0.33708  1.0000
  H   H2945     1.0  0.78570  0.62747  0.43646  1.0000
  C   C3680     1.0  0.93424  0.57678  0.39751  1.0000
  C   C3681     1.0  0.91974  0.56981  0.41002  1.0000
  C   C3682     1.0  0.91400  0.57354  0.42758  1.0000
  C   C3683     1.0  0.92289  0.58418  0.43264  1.0000
  C   C3684     1.0  0.93748  0.59133  0.42005  1.0000
  C   C3685     1.0  0.94322  0.58738  0.40250  1.0000
  P   P123      1.0  0.95063  0.60287  0.42730  1.0000
  C   C3686     1.0  0.93620  0.61443  0.44528  1.0000
  C   C3687     1.0  0.96947  0.58596  0.43566  1.0000
  H   H2946     1.0  0.92217  0.65399  0.63930  1.0000
  Fe  Fe248     1.0  0.88191  0.48835  0.37008  1.0000
  C   C3688     1.0  0.95780  0.52462  0.32724  1.0000
  H   H2947     1.0  0.95804  0.49904  0.41964  1.0000
  C   C3689     1.0  0.96883  0.56740  0.44119  1.0000
  C   C3690     1.0  0.91824  0.62434  0.44396  1.0000
  C   C3691     1.0  0.90735  0.63398  0.45740  1.0000
  C   C3692     1.0  0.91428  0.63385  0.47223  1.0000
  C   C3693     1.0  0.93199  0.62381  0.47382  1.0000
  C   C3694     1.0  0.94293  0.61412  0.46044  1.0000
  C   C3695     1.0  0.95966  0.61956  0.40800  1.0000
  C   C3696     1.0  0.97707  0.61456  0.39667  1.0000
  H   H2948     1.0  0.94004  0.66674  0.65010  1.0000
  P   P124      1.0  0.98525  0.72435  0.33520  1.0000
  C   C3697     1.0  0.95701  0.65053  0.38963  1.0000
  C   C3698     1.0  0.94956  0.63764  0.40415  1.0000
  H   H2949     1.0  0.93853  0.57376  0.38395  1.0000
  H   H2950     1.0  0.91297  0.56161  0.40591  1.0000
  H   H2951     1.0  0.90265  0.56819  0.43723  1.0000
  H   H2952     1.0  0.91853  0.58660  0.44643  1.0000
  H   H2953     1.0  0.95483  0.59216  0.39276  1.0000
  C   C3699     1.0  0.98999  0.67983  0.57299  1.0000
  S   S497      1.0  0.89688  0.66572  0.33866  1.0000
  C   C3700     1.0  0.97748  0.70663  0.60496  1.0000
  C   C3701     1.0  0.79760  0.61662  0.43887  1.0000
  H   H2954     1.0  0.95705  0.56280  0.44064  1.0000
  H   H2955     1.0  0.91282  0.62515  0.43224  1.0000
  H   H2956     1.0  0.89371  0.64205  0.45603  1.0000
  H   H2957     1.0  0.90610  0.64191  0.48228  1.0000
  H   H2958     1.0  0.93737  0.62413  0.48518  1.0000
  H   H2959     1.0  0.95673  0.60683  0.46183  1.0000
  H   H2960     1.0  0.93236  0.49275  0.36724  1.0000
  C   C3702     1.0  0.83381  0.62867  0.36222  1.0000
  C   C3703     1.0  0.98079  0.62241  0.33758  1.0000
  H   H2961     1.0  0.94915  0.66447  0.38676  1.0000
  H   H2962     1.0  0.93594  0.64200  0.41222  1.0000
  C   C3704     1.0  0.96146  0.70963  0.51069  1.0000
  H   H2963     1.0  0.78779  0.61085  0.46821  1.0000
  C   C3705     1.0  0.96664  0.72865  0.42181  1.0000
  C   C3706     1.0  0.94494  0.62347  0.35880  1.0000
  C   C3707     1.0  0.95597  0.60707  0.35434  1.0000
  H   H2964     1.0  0.96963  0.55551  0.36231  1.0000
  H   H2965     1.0  0.97817  0.69265  0.61249  1.0000
  C   C3708     1.0  0.84274  0.49972  0.34111  1.0000
  H   H2966     1.0  0.98506  0.60073  0.39903  1.0000
  C   C3709     1.0  0.91732  0.56692  0.61714  1.0000
  H   H2967     1.0  0.83627  0.59004  0.34859  1.0000
  H   H2968     1.0  0.93989  0.72036  0.53189  1.0000
  C   C3710     1.0  0.99011  0.64090  0.42457  1.0000
  C   C3711     1.0  0.99037  0.65977  0.49867  1.0000
  H   H2969     1.0  0.91152  0.52987  0.33327  1.0000
  H   H2970     1.0  0.88265  0.62162  0.42993  1.0000
  H   H2971     1.0  0.99462  0.62234  0.32949  1.0000
  C   C3712     1.0  0.93898  0.53043  0.33406  1.0000
  C   C3713     1.0  0.98622  0.63515  0.45744  1.0000
  C   C3714     1.0  0.98443  0.62743  0.38213  1.0000
  H   H2972     1.0  0.93096  0.62403  0.36679  1.0000
  H   H2973     1.0  0.95040  0.59492  0.35895  1.0000
  C   C3715     1.0  0.95314  0.61032  0.53048  1.0000
  H   H2974     1.0  0.87757  0.67683  0.55465  1.0000
  H   H2975     1.0  0.89205  0.65979  0.52979  1.0000
  H   H2976     1.0  0.93229  0.57214  0.52634  1.0000
  C   C3716     1.0  0.96568  0.60715  0.57785  1.0000
  C   C3717     1.0  0.85974  0.52915  0.41738  1.0000
  C   C3718     1.0  0.93296  0.70965  0.33055  1.0000
  C   C3719     1.0  0.95191  0.48797  0.42873  1.0000
  C   C3720     1.0  0.90604  0.64138  0.57680  1.0000
  C   C3721     1.0  0.82828  0.58862  0.44512  1.0000
  H   H2977     1.0  0.86995  0.65231  0.40459  1.0000
  C   C3722     1.0  0.90647  0.67415  0.36636  1.0000
  H   H2978     1.0  0.88792  0.53077  0.41365  1.0000
  H   H2979     1.0  0.91524  0.63125  0.53468  1.0000
  C   C3723     1.0  0.89166  0.66678  0.39857  1.0000
  H   H2980     1.0  0.98640  0.67198  0.38819  1.0000
  C   C3724     1.0  0.95395  0.63722  0.56096  1.0000
  C   C3725     1.0  0.95209  0.61917  0.56879  1.0000
  C   C3726     1.0  0.89246  0.65735  0.57401  1.0000
  H   H2981     1.0  0.83238  0.64324  0.35695  1.0000
  H   H2982     1.0  0.84140  0.57619  0.37959  1.0000
  H   H2983     1.0  0.84010  0.57774  0.44774  1.0000
  C   C3727     1.0  0.92624  0.59396  0.58577  1.0000
  C   C3728     1.0  0.84438  0.51746  0.33194  1.0000
  C   C3729     1.0  0.94705  0.49142  0.36437  1.0000
  H   H2984     1.0  0.95505  0.71124  0.64580  1.0000
  C   C3730     1.0  0.89556  0.65429  0.54310  1.0000
  H   H2985     1.0  0.87383  0.65018  0.37239  1.0000
  C   C3731     1.0  0.96870  0.64330  0.56260  1.0000
  C   C3732     1.0  0.95165  0.63941  0.35224  1.0000
  C   C3733     1.0  0.93794  0.57653  0.58835  1.0000
  C   C3734     1.0  0.90886  0.63809  0.54597  1.0000
  C   C3735     1.0  0.89834  0.64256  0.64579  1.0000
  P   P125      1.0  0.93294  0.61165  0.56613  1.0000
  C   C3736     1.0  0.81410  0.59324  0.45989  1.0000
  H   H2986     1.0  0.92080  0.70585  0.32966  1.0000
  C   C3737     1.0  0.86973  0.55738  0.41167  1.0000
  H   H2987     1.0  0.98330  0.66002  0.48835  1.0000
  C   C3738     1.0  0.79877  0.60725  0.45677  1.0000
  C   C3739     1.0  0.89497  0.60800  0.38940  1.0000
  H   H2988     1.0  0.89960  0.61010  0.59685  1.0000
  H   H2989     1.0  0.94391  0.64671  0.55367  1.0000
  C   C3740     1.0  0.89550  0.66508  0.36186  1.0000
  H   H2990     1.0  0.91040  0.63709  0.58972  1.0000
  H   H2991     1.0  0.95058  0.57332  0.57832  1.0000
  C   C3741     1.0  0.88738  0.66393  0.55710  1.0000
  H   H2992     1.0  0.96968  0.65744  0.55698  1.0000
  C   C3742     1.0  0.88259  0.65689  0.37576  1.0000
  P   P126      1.0  0.98872  0.58466  0.34048  1.0000
  H   H2993     1.0  0.86304  0.51449  0.41855  1.0000
  C   C3743     1.0  0.82725  0.59801  0.42710  1.0000
  C   C3744     1.0  0.93828  0.58265  0.52756  1.0000
  S   S498      1.0  0.92314  0.61867  0.33134  1.0000
  H   H2994     1.0  0.85599  0.60857  0.43336  1.0000
  S   S499      1.0  0.97401  0.66954  0.59071  1.0000
  C   C3745     1.0  0.87377  0.53835  0.41451  1.0000
  H   H2995     1.0  0.91406  0.55671  0.62951  1.0000
  H   H2996     1.0  0.96481  0.59321  0.58415  1.0000
  H   H2997     1.0  0.95853  0.62150  0.53109  1.0000
  S   S500      1.0  0.95753  0.71307  0.39861  1.0000
  S   S501      1.0  0.93433  0.67395  0.43018  1.0000
  H   H2998     1.0  0.88635  0.66503  0.58477  1.0000
  C   C3746     1.0  0.91423  0.63145  0.56290  1.0000
  C   C3747     1.0  0.88044  0.65808  0.39399  1.0000
  H   H2999     1.0  0.83145  0.62361  0.33718  1.0000
  S   S502      1.0  0.88914  0.66686  0.42182  1.0000
  C   C3748     1.0  0.79540  0.58133  0.34679  1.0000
  Fe  Fe249     1.0  0.92631  0.67877  0.45883  1.0000
  H   H3000     1.0  0.82323  0.56537  0.41574  1.0000
  C   C3749     1.0  0.83325  0.61760  0.35106  1.0000
  C   C3750     1.0  0.83737  0.55794  0.41549  1.0000
  H   H3001     1.0  0.91336  0.68168  0.38808  1.0000
  C   C3751     1.0  0.81176  0.61203  0.42407  1.0000
  C   C3752     1.0  0.79871  0.59888  0.33941  1.0000
  C   C3753     1.0  0.93311  0.58886  0.54393  1.0000
  P   P127      1.0  0.84594  0.59191  0.40835  1.0000
  C   C3754     1.0  0.85149  0.56732  0.41211  1.0000
  C   C3755     1.0  0.86690  0.60797  0.42118  1.0000
  H   H3002     1.0  0.93447  0.53829  0.34460  1.0000
  C   C3756     1.0  0.86575  0.60052  0.40710  1.0000
  H   H3003     1.0  0.81499  0.58594  0.47376  1.0000
  C   C3757     1.0  0.93285  0.48950  0.43242  1.0000
  H   H3004     1.0  0.85613  0.56345  0.32711  1.0000
  Fe  Fe250     1.0  0.90411  0.68346  0.43018  1.0000
  S   S503      1.0  0.89636  0.48778  0.34082  1.0000
  C   C3758     1.0  0.98424  0.69476  0.55952  1.0000
  H   H3005     1.0  0.87926  0.59495  0.38018  1.0000
  H   H3006     1.0  0.98877  0.70824  0.63914  1.0000
  H   H3007     1.0  0.96981  0.70019  0.55980  1.0000
  C   C3759     1.0  0.94757  0.59323  0.64624  1.0000
  H   H3008     1.0  0.96945  0.62444  0.61431  1.0000
  S   S504      1.0  0.89594  0.68586  0.45972  1.0000
  H   H3009     1.0  0.79913  0.50181  0.33814  1.0000
  C   C3760     1.0  0.83593  0.59871  0.35750  1.0000
  C   C3761     1.0  0.95085  0.59025  0.51268  1.0000
  H   H3010     1.0  0.81042  0.61940  0.41038  1.0000
  H   H3011     1.0  0.83860  0.62951  0.38785  1.0000
  C   C3762     1.0  0.83966  0.60187  0.38644  1.0000
  H   H3012     1.0  0.97168  0.69506  0.36526  1.0000
  H   H3013     1.0  0.95465  0.58559  0.49994  1.0000
  C   C3763     1.0  0.97560  0.54908  0.38896  1.0000
  C   C3764     1.0  0.97398  0.60642  0.34370  1.0000
  C   C3765     1.0  0.88208  0.61530  0.41935  1.0000
  C   C3766     1.0  0.97888  0.68232  0.44106  1.0000
  Fe  Fe251     1.0  0.93456  0.70385  0.42139  1.0000
  C   C3767     1.0  0.99193  0.69126  0.46142  1.0000
  S   S505      1.0  0.92933  0.70769  0.45001  1.0000
  H   H3014     1.0  0.98342  0.54003  0.45086  1.0000
  H   H3015     1.0  0.85841  0.55372  0.35940  1.0000
  H   H3016     1.0  0.96474  0.68541  0.46832  1.0000
  H   H3017     1.0  0.94294  0.65223  0.35517  1.0000
  C   C3768     1.0  0.98198  0.63133  0.57179  1.0000
  S   S506      1.0  0.98256  0.50722  0.38297  1.0000
  H   H3018     1.0  0.90569  0.60809  0.37697  1.0000
  H   H3019     1.0  0.87751  0.57659  0.35328  1.0000
  H   H3020     1.0  0.91640  0.68058  0.35565  1.0000
  C   C3769     1.0  0.83729  0.62083  0.37973  1.0000
  C   C3770     1.0  0.94424  0.72005  0.51745  1.0000
  C   C3771     1.0  0.96689  0.70878  0.49207  1.0000
  H   H3021     1.0  0.93980  0.63352  0.60510  1.0000
  C   C3772     1.0  0.83895  0.59087  0.37516  1.0000
  C   C3773     1.0  0.93234  0.72973  0.50571  1.0000
  C   C3774     1.0  0.89609  0.61535  0.40344  1.0000
  H   H3022     1.0  0.95886  0.71888  0.46584  1.0000
  C   C3775     1.0  0.94218  0.62190  0.61624  1.0000
  Fe  Fe252     1.0  0.89712  0.63986  0.33059  1.0000
  Fe  Fe253     1.0  0.89953  0.71478  0.44896  1.0000
  S   S507      1.0  0.87936  0.61915  0.34123  1.0000
  C   C3776     1.0  0.92815  0.61257  0.62564  1.0000
  S   S508      1.0  0.90479  0.71320  0.41934  1.0000
  C   C3777     1.0  0.95906  0.61666  0.62158  1.0000
  H   H3023     1.0  0.78461  0.57895  0.35893  1.0000
  C   C3778     1.0  0.97446  0.64543  0.37867  1.0000
  C   C3779     1.0  0.87168  0.54965  0.36311  1.0000
  H   H3024     1.0  0.99480  0.71713  0.38282  1.0000
  C   C3780     1.0  0.98830  0.57127  0.36341  1.0000
  C   C3781     1.0  0.96035  0.71853  0.60424  1.0000
  H   H3025     1.0  0.96766  0.52757  0.33298  1.0000
  C   C3782     1.0  0.81167  0.50626  0.33656  1.0000
  H   H3026     1.0  0.97435  0.56227  0.64019  1.0000
  C   C3783     1.0  0.95493  0.71877  0.48033  1.0000
  C   C3784     1.0  0.93768  0.72901  0.48718  1.0000
  H   H3027     1.0  0.92417  0.50189  0.42635  1.0000
  C   C3785     1.0  0.97721  0.55836  0.37066  1.0000
  C   C3786     1.0  0.99494  0.67564  0.49968  1.0000
  C   C3787     1.0  0.98618  0.69370  0.36427  1.0000
  H   H3028     1.0  0.85725  0.52131  0.33032  1.0000
  C   C3788     1.0  0.96214  0.60186  0.63628  1.0000
  C   C3789     1.0  0.81324  0.52404  0.32729  1.0000
  H   H3029     1.0  0.98496  0.54414  0.41379  1.0000
  H   H3030     1.0  0.94776  0.71390  0.61135  1.0000
  C   C3790     1.0  0.97232  0.72215  0.40562  1.0000
  H   H3031     1.0  0.91952  0.59177  0.64870  1.0000
  H   H3032     1.0  0.96756  0.65243  0.62981  1.0000
  C   C3791     1.0  0.92614  0.52582  0.32750  1.0000
  H   H3033     1.0  0.94861  0.72455  0.35942  1.0000
  C   C3792     1.0  0.98669  0.66028  0.64022  1.0000
  H   H3034     1.0  0.91642  0.48900  0.64895  1.0000
  H   H3035     1.0  0.85431  0.49021  0.34610  1.0000
  H   H3036     1.0  0.79053  0.61013  0.34580  1.0000
  C   C3793     1.0  0.82651  0.49405  0.34331  1.0000
  C   C3794     1.0  0.96466  0.71905  0.33300  1.0000
  C   C3795     1.0  0.96912  0.65934  0.63946  1.0000
  H   H3037     1.0  0.95805  0.59546  0.32129  1.0000
  H   H3038     1.0  0.99113  0.63124  0.51036  1.0000
  C   C3796     1.0  0.81988  0.56982  0.32266  1.0000
  C   C3797     1.0  0.93076  0.59835  0.64077  1.0000
  C   C3798     1.0  0.99470  0.64340  0.51122  1.0000
  C   C3799     1.0  0.99272  0.73041  0.58505  1.0000
  C   C3800     1.0  0.98862  0.73489  0.64222  1.0000
  H   H3039     1.0  0.90892  0.52183  0.64959  1.0000
  C   C3801     1.0  0.95348  0.66745  0.65102  1.0000
  H   H3040     1.0  0.80182  0.53322  0.32170  1.0000
  C   C3802     1.0  0.99618  0.56525  0.39300  1.0000
  C   C3803     1.0  0.91431  0.64482  0.64918  1.0000
  C   C3804     1.0  0.99276  0.55737  0.32240  1.0000
  H   H3041     1.0  0.99086  0.60398  0.58649  1.0000
  H   H3042     1.0  0.88971  0.56096  0.32015  1.0000
  C   C3805     1.0  0.96643  0.58247  0.31866  1.0000
  C   C3806     1.0  0.81270  0.60190  0.32380  1.0000
  H   H3043     1.0  0.99319  0.63623  0.57335  1.0000
  H   H3044     1.0  0.99279  0.71398  0.53481  1.0000
  C   C3807     1.0  0.99500  0.68323  0.42753  1.0000
  C   C3808     1.0  0.97925  0.73378  0.42831  1.0000
  H   H3045     1.0  0.98820  0.49291  0.64746  1.0000
  H   H3046     1.0  0.99571  0.68112  0.41416  1.0000
  C   C3809     1.0  0.98192  0.55847  0.65096  1.0000
  H   H3047     1.0  0.95998  0.54650  0.78755  1.0000
  H   H3048     1.0  0.81751  0.51651  0.75909  1.0000
  C   C3810     1.0  0.54195  0.66031  0.89405  1.0000
  C   C3811     1.0  0.88901  0.68147  0.66600  1.0000
  H   H3049     1.0  0.87644  0.51983  0.79838  1.0000
  C   C3812     1.0  0.82505  0.52728  0.75444  1.0000
  C   C3813     1.0  0.93022  0.71223  0.66736  1.0000
  C   C3814     1.0  0.69648  0.51095  0.95067  1.0000
  S   S509      1.0  0.91787  0.52650  0.83271  1.0000
  H   H3050     1.0  0.97838  0.50677  0.74949  1.0000
  H   H3051     1.0  0.88896  0.64932  0.70563  1.0000
  H   H3052     1.0  0.81726  0.53299  0.96828  1.0000
  H   H3053     1.0  0.97151  0.59472  0.71941  1.0000
  Fe  Fe254     1.0  0.77062  0.52127  0.96442  1.0000
  S   S510      1.0  0.76089  0.55173  0.95736  1.0000
  S   S511      1.0  0.90091  0.54067  0.67839  1.0000
  C   C3815     1.0  0.84748  0.55510  0.82899  1.0000
  C   C3816     1.0  0.78925  0.55711  0.90766  1.0000
  C   C3817     1.0  0.54681  0.65370  0.93559  1.0000
  C   C3818     1.0  0.82504  0.55908  0.75105  1.0000
  H   H3054     1.0  0.82536  0.48886  0.73895  1.0000
  Fe  Fe255     1.0  0.93728  0.54651  0.72013  1.0000
  S   S512      1.0  0.92065  0.56806  0.73578  1.0000
  C   C3819     1.0  0.86088  0.58250  0.83459  1.0000
  Fe  Fe256     1.0  0.90714  0.54981  0.70074  1.0000
  S   S513      1.0  0.88789  0.57225  0.71419  1.0000
  H   H3055     1.0  0.95620  0.57229  0.71612  1.0000
  Fe  Fe257     1.0  0.91315  0.58337  0.70900  1.0000
  S   S514      1.0  0.91672  0.61225  0.69901  1.0000
  Fe  Fe258     1.0  0.89707  0.55502  0.73982  1.0000
  S   S515      1.0  0.87717  0.54962  0.76703  1.0000
  S   S516      1.0  0.93150  0.56269  0.69310  1.0000
  S   S517      1.0  0.91440  0.53171  0.72673  1.0000
  C   C3820     1.0  0.84490  0.51673  0.96716  1.0000
  C   C3821     1.0  0.92011  0.63516  0.66538  1.0000
  C   C3822     1.0  0.85705  0.51722  0.89629  1.0000
  H   H3056     1.0  0.81018  0.52662  0.86060  1.0000
  C   C3823     1.0  0.79586  0.53852  0.90788  1.0000
  H   H3057     1.0  0.99319  0.49146  0.67807  1.0000
  C   C3824     1.0  0.90699  0.51715  0.67861  1.0000
  H   H3058     1.0  0.82039  0.57408  0.87118  1.0000
  H   H3059     1.0  0.97065  0.49690  0.85227  1.0000
  C   C3825     1.0  0.88809  0.54352  0.78552  1.0000
  C   C3826     1.0  0.89928  0.55422  0.78687  1.0000
  C   C3827     1.0  0.90785  0.54927  0.80180  1.0000
  C   C3828     1.0  0.90581  0.53325  0.81500  1.0000
  C   C3829     1.0  0.73903  0.49708  0.91381  1.0000
  C   C3830     1.0  0.88531  0.52799  0.79922  1.0000
  H   H3060     1.0  0.90106  0.56648  0.77656  1.0000
  H   H3061     1.0  0.91639  0.55763  0.80291  1.0000
  C   C3831     1.0  0.89458  0.52259  0.81364  1.0000
  H   H3062     1.0  0.88130  0.53843  0.85614  1.0000
  H   H3063     1.0  0.86559  0.59202  0.80521  1.0000
  H   H3064     1.0  0.53029  0.66408  0.90489  1.0000
  P   P128      1.0  0.85628  0.50110  0.74311  1.0000
  C   C3832     1.0  0.72475  0.54931  0.96253  1.0000
  C   C3833     1.0  0.58989  0.63101  0.92935  1.0000
  C   C3834     1.0  0.87145  0.50952  0.90554  1.0000
  C   C3835     1.0  0.88900  0.51295  0.89733  1.0000
  C   C3836     1.0  0.81130  0.53263  0.89474  1.0000
  H   H3065     1.0  0.52326  0.61941  0.95230  1.0000
  H   H3066     1.0  0.93598  0.56116  0.76965  1.0000
  H   H3067     1.0  0.85121  0.56664  0.73867  1.0000
  H   H3068     1.0  0.86790  0.53583  0.73412  1.0000
  C   C3837     1.0  0.60353  0.63782  0.96901  1.0000
  H   H3069     1.0  0.79285  0.58426  0.89408  1.0000
  C   C3838     1.0  0.70258  0.57206  0.94645  1.0000
  C   C3839     1.0  0.71655  0.58141  0.93655  1.0000
  C   C3840     1.0  0.73436  0.57510  0.94003  1.0000
  C   C3841     1.0  0.73853  0.55901  0.95297  1.0000
  C   C3842     1.0  0.62281  0.62928  0.92269  1.0000
  H   H3070     1.0  0.71345  0.59386  0.92651  1.0000
  H   H3071     1.0  0.74492  0.58270  0.93265  1.0000
  C   C3843     1.0  0.86043  0.58202  0.81687  1.0000
  C   C3844     1.0  0.89962  0.49998  0.76459  1.0000
  H   H3072     1.0  0.88716  0.61014  0.68399  1.0000
  H   H3073     1.0  0.98292  0.59465  0.76698  1.0000
  C   C3845     1.0  0.87806  0.53101  0.87018  1.0000
  H   H3074     1.0  0.84273  0.54449  0.82631  1.0000
  H   H3075     1.0  0.64054  0.50763  0.93210  1.0000
  C   C3846     1.0  0.68449  0.49922  0.90815  1.0000
  H   H3076     1.0  0.77728  0.56162  0.91792  1.0000
  C   C3847     1.0  0.55747  0.72321  0.91250  1.0000
  H   H3077     1.0  0.99037  0.53841  0.76411  1.0000
  C   C3848     1.0  0.97836  0.58048  0.72113  1.0000
  C   C3849     1.0  0.58735  0.63131  0.97366  1.0000
  S   S518      1.0  0.80094  0.50952  0.95655  1.0000
  C   C3850     1.0  0.90469  0.68753  0.66515  1.0000
  C   C3851     1.0  0.96622  0.61128  0.67349  1.0000
  C   C3852     1.0  0.57020  0.64355  0.97561  1.0000
  H   H3078     1.0  0.95812  0.64842  0.73153  1.0000
  S   S519      1.0  0.53209  0.70922  0.95995  1.0000
  C   C3853     1.0  0.58706  0.64903  0.91914  1.0000
  C   C3854     1.0  0.86043  0.51535  0.70530  1.0000
  H   H3079     1.0  0.93465  0.59275  0.75126  1.0000
  C   C3855     1.0  0.85327  0.53818  0.74037  1.0000
  H   H3080     1.0  0.61682  0.62853  0.96696  1.0000
  C   C3856     1.0  0.85603  0.50708  0.84980  1.0000
  C   C3857     1.0  0.89480  0.61973  0.67425  1.0000
  H   H3081     1.0  0.89305  0.51019  0.82367  1.0000
  H   H3082     1.0  0.94900  0.58277  0.65848  1.0000
  C   C3858     1.0  0.84398  0.52378  0.74624  1.0000
  C   C3859     1.0  0.62017  0.64718  0.91245  1.0000
  C   C3860     1.0  0.89228  0.52375  0.87969  1.0000
  C   C3861     1.0  0.75783  0.49699  0.90712  1.0000
  H   H3083     1.0  0.57532  0.71462  0.93163  1.0000
  C   C3862     1.0  0.56914  0.66213  0.97383  1.0000
  C   C3863     1.0  0.99489  0.50715  0.84887  1.0000
  C   C3864     1.0  0.95188  0.66223  0.72544  1.0000
  C   C3865     1.0  0.96956  0.55702  0.85281  1.0000
  C   C3866     1.0  0.94392  0.50223  0.78726  1.0000
  C   C3867     1.0  0.90995  0.51167  0.66212  1.0000
  H   H3084     1.0  0.81610  0.51818  0.89504  1.0000
  H   H3085     1.0  0.90603  0.52597  0.87303  1.0000
  C   C3868     1.0  0.97825  0.54922  0.72205  1.0000
  C   C3869     1.0  0.70671  0.55596  0.95943  1.0000
  H   H3086     1.0  0.63388  0.52865  0.95341  1.0000
  H   H3087     1.0  0.93454  0.51000  0.79702  1.0000
  C   C3870     1.0  0.82275  0.51736  0.85557  1.0000
  C   C3871     1.0  0.82066  0.54523  0.88156  1.0000
  H   H3088     1.0  0.97469  0.68397  0.67406  1.0000
  S   S520      1.0  0.58813  0.60800  0.97719  1.0000
  H   H3089     1.0  0.94341  0.55654  0.84827  1.0000
  C   C3872     1.0  0.57158  0.65113  0.86550  1.0000
  C   C3873     1.0  0.55350  0.65322  0.86389  1.0000
  C   C3874     1.0  0.53869  0.65785  0.87815  1.0000
  H   H3090     1.0  0.95313  0.62153  0.69801  1.0000
  C   C3875     1.0  0.57490  0.65359  0.88139  1.0000
  C   C3876     1.0  0.60770  0.62117  0.93097  1.0000
  H   H3091     1.0  0.58307  0.64762  0.85441  1.0000
  H   H3092     1.0  0.55096  0.65130  0.85158  1.0000
  C   C3877     1.0  0.95525  0.67641  0.66358  1.0000
  H   H3093     1.0  0.58901  0.65200  0.88230  1.0000
  H   H3094     1.0  0.93948  0.50763  0.92414  1.0000
  H   H3095     1.0  0.57845  0.62451  0.93639  1.0000
  C   C3878     1.0  0.86684  0.49702  0.68272  1.0000
  C   C3879     1.0  0.96422  0.55802  0.82323  1.0000
  H   H3096     1.0  0.95707  0.52435  0.77157  1.0000
  H   H3097     1.0  0.63653  0.62172  0.92442  1.0000
  Fe  Fe259     1.0  0.55470  0.70734  0.97377  1.0000
  H   H3098     1.0  0.88214  0.52567  0.93318  1.0000
  C   C3880     1.0  0.98805  0.55738  0.84478  1.0000
  P   P129      1.0  0.93504  0.68814  0.67759  1.0000
  H   H3099     1.0  0.78910  0.52862  0.91835  1.0000
  Fe  Fe260     1.0  0.65636  0.57431  0.96550  1.0000
  Fe  Fe261     1.0  0.61566  0.58925  0.97983  1.0000
  C   C3881     1.0  0.92952  0.49904  0.92851  1.0000
  C   C3882     1.0  0.82167  0.50386  0.84743  1.0000
  Fe  Fe262     1.0  0.79263  0.49004  0.94564  1.0000
  S   S521      1.0  0.64140  0.59564  0.98208  1.0000
  C   C3883     1.0  0.83996  0.51892  0.85697  1.0000
  H   H3100     1.0  0.85558  0.56951  0.86314  1.0000
  C   C3884     1.0  0.51831  0.64251  0.96446  1.0000
  C   C3885     1.0  0.97326  0.56947  0.77870  1.0000
  H   H3101     1.0  0.95475  0.55786  0.81537  1.0000
  C   C3886     1.0  0.89308  0.66036  0.69459  1.0000
  H   H3102     1.0  0.72792  0.53698  0.97264  1.0000
  H   H3103     1.0  0.90021  0.50678  0.90439  1.0000
  C   C3887     1.0  0.70480  0.50944  0.97904  1.0000
  Fe  Fe263     1.0  0.92288  0.49637  0.84513  1.0000
  H   H3104     1.0  0.54401  0.69494  0.89495  1.0000
  C   C3888     1.0  0.94590  0.56862  0.76957  1.0000
  H   H3105     1.0  0.95466  0.60557  0.67435  1.0000
  H   H3106     1.0  0.63188  0.65350  0.90611  1.0000
  C   C3889     1.0  0.88319  0.66789  0.68072  1.0000
  P   P130      1.0  0.88082  0.49591  0.96631  1.0000
  H   H3107     1.0  0.69600  0.54868  0.96707  1.0000
  H   H3108     1.0  0.61504  0.66159  0.96248  1.0000
  S   S522      1.0  0.68013  0.58117  0.94242  1.0000
  H   H3109     1.0  0.90556  0.50799  0.70767  1.0000
  C   C3890     1.0  0.85472  0.56923  0.84954  1.0000
  H   H3110     1.0  0.87134  0.51426  0.76698  1.0000
  C   C3891     1.0  0.94515  0.58642  0.75923  1.0000
  C   C3892     1.0  0.60250  0.65653  0.96653  1.0000
  H   H3111     1.0  0.50907  0.70625  0.90924  1.0000
  H   H3112     1.0  0.55582  0.67143  0.97589  1.0000
  H   H3113     1.0  0.91187  0.51390  0.94878  1.0000
  H   H3114     1.0  0.85357  0.56786  0.80030  1.0000
  C   C3893     1.0  0.81565  0.54487  0.75682  1.0000
  S   S523      1.0  0.76246  0.50325  0.95153  1.0000
  C   C3894     1.0  0.57095  0.69166  0.92433  1.0000
  H   H3115     1.0  0.90245  0.50714  0.77327  1.0000
  H   H3116     1.0  0.60970  0.60739  0.93917  1.0000
  H   H3117     1.0  0.95287  0.50047  0.73181  1.0000
  C   C3895     1.0  0.91483  0.67995  0.67898  1.0000
  C   C3896     1.0  0.99609  0.54361  0.72543  1.0000
  H   H3118     1.0  0.87652  0.62776  0.65549  1.0000
  C   C3897     1.0  0.98863  0.66905  0.65281  1.0000
  H   H3119     1.0  0.94979  0.48774  0.68263  1.0000
  C   C3898     1.0  0.90889  0.66626  0.69371  1.0000
  C   C3899     1.0  0.99572  0.53492  0.67391  1.0000
  C   C3900     1.0  0.95766  0.55728  0.84204  1.0000
  H   H3120     1.0  0.86943  0.50824  0.85056  1.0000
  C   C3901     1.0  0.90814  0.50388  0.69483  1.0000
  H   H3121     1.0  0.98018  0.53024  0.65720  1.0000
  C   C3902     1.0  0.95672  0.51024  0.77310  1.0000
  C   C3903     1.0  0.91329  0.72338  0.67400  1.0000
  H   H3122     1.0  0.95818  0.60936  0.75014  1.0000
  C   C3904     1.0  0.94801  0.67629  0.73476  1.0000
  C   C3905     1.0  0.93999  0.69407  0.72684  1.0000
  C   C3906     1.0  0.93585  0.69781  0.70956  1.0000
  C   C3907     1.0  0.52357  0.65860  0.96324  1.0000
  C   C3908     1.0  0.96881  0.50019  0.76053  1.0000
  C   C3909     1.0  0.67925  0.50744  0.96075  1.0000
  C   C3910     1.0  0.90091  0.49143  0.94813  1.0000
  H   H3123     1.0  0.96457  0.55607  0.86743  1.0000
  H   H3124     1.0  0.54629  0.61003  0.98060  1.0000
  H   H3125     1.0  0.91647  0.65979  0.70440  1.0000
  H   H3126     1.0  0.86484  0.52606  0.67618  1.0000
  C   C3911     1.0  0.63185  0.51485  0.95868  1.0000
  C   C3912     1.0  0.98803  0.57164  0.65563  1.0000
  H   H3127     1.0  0.85885  0.52858  0.70812  1.0000
  C   C3913     1.0  0.70933  0.51167  0.95999  1.0000
  H   H3128     1.0  0.53988  0.72767  0.89386  1.0000
  H   H3129     1.0  0.93212  0.63743  0.66822  1.0000
  H   H3130     1.0  0.95123  0.67340  0.74813  1.0000
  H   H3131     1.0  0.93701  0.70496  0.73408  1.0000
  H   H3132     1.0  0.92981  0.71168  0.70365  1.0000
  C   C3914     1.0  0.88874  0.62976  0.65819  1.0000
  C   C3915     1.0  0.85362  0.56841  0.81411  1.0000
  C   C3916     1.0  0.84382  0.55573  0.74281  1.0000
  H   H3133     1.0  0.84375  0.51402  0.90294  1.0000
  C   C3917     1.0  0.56217  0.68583  0.91407  1.0000
  C   C3918     1.0  0.95972  0.56026  0.77948  1.0000
  C   C3919     1.0  0.55108  0.69896  0.90291  1.0000
  H   H3134     1.0  0.72282  0.51403  0.95269  1.0000
  P   P131      1.0  0.84185  0.53714  0.86600  1.0000
  H   H3135     1.0  0.86636  0.59295  0.83668  1.0000
  C   C3920     1.0  0.56010  0.65800  0.89588  1.0000
  C   C3921     1.0  0.68643  0.55877  0.88739  1.0000
  C   C3922     1.0  0.67100  0.56898  0.89732  1.0000
  C   C3923     1.0  0.66491  0.56247  0.91607  1.0000
  C   C3924     1.0  0.67428  0.54584  0.92502  1.0000
  C   C3925     1.0  0.68989  0.53558  0.91516  1.0000
  C   C3926     1.0  0.69581  0.54211  0.89625  1.0000
  P   P132      1.0  0.70206  0.51379  0.92607  1.0000
  H   H3136     1.0  0.98901  0.52069  0.84205  1.0000
  C   C3927     1.0  0.76415  0.51292  0.90407  1.0000
  C   C3928     1.0  0.53774  0.66415  0.94889  1.0000
  P   P133      1.0  0.99163  0.55838  0.79085  1.0000
  C   C3929     1.0  0.97244  0.58735  0.76824  1.0000
  H   H3137     1.0  0.69629  0.59930  0.97021  1.0000
  C   C3930     1.0  0.93965  0.68372  0.70015  1.0000
  H   H3138     1.0  0.80835  0.50258  0.84655  1.0000
  C   C3931     1.0  0.88208  0.50414  0.76075  1.0000
  C   C3932     1.0  0.84809  0.55532  0.84686  1.0000
  C   C3933     1.0  0.96535  0.62031  0.68704  1.0000
  S   S524      1.0  0.63040  0.57005  0.96093  1.0000
  C   C3934     1.0  0.72644  0.51315  0.91759  1.0000
  C   C3935     1.0  0.73298  0.52899  0.91494  1.0000
  C   C3936     1.0  0.75174  0.52889  0.90809  1.0000
  C   C3937     1.0  0.91372  0.48695  0.75680  1.0000
  C   C3938     1.0  0.87865  0.49538  0.74885  1.0000
  C   C3939     1.0  0.83144  0.53127  0.96059  1.0000
  H   H3139     1.0  0.69120  0.56383  0.87286  1.0000
  H   H3140     1.0  0.66386  0.58202  0.89058  1.0000
  H   H3141     1.0  0.65320  0.57059  0.92382  1.0000
  H   H3142     1.0  0.66949  0.54135  0.93962  1.0000
  H   H3143     1.0  0.70772  0.53430  0.88837  1.0000
  H   H3144     1.0  0.80109  0.54747  0.76324  1.0000
  H   H3145     1.0  0.81786  0.57267  0.75306  1.0000
  C   C3940     1.0  0.81376  0.56395  0.88128  1.0000
  C   C3941     1.0  0.69536  0.49559  0.92109  1.0000
  C   C3942     1.0  0.85495  0.49382  0.84138  1.0000
  C   C3943     1.0  0.95000  0.49578  0.70695  1.0000
  H   H3146     1.0  0.87143  0.66273  0.68102  1.0000
  C   C3944     1.0  0.86015  0.52824  0.87856  1.0000
  C   C3945     1.0  0.79809  0.56983  0.89427  1.0000
  C   C3946     1.0  0.96959  0.56772  0.71951  1.0000
  H   H3147     1.0  0.72360  0.54138  0.91840  1.0000
  H   H3148     1.0  0.75667  0.54112  0.90625  1.0000
  C   C3947     1.0  0.98051  0.62683  0.68694  1.0000
  C   C3948     1.0  0.83777  0.49213  0.84029  1.0000
  H   H3149     1.0  0.86906  0.50055  0.91893  1.0000
  H   H3150     1.0  0.54832  0.62914  0.92686  1.0000
  C   C3949     1.0  0.58529  0.66863  0.96928  1.0000
  C   C3950     1.0  0.54155  0.63744  0.93698  1.0000
  C   C3951     1.0  0.91027  0.62275  0.67802  1.0000
  S   S525      1.0  0.96677  0.53312  0.72116  1.0000
  C   C3952     1.0  0.83613  0.54334  0.94399  1.0000
  H   H3151     1.0  0.57924  0.68184  0.93336  1.0000
  C   C3953     1.0  0.86377  0.51400  0.68704  1.0000
  C   C3954     1.0  0.60240  0.65697  0.91053  1.0000
  C   C3955     1.0  0.94772  0.66593  0.70821  1.0000
  P   P134      1.0  0.56417  0.66169  0.91626  1.0000
  C   C3956     1.0  0.85989  0.49970  0.71946  1.0000
  H   H3152     1.0  0.95065  0.65490  0.70117  1.0000
  H   H3153     1.0  0.82552  0.55430  0.93873  1.0000
  C   C3957     1.0  0.98545  0.54024  0.66034  1.0000
  H   H3154     1.0  0.52465  0.65955  0.87687  1.0000
  H   H3155     1.0  0.54161  0.67658  0.94823  1.0000
  C   C3958     1.0  0.63557  0.50298  0.94665  1.0000
  H   H3156     1.0  0.72715  0.59944  0.97393  1.0000
  S   S526      1.0  0.58403  0.69190  0.96666  1.0000
  C   C3959     1.0  0.86807  0.52697  0.94099  1.0000
  H   H3157     1.0  0.60068  0.67077  0.90239  1.0000
  C   C3960     1.0  0.97297  0.67713  0.66444  1.0000
  C   C3961     1.0  0.62580  0.50861  0.97755  1.0000
  C   C3962     1.0  0.85445  0.54119  0.93419  1.0000
  C   C3963     1.0  0.86338  0.51450  0.95747  1.0000
  H   H3158     1.0  0.85809  0.55049  0.92125  1.0000
  C   C3964     1.0  0.49877  0.71854  0.91131  1.0000
  C   C3965     1.0  0.95835  0.59581  0.75867  1.0000
  C   C3966     1.0  0.56873  0.71026  0.92341  1.0000
  H   H3159     1.0  0.77874  0.51270  0.89902  1.0000
  H   H3160     1.0  0.93987  0.50834  0.70436  1.0000
  H   H3161     1.0  0.51659  0.66687  0.97339  1.0000
  H   H3162     1.0  0.84087  0.50728  0.97985  1.0000
  C   C3967     1.0  0.99603  0.57490  0.72475  1.0000
  C   C3968     1.0  0.88699  0.50189  0.98443  1.0000
  C   C3969     1.0  0.98446  0.49368  0.85467  1.0000
  H   H3163     1.0  0.67996  0.51295  0.90078  1.0000
  C   C3970     1.0  0.71912  0.59022  0.98379  1.0000
  C   C3971     1.0  0.91389  0.50252  0.94246  1.0000
  C   C3972     1.0  0.91416  0.49310  0.66176  1.0000
  C   C3973     1.0  0.62306  0.49080  0.98426  1.0000
  H   H3164     1.0  0.87021  0.49590  0.66852  1.0000
  C   C3974     1.0  0.67462  0.50559  0.97977  1.0000
  C   C3975     1.0  0.54873  0.71757  0.90218  1.0000
  C   C3976     1.0  0.70176  0.59016  0.98168  1.0000
  S   S527      1.0  0.92738  0.48652  0.87383  1.0000
  H   H3165     1.0  0.90351  0.71779  0.68571  1.0000
  C   C3977     1.0  0.99470  0.55792  0.82601  1.0000
  C   C3978     1.0  0.52734  0.63189  0.95136  1.0000
  H   H3166     1.0  0.66940  0.50622  0.95386  1.0000
  C   C3979     1.0  0.98213  0.60898  0.65949  1.0000
  C   C3980     1.0  0.50018  0.72876  0.92288  1.0000
  C   C3981     1.0  0.95752  0.49127  0.72246  1.0000
  C   C3982     1.0  0.98281  0.55846  0.81499  1.0000
  H   H3167     1.0  0.88165  0.68690  0.65495  1.0000
  Fe  Fe264     1.0  0.79665  0.48992  0.98375  1.0000
  H   H3168     1.0  0.55769  0.63870  0.97862  1.0000
  H   H3169     1.0  0.90898  0.69801  0.65355  1.0000
  H   H3170     1.0  0.98031  0.63295  0.69794  1.0000
  H   H3171     1.0  0.50721  0.63835  0.97554  1.0000
  H   H3172     1.0  0.66995  0.48795  0.89544  1.0000
  H   H3173     1.0  0.51168  0.72459  0.92962  1.0000
  C   C3983     1.0  0.99630  0.62480  0.67295  1.0000
  C   C3984     1.0  0.94229  0.71963  0.65168  1.0000
  C   C3985     1.0  0.53297  0.82049  0.10198  1.0000
  C   C3986     1.0  0.57359  0.80287  0.15599  1.0000
  H   H3174     1.0  0.54465  0.79962  0.12245  1.0000
  H   H3175     1.0  0.52144  0.97590  0.30579  1.0000
  Fe  Fe265     1.0  0.52835  0.92558  0.21558  1.0000
  P   P135      1.0  0.53612  0.81567  0.15504  1.0000
  S   S528      1.0  0.55715  0.92548  0.21707  1.0000
  H   H3176     1.0  0.52003  0.77079  0.08655  1.0000
  C   C3987     1.0  0.52021  0.79062  0.18411  1.0000
  C   C3988     1.0  0.53533  0.86471  0.17791  1.0000
  C   C3989     1.0  0.55846  0.97725  0.18383  1.0000
  C   C3990     1.0  0.52236  0.85620  0.28872  1.0000
  S   S529      1.0  0.51949  0.94191  0.18962  1.0000
  C   C3991     1.0  0.57370  0.84128  0.01013  1.0000
  S   S530      1.0  0.51803  0.90143  0.21529  1.0000
  C   C3992     1.0  0.50542  0.78308  0.19544  1.0000
  C   C3993     1.0  0.56349  0.85909  0.00573  1.0000
  Fe  Fe266     1.0  0.50653  0.91892  0.19104  1.0000
  C   C3994     1.0  0.52304  0.83838  0.09750  1.0000
  C   C3995     1.0  0.52161  0.84264  0.12761  1.0000
  H   H3177     1.0  0.60345  0.76187  0.15324  1.0000
  C   C3996     1.0  0.56511  0.97052  0.19994  1.0000
  H   H3178     1.0  0.54687  0.95275  0.25881  1.0000
  H   H3179     1.0  0.54620  0.77753  0.15145  1.0000
  H   H3180     1.0  0.51849  0.82625  0.19076  1.0000
  H   H3181     1.0  0.61793  0.96194  0.11872  1.0000
  H   H3182     1.0  0.50869  0.82596  0.99339  1.0000
  C   C3997     1.0  0.52634  0.83619  0.18216  1.0000
  C   C3998     1.0  0.52586  0.85128  0.18886  1.0000
  C   C3999     1.0  0.56567  0.82644  0.01299  1.0000
  C   C4000     1.0  0.55068  0.96570  0.25642  1.0000
  H   H3183     1.0  0.52345  0.84823  0.27889  1.0000
  C   C4001     1.0  0.53637  0.83444  0.16439  1.0000
  C   C4002     1.0  0.57735  0.92807  0.23982  1.0000
  C   C4003     1.0  0.56197  0.92250  0.23873  1.0000
  C   C4004     1.0  0.55126  0.91398  0.25473  1.0000
  C   C4005     1.0  0.54741  0.97050  0.14002  1.0000
  C   C4006     1.0  0.51739  0.80510  0.16905  1.0000
  H   H3184     1.0  0.58581  0.93444  0.22745  1.0000
  H   H3185     1.0  0.53953  0.90942  0.25399  1.0000
  S   S531      1.0  0.50559  0.73710  0.98669  1.0000
  C   C4007     1.0  0.59008  0.78960  0.15556  1.0000
  S   S532      1.0  0.52889  0.74715  0.02004  1.0000
  C   C4008     1.0  0.50430  0.74161  0.18278  1.0000
  H   H3186     1.0  0.58785  0.83895  0.01135  1.0000
  H   H3187     1.0  0.57344  0.81625  0.15761  1.0000
  C   C4009     1.0  0.51555  0.96781  0.14765  1.0000
  H   H3188     1.0  0.51918  0.84344  0.08432  1.0000
  C   C4010     1.0  0.52840  0.75910  0.12955  1.0000
  C   C4011     1.0  0.60770  0.97465  0.11714  1.0000
  H   H3189     1.0  0.51649  0.85125  0.13755  1.0000
  H   H3190     1.0  0.53376  0.78529  0.18725  1.0000
  C   C4012     1.0  0.52871  0.84790  0.30486  1.0000
  C   C4013     1.0  0.50711  0.78857  0.12472  1.0000
  C   C4014     1.0  0.54613  0.84785  0.15360  1.0000
  H   H3191     1.0  0.53663  0.81169  0.09232  1.0000
  H   H3192     1.0  0.55245  0.87365  0.15175  1.0000
  C   C4015     1.0  0.51752  0.84951  0.11026  1.0000
  C   C4016     1.0  0.53411  0.96146  0.14000  1.0000
  H   H3193     1.0  0.51397  0.75007  0.18083  1.0000
  C   C4017     1.0  0.51217  0.81744  0.02155  1.0000
  H   H3194     1.0  0.60238  0.79284  0.15679  1.0000
  H   H3195     1.0  0.53805  0.94657  0.29330  1.0000
  C   C4018     1.0  0.55833  0.78114  0.15256  1.0000
  C   C4019     1.0  0.57176  0.91601  0.27272  1.0000
  H   H3196     1.0  0.55645  0.87686  0.31193  1.0000
  H   H3197     1.0  0.91222  0.73975  0.20766  1.0000
  H   H3198     1.0  0.52041  0.74444  0.05902  1.0000
  H   H3199     1.0  0.53441  0.87671  0.18289  1.0000
  C   C4020     1.0  0.55758  0.79875  0.15445  1.0000
  H   H3200     1.0  0.55380  0.84687  0.13981  1.0000
  H   H3201     1.0  0.50956  0.86331  0.10691  1.0000
  C   C4021     1.0  0.58211  0.92505  0.25679  1.0000
  S   S533      1.0  0.57972  0.90860  0.29330  1.0000
  C   C4022     1.0  0.55642  0.91036  0.27159  1.0000
  C   C4023     1.0  0.51723  0.77451  0.13605  1.0000
  C   C4024     1.0  0.53170  0.82468  0.13222  1.0000
  H   H3202     1.0  0.56169  0.96523  0.13415  1.0000
  H   H3203     1.0  0.54637  0.97326  0.18310  1.0000
  H   H3204     1.0  0.59429  0.92891  0.25742  1.0000
  H   H3205     1.0  0.57378  0.81271  0.01632  1.0000
  C   C4025     1.0  0.54288  0.80189  0.99437  1.0000
  C   C4026     1.0  0.55979  0.76533  0.06139  1.0000
  H   H3206     1.0  0.51631  0.77558  0.14987  1.0000
  C   C4027     1.0  0.54629  0.79689  0.04958  1.0000
  C   C4028     1.0  0.55993  0.76092  0.04510  1.0000
  Fe  Fe267     1.0  0.58297  0.92735  0.30935  1.0000
  H   H3207     1.0  0.63661  0.96778  0.30101  1.0000
  C   C4029     1.0  0.51459  0.87488  0.28521  1.0000
  C   C4030     1.0  0.54598  0.79249  0.03330  1.0000
  C   C4031     1.0  0.55298  0.77438  0.03114  1.0000
  P   P136      1.0  0.53703  0.81012  0.01532  1.0000
  C   C4032     1.0  0.57480  0.76793  0.15208  1.0000
  C   C4033     1.0  0.53738  0.81366  0.11922  1.0000
  C   C4034     1.0  0.58078  0.97514  0.20136  1.0000
  C   C4035     1.0  0.51929  0.77190  0.10034  1.0000
  C   C4036     1.0  0.51304  0.88529  0.29784  1.0000
  H   H3208     1.0  0.52188  0.78605  0.00373  1.0000
  H   H3209     1.0  0.51579  0.97717  0.20800  1.0000
  S   S534      1.0  0.54158  0.74189  0.14359  1.0000
  C   C4037     1.0  0.55309  0.78333  0.06357  1.0000
  H   H3210     1.0  0.53803  0.74597  0.10652  1.0000
  C   C4038     1.0  0.54730  0.82935  0.01153  1.0000
  H   H3211     1.0  0.66251  0.98232  0.29667  1.0000
  S   S535      1.0  0.50846  0.91117  0.16419  1.0000
  C   C4039     1.0  0.59069  0.77214  0.15358  1.0000
  H   H3212     1.0  0.57514  0.75442  0.15054  1.0000
  H   H3213     1.0  0.53481  0.83343  0.30754  1.0000
  H   H3214     1.0  0.51770  0.85289  0.20236  1.0000
  C   C4040     1.0  0.52933  0.75776  0.11170  1.0000
  H   H3215     1.0  0.55805  0.96165  0.21137  1.0000
  H   H3216     1.0  0.55303  0.77047  0.01879  1.0000
  H   H3217     1.0  0.54107  0.81076  0.05157  1.0000
  H   H3218     1.0  0.56509  0.74694  0.04342  1.0000
  C   C4041     1.0  0.52905  0.92297  0.31111  1.0000
  H   H3219     1.0  0.52303  0.84995  0.00569  1.0000
  C   C4042     1.0  0.63410  0.98063  0.30511  1.0000
  H   H3220     1.0  0.93154  0.73650  0.17686  1.0000
  H   H3221     1.0  0.51018  0.81104  0.05098  1.0000
  H   H3222     1.0  0.56970  0.87059  0.00357  1.0000
  S   S536      1.0  0.60031  0.94831  0.30087  1.0000
  H   H3223     1.0  0.50687  0.89969  0.29471  1.0000
  H   H3224     1.0  0.56642  0.95668  0.27747  1.0000
  H   H3225     1.0  0.50964  0.88134  0.27268  1.0000
  C   C4043     1.0  0.52637  0.94035  0.29983  1.0000
  C   C4044     1.0  0.56159  0.96795  0.26694  1.0000
  H   H3226     1.0  0.53818  0.94930  0.13439  1.0000
  H   H3227     1.0  0.54877  0.90272  0.28367  1.0000
  C   C4045     1.0  0.50817  0.78733  0.10682  1.0000
  H   H3228     1.0  0.56465  0.75475  0.07241  1.0000
  C   C4046     1.0  0.53717  0.84729  0.00699  1.0000
  H   H3229     1.0  0.55282  0.78666  0.07631  1.0000
  H   H3230     1.0  0.58583  0.96975  0.21392  1.0000
  C   C4047     1.0  0.54548  0.86298  0.16031  1.0000
  C   C4048     1.0  0.50199  0.82508  0.00775  1.0000
  H   H3231     1.0  0.53731  0.87590  0.00076  1.0000
  H   H3232     1.0  0.97233  0.74419  0.24891  1.0000
  H   H3233     1.0  0.50766  0.77189  0.20700  1.0000
  C   C4049     1.0  0.53271  0.79040  0.99252  1.0000
  C   C4050     1.0  0.54525  0.86209  0.00414  1.0000
  H   H3234     1.0  0.50219  0.90125  0.13372  1.0000
  H   H3235     1.0  0.59087  0.96740  0.14393  1.0000
  H   H3236     1.0  0.54283  0.91608  0.31291  1.0000
  C   C4051     1.0  0.51027  0.98307  0.15555  1.0000
  C   C4052     1.0  0.50884  0.94934  0.29667  1.0000
  C   C4053     1.0  0.59235  0.97781  0.13141  1.0000
  C   C4054     1.0  0.56602  0.98483  0.26413  1.0000
  C   C4055     1.0  0.49958  0.81207  0.16571  1.0000
  H   H3237     1.0  0.53555  0.97850  0.23523  1.0000
  H   H3238     1.0  0.50690  0.96255  0.28740  1.0000
  H   H3239     1.0  0.50539  0.96050  0.14797  1.0000
  C   C4056     1.0  0.50291  0.81681  0.03996  1.0000
  C   C4057     1.0  0.54445  0.98023  0.24294  1.0000
  C   C4058     1.0  0.51944  0.87709  0.31409  1.0000
  H   H3240     1.0  0.49897  0.80061  0.12968  1.0000
  S   S537      1.0  0.50287  0.93802  0.23425  1.0000
  H   H3241     1.0  0.49691  0.82345  0.15446  1.0000
  H   H3242     1.0  0.60495  0.98215  0.31521  1.0000
  H   H3243     1.0  0.49719  0.78094  0.03214  1.0000
  C   C4059     1.0  0.52729  0.85829  0.31749  1.0000
  C   C4060     1.0  0.49666  0.89503  0.16326  1.0000
  C   C4061     1.0  0.49650  0.92380  0.31679  1.0000
  H   H3244     1.0  0.62169  0.98532  0.08977  1.0000
  C   C4062     1.0  0.51621  0.98168  0.31786  1.0000
  C   C4063     1.0  0.54218  0.98593  0.14783  1.0000
  C   C4064     1.0  0.53996  0.88421  0.33747  1.0000
  H   H3245     1.0  0.52849  0.89216  0.36375  1.0000
  C   C4065     1.0  0.75700  0.90321  0.52533  1.0000
  S   S538      1.0  0.63952  0.93265  0.32760  1.0000
  S   S539      1.0  0.58705  0.95308  0.34401  1.0000
  C   C4066     1.0  0.99272  0.83234  0.51074  1.0000
  H   H3246     1.0  0.70277  0.96857  0.47086  1.0000
  H   H3247     1.0  0.87036  0.85508  0.63089  1.0000
  H   H3248     1.0  0.85656  0.82759  0.52259  1.0000
  C   C4067     1.0  0.79528  0.94258  0.42946  1.0000
  Fe  Fe268     1.0  0.57073  0.93188  0.34874  1.0000
  S   S540      1.0  0.55517  0.92204  0.37731  1.0000
  C   C4068     1.0  0.82319  0.88160  0.56519  1.0000
  S   S541      1.0  0.59447  0.91302  0.33449  1.0000
  C   C4069     1.0  0.95845  0.77308  0.35040  1.0000
  Fe  Fe269     1.0  0.95082  0.81578  0.50530  1.0000
  S   S542      1.0  0.92900  0.83608  0.51957  1.0000
  S   S543      1.0  0.98016  0.80311  0.50849  1.0000
  Fe  Fe270     1.0  0.92426  0.80776  0.48739  1.0000
  S   S544      1.0  0.90003  0.82706  0.50051  1.0000
  S   S545      1.0  0.92652  0.79367  0.46468  1.0000
  Fe  Fe271     1.0  0.91888  0.84633  0.49332  1.0000
  S   S546      1.0  0.90953  0.87665  0.48194  1.0000
  Fe  Fe272     1.0  0.91129  0.81576  0.52595  1.0000
  S   S547      1.0  0.89138  0.81338  0.55342  1.0000
  S   S548      1.0  0.94256  0.82793  0.47829  1.0000
  S   S549      1.0  0.93375  0.79454  0.51364  1.0000
  C   C4070     1.0  0.78677  0.90135  0.56561  1.0000
  C   C4071     1.0  0.58145  0.97035  0.41844  1.0000
  H   H3249     1.0  0.90727  0.87243  0.52314  1.0000
  H   H3250     1.0  0.95353  0.75587  0.33578  1.0000
  H   H3251     1.0  0.82755  0.89112  0.53569  1.0000
  C   C4072     1.0  0.85383  0.87411  0.61264  1.0000
  C   C4073     1.0  0.53556  0.96675  0.39445  1.0000
  C   C4074     1.0  0.86571  0.85759  0.61831  1.0000
  H   H3252     1.0  0.92839  0.73628  0.47813  1.0000
  H   H3253     1.0  0.49762  0.86096  0.34667  1.0000
  C   C4075     1.0  0.75191  0.90011  0.51070  1.0000
  Fe  Fe273     1.0  0.78143  0.95622  0.53082  1.0000
  H   H3254     1.0  0.83901  0.89040  0.59190  1.0000
  S   S550      1.0  0.76925  0.94946  0.56096  1.0000
  Fe  Fe274     1.0  0.80955  0.93877  0.50132  1.0000
  S   S551      1.0  0.80627  0.96465  0.47979  1.0000
  S   S552      1.0  0.82309  0.90982  0.49798  1.0000
  C   C4076     1.0  0.97555  0.74248  0.58448  1.0000
  Fe  Fe275     1.0  0.77594  0.96751  0.49165  1.0000
  P   P137      1.0  0.51827  0.89048  0.33024  1.0000
  S   S553      1.0  0.81220  0.95269  0.52198  1.0000
  S   S554      1.0  0.77899  0.94077  0.51159  1.0000
  Fe  Fe276     1.0  0.67013  0.94011  0.41556  1.0000
  S   S555      1.0  0.65047  0.96437  0.42521  1.0000
  S   S556      1.0  0.66035  0.92272  0.40292  1.0000
  Fe  Fe277     1.0  0.69935  0.94123  0.43489  1.0000
  S   S557      1.0  0.68212  0.96562  0.44595  1.0000
  S   S558      1.0  0.72553  0.92637  0.44456  1.0000
  Fe  Fe278     1.0  0.65865  0.95173  0.45211  1.0000
  S   S559      1.0  0.63814  0.94852  0.47895  1.0000
  C   C4077     1.0  0.55645  0.87781  0.32558  1.0000
  H   H3255     1.0  0.78166  0.89112  0.59479  1.0000
  S   S560      1.0  0.67638  0.92643  0.44321  1.0000
  S   S561      1.0  0.69502  0.95264  0.40612  1.0000
  H   H3256     1.0  0.91878  0.73742  0.51105  1.0000
  S   S562      1.0  0.55818  0.94483  0.32425  1.0000
  H   H3257     1.0  0.53239  0.85172  0.32988  1.0000
  C   C4078     1.0  0.97161  0.78429  0.46600  1.0000
  H   H3258     1.0  0.81351  0.87296  0.59451  1.0000
  Fe  Fe279     1.0  0.66581  0.96062  0.57862  1.0000
  S   S563      1.0  0.68858  0.93556  0.58118  1.0000
  H   H3259     1.0  0.84424  0.87359  0.50323  1.0000
  S   S564      1.0  0.64120  0.96194  0.56803  1.0000
  H   H3260     1.0  0.83567  0.80597  0.57947  1.0000
  C   C4079     1.0  0.63880  0.96379  0.49152  1.0000
  H   H3261     1.0  0.49835  0.91182  0.35771  1.0000
  S   S565      1.0  0.75681  0.97857  0.47207  1.0000
  H   H3262     1.0  0.84621  0.80220  0.54735  1.0000
  C   C4080     1.0  0.60014  0.96797  0.63895  1.0000
  C   C4081     1.0  0.63257  0.96023  0.51058  1.0000
  H   H3263     1.0  0.55816  0.88447  0.37271  1.0000
  C   C4082     1.0  0.87176  0.90868  0.52996  1.0000
  H   H3264     1.0  0.98334  0.76958  0.42615  1.0000
  H   H3265     1.0  0.62725  0.94810  0.51754  1.0000
  C   C4083     1.0  0.74667  0.94614  0.56614  1.0000
  C   C4084     1.0  0.71056  0.94049  0.57548  1.0000
  C   C4085     1.0  0.71672  0.95186  0.55874  1.0000
  C   C4086     1.0  0.73494  0.95437  0.55389  1.0000
  H   H3266     1.0  0.70763  0.95829  0.54931  1.0000
  H   H3267     1.0  0.73976  0.96293  0.54084  1.0000
  C   C4087     1.0  0.74920  0.96345  0.46412  1.0000
  C   C4088     1.0  0.75138  0.94488  0.47234  1.0000
  C   C4089     1.0  0.74484  0.93337  0.46569  1.0000
  C   C4090     1.0  0.73526  0.94057  0.45148  1.0000
  C   C4091     1.0  0.73327  0.95908  0.44314  1.0000
  C   C4092     1.0  0.74055  0.97037  0.44924  1.0000
  H   H3268     1.0  0.75801  0.93941  0.48385  1.0000
  H   H3269     1.0  0.74676  0.91900  0.47186  1.0000
  H   H3270     1.0  0.72617  0.96469  0.43196  1.0000
  S   S566      1.0  0.59691  0.96867  0.60434  1.0000
  H   H3271     1.0  0.87137  0.83765  0.58272  1.0000
  H   H3272     1.0  0.67607  0.88893  0.58886  1.0000
  C   C4093     1.0  0.79531  0.92855  0.46131  1.0000
  H   H3273     1.0  0.98223  0.80460  0.47096  1.0000
  H   H3274     1.0  0.58706  0.87258  0.35177  1.0000
  H   H3275     1.0  0.60502  0.88973  0.36985  1.0000
  C   C4094     1.0  0.85356  0.86401  0.58579  1.0000
  H   H3276     1.0  0.55586  0.93354  0.64364  1.0000
  C   C4095     1.0  0.92946  0.79366  0.59979  1.0000
  C   C4096     1.0  0.88070  0.87065  0.54114  1.0000
  H   H3277     1.0  0.79577  0.95443  0.41828  1.0000
  C   C4097     1.0  0.88550  0.88617  0.48645  1.0000
  C   C4098     1.0  0.87283  0.87495  0.49406  1.0000
  C   C4099     1.0  0.85383  0.88249  0.49745  1.0000
  C   C4100     1.0  0.84720  0.90141  0.49376  1.0000
  C   C4101     1.0  0.85976  0.91284  0.48637  1.0000
  C   C4102     1.0  0.87889  0.90520  0.48250  1.0000
  H   H3278     1.0  0.87760  0.86044  0.49736  1.0000
  H   H3279     1.0  0.77145  0.90114  0.52533  1.0000
  H   H3280     1.0  0.85477  0.92749  0.48338  1.0000
  H   H3281     1.0  0.88859  0.91404  0.47663  1.0000
  C   C4103     1.0  0.91480  0.77701  0.46530  1.0000
  C   C4104     1.0  0.90137  0.77153  0.48050  1.0000
  C   C4105     1.0  0.89111  0.75943  0.47984  1.0000
  C   C4106     1.0  0.89477  0.75228  0.46413  1.0000
  C   C4107     1.0  0.90880  0.75719  0.44921  1.0000
  C   C4108     1.0  0.91864  0.76964  0.44973  1.0000
  H   H3282     1.0  0.89906  0.77661  0.49267  1.0000
  H   H3283     1.0  0.88062  0.75532  0.49163  1.0000
  H   H3284     1.0  0.91184  0.75166  0.43709  1.0000
  H   H3285     1.0  0.92922  0.77366  0.43798  1.0000
  C   C4109     1.0  0.90696  0.77698  0.56411  1.0000
  C   C4110     1.0  0.89521  0.79270  0.56942  1.0000
  C   C4111     1.0  0.88658  0.79216  0.58792  1.0000
  C   C4112     1.0  0.53457  0.97325  0.40983  1.0000
  H   H3286     1.0  0.91354  0.77727  0.54986  1.0000
  H   H3287     1.0  0.87735  0.80423  0.59206  1.0000
  H   H3288     1.0  0.72952  0.90192  0.49852  1.0000
  H   H3289     1.0  0.58620  0.93602  0.38865  1.0000
  C   C4113     1.0  0.55765  0.88219  0.35972  1.0000
  H   H3290     1.0  0.96269  0.78224  0.47953  1.0000
  C   C4114     1.0  0.79582  0.94381  0.44688  1.0000
  C   C4115     1.0  0.85175  0.82917  0.53662  1.0000
  H   H3291     1.0  0.83542  0.83481  0.58704  1.0000
  C   C4116     1.0  0.96297  0.75764  0.34284  1.0000
  H   H3292     1.0  0.58641  0.89361  0.46343  1.0000
  C   C4117     1.0  0.61949  0.90803  0.47335  1.0000
  H   H3293     1.0  0.97492  0.73828  0.44111  1.0000
  H   H3294     1.0  0.89927  0.90590  0.51299  1.0000
  H   H3295     1.0  0.58675  0.94718  0.44003  1.0000
  C   C4118     1.0  0.58510  0.94533  0.39715  1.0000
  H   H3296     1.0  0.68201  0.94964  0.53823  1.0000
  H   H3297     1.0  0.99252  0.76104  0.64266  1.0000
  H   H3298     1.0  0.63673  0.92541  0.45418  1.0000
  C   C4119     1.0  0.64465  0.93304  0.34821  1.0000
  C   C4120     1.0  0.63094  0.93383  0.36426  1.0000
  C   C4121     1.0  0.63565  0.93288  0.38078  1.0000
  C   C4122     1.0  0.65409  0.93062  0.38150  1.0000
  C   C4123     1.0  0.66770  0.93061  0.36529  1.0000
  C   C4124     1.0  0.66296  0.93197  0.34867  1.0000
  H   H3299     1.0  0.61682  0.93457  0.36410  1.0000
  H   H3300     1.0  0.62511  0.93296  0.39323  1.0000
  H   H3301     1.0  0.68203  0.92841  0.36577  1.0000
  H   H3302     1.0  0.67363  0.93131  0.33630  1.0000
  C   C4125     1.0  0.89021  0.77611  0.60115  1.0000
  H   H3303     1.0  0.84536  0.90744  0.54791  1.0000
  H   H3304     1.0  0.68422  0.97998  0.32042  1.0000
  C   C4126     1.0  0.99152  0.83792  0.44424  1.0000
  C   C4127     1.0  0.90194  0.76033  0.59588  1.0000
  C   C4128     1.0  0.89376  0.87992  0.52876  1.0000
  C   C4129     1.0  0.53088  0.92786  0.38172  1.0000
  C   C4130     1.0  0.52109  0.93332  0.36770  1.0000
  H   H3305     1.0  0.61444  0.96853  0.63300  1.0000
  H   H3306     1.0  0.95361  0.79667  0.54840  1.0000
  H   H3307     1.0  0.52867  0.92280  0.41077  1.0000
  H   H3308     1.0  0.52841  0.93377  0.35362  1.0000
  C   C4131     1.0  0.97599  0.76029  0.54759  1.0000
  C   C4132     1.0  0.64545  0.97959  0.48255  1.0000
  C   C4133     1.0  0.55446  0.91952  0.43909  1.0000
  H   H3309     1.0  0.64342  0.90561  0.59081  1.0000
  C   C4134     1.0  0.97156  0.77464  0.45331  1.0000
  H   H3310     1.0  0.52509  0.97094  0.37049  1.0000
  C   C4135     1.0  0.94496  0.78024  0.59469  1.0000
  C   C4136     1.0  0.97941  0.74457  0.34463  1.0000
  H   H3311     1.0  0.88374  0.77584  0.61545  1.0000
  C   C4137     1.0  0.57923  0.97656  0.40038  1.0000
  C   C4138     1.0  0.57020  0.96692  0.63572  1.0000
  C   C4139     1.0  0.58108  0.96408  0.38976  1.0000
  C   C4140     1.0  0.63749  0.88748  0.39279  1.0000
  H   H3312     1.0  0.57920  0.96898  0.37581  1.0000
  C   C4141     1.0  0.64005  0.98165  0.37641  1.0000
  C   C4142     1.0  0.79351  0.91223  0.45855  1.0000
  C   C4143     1.0  0.79245  0.91100  0.44118  1.0000
  C   C4144     1.0  0.79400  0.92614  0.42650  1.0000
  P   P138      1.0  0.79105  0.88960  0.43746  1.0000
  C   C4145     1.0  0.81373  0.87464  0.43527  1.0000
  C   C4146     1.0  0.77561  0.87926  0.45726  1.0000
  C   C4147     1.0  0.78258  0.86744  0.47218  1.0000
  C   C4148     1.0  0.77073  0.85985  0.48782  1.0000
  C   C4149     1.0  0.75174  0.86406  0.48871  1.0000
  C   C4150     1.0  0.74466  0.87579  0.47392  1.0000
  C   C4151     1.0  0.75653  0.88328  0.45827  1.0000
  C   C4152     1.0  0.81571  0.85599  0.43614  1.0000
  C   C4153     1.0  0.83322  0.84434  0.43445  1.0000
  C   C4154     1.0  0.84880  0.85118  0.43215  1.0000
  C   C4155     1.0  0.84692  0.86960  0.43170  1.0000
  C   C4156     1.0  0.82947  0.88134  0.43316  1.0000
  C   C4157     1.0  0.78185  0.89367  0.41728  1.0000
  C   C4158     1.0  0.76696  0.90842  0.41419  1.0000
  C   C4159     1.0  0.75919  0.91138  0.39912  1.0000
  C   C4160     1.0  0.76641  0.89980  0.38675  1.0000
  C   C4161     1.0  0.78146  0.88528  0.38945  1.0000
  C   C4162     1.0  0.78917  0.88220  0.40465  1.0000
  H   H3313     1.0  0.79297  0.90067  0.46999  1.0000
  H   H3314     1.0  0.79410  0.92540  0.41278  1.0000
  H   H3315     1.0  0.79717  0.86426  0.47175  1.0000
  H   H3316     1.0  0.77625  0.85088  0.49933  1.0000
  H   H3317     1.0  0.74249  0.85839  0.50089  1.0000
  H   H3318     1.0  0.72993  0.87936  0.47454  1.0000
  H   H3319     1.0  0.75062  0.89234  0.44713  1.0000
  H   H3320     1.0  0.80373  0.85051  0.43795  1.0000
  H   H3321     1.0  0.83479  0.83001  0.43482  1.0000
  H   H3322     1.0  0.86236  0.84223  0.43063  1.0000
  H   H3323     1.0  0.85903  0.87482  0.43014  1.0000
  H   H3324     1.0  0.82842  0.89560  0.43264  1.0000
  H   H3325     1.0  0.76123  0.91762  0.42357  1.0000
  H   H3326     1.0  0.74743  0.92261  0.39720  1.0000
  H   H3327     1.0  0.76030  0.90208  0.37510  1.0000
  H   H3328     1.0  0.78709  0.87635  0.37980  1.0000
  H   H3329     1.0  0.80079  0.87090  0.40638  1.0000
  C   C4163     1.0  0.52118  0.92702  0.39993  1.0000
  H   H3330     1.0  0.79589  0.90921  0.53631  1.0000
  H   H3331     1.0  0.97848  0.83971  0.51303  1.0000
  C   C4164     1.0  0.86600  0.84772  0.59123  1.0000
  C   C4165     1.0  0.85118  0.76454  0.52899  1.0000
  C   C4166     1.0  0.86689  0.76493  0.53436  1.0000
  C   C4167     1.0  0.87557  0.77956  0.52630  1.0000
  C   C4168     1.0  0.86888  0.79351  0.51251  1.0000
  C   C4169     1.0  0.85339  0.79308  0.50674  1.0000
  C   C4170     1.0  0.84427  0.77867  0.51543  1.0000
  P   P139      1.0  0.84475  0.81144  0.48909  1.0000
  C   C4171     1.0  0.82886  0.82962  0.49953  1.0000
  C   C4172     1.0  0.86418  0.81961  0.47279  1.0000
  C   C4173     1.0  0.86949  0.83487  0.47436  1.0000
  C   C4174     1.0  0.88445  0.84116  0.46177  1.0000
  C   C4175     1.0  0.89465  0.83191  0.44788  1.0000
  C   C4176     1.0  0.88971  0.81656  0.44636  1.0000
  C   C4177     1.0  0.87461  0.81040  0.45874  1.0000
  C   C4178     1.0  0.82619  0.84776  0.48952  1.0000
  C   C4179     1.0  0.81552  0.86198  0.49820  1.0000
  C   C4180     1.0  0.80688  0.85818  0.51672  1.0000
  C   C4181     1.0  0.80865  0.84011  0.52652  1.0000
  C   C4182     1.0  0.81953  0.82586  0.51796  1.0000
  C   C4183     1.0  0.83321  0.80266  0.47715  1.0000
  C   C4184     1.0  0.84083  0.78542  0.47272  1.0000
  C   C4185     1.0  0.83215  0.77865  0.46327  1.0000
  C   C4186     1.0  0.81568  0.78894  0.45827  1.0000
  C   C4187     1.0  0.80788  0.80605  0.46275  1.0000
  C   C4188     1.0  0.81660  0.81291  0.47215  1.0000
  C   C4189     1.0  0.84588  0.81496  0.55054  1.0000
  H   H3332     1.0  0.87245  0.75381  0.54463  1.0000
  H   H3333     1.0  0.88773  0.77994  0.53048  1.0000
  H   H3334     1.0  0.87615  0.80436  0.50602  1.0000
  H   H3335     1.0  0.83204  0.77813  0.51158  1.0000
  H   H3336     1.0  0.86258  0.84167  0.48561  1.0000
  H   H3337     1.0  0.88869  0.85271  0.46332  1.0000
  H   H3338     1.0  0.90686  0.83614  0.43878  1.0000
  H   H3339     1.0  0.89820  0.80888  0.43612  1.0000
  H   H3340     1.0  0.87169  0.79807  0.45757  1.0000
  H   H3341     1.0  0.83282  0.85104  0.47515  1.0000
  H   H3342     1.0  0.81438  0.87606  0.49069  1.0000
  H   H3343     1.0  0.79905  0.86929  0.52350  1.0000
  H   H3344     1.0  0.80205  0.83717  0.54094  1.0000
  H   H3345     1.0  0.82108  0.81201  0.52595  1.0000
  H   H3346     1.0  0.85356  0.77712  0.47651  1.0000
  H   H3347     1.0  0.83832  0.76535  0.45984  1.0000
  H   H3348     1.0  0.80898  0.78361  0.45096  1.0000
  H   H3349     1.0  0.79507  0.81397  0.45892  1.0000
  H   H3350     1.0  0.81040  0.82620  0.47539  1.0000
  C   C4190     1.0  0.74340  0.90980  0.53953  1.0000
  C   C4191     1.0  0.73324  0.90340  0.51040  1.0000
  C   C4192     1.0  0.71950  0.90948  0.52490  1.0000
  C   C4193     1.0  0.72475  0.91310  0.53922  1.0000
  P   P140      1.0  0.69567  0.91656  0.52308  1.0000
  C   C4194     1.0  0.69024  0.90433  0.50937  1.0000
  C   C4195     1.0  0.67937  0.91293  0.54469  1.0000
  C   C4196     1.0  0.66079  0.92200  0.54580  1.0000
  C   C4197     1.0  0.64783  0.91912  0.56231  1.0000
  C   C4198     1.0  0.65335  0.90729  0.57785  1.0000
  C   C4199     1.0  0.67174  0.89790  0.57675  1.0000
  C   C4200     1.0  0.68469  0.90049  0.56015  1.0000
  C   C4201     1.0  0.67663  0.91292  0.49913  1.0000
  C   C4202     1.0  0.67155  0.90317  0.48938  1.0000
  C   C4203     1.0  0.68005  0.88482  0.48971  1.0000
  C   C4204     1.0  0.69337  0.87606  0.50017  1.0000
  C   C4205     1.0  0.69832  0.88574  0.51014  1.0000
  C   C4206     1.0  0.69291  0.94043  0.51259  1.0000
  C   C4207     1.0  0.69903  0.94591  0.49358  1.0000
  C   C4208     1.0  0.69795  0.96438  0.48549  1.0000
  C   C4209     1.0  0.57392  0.87553  0.34793  1.0000
  C   C4210     1.0  0.68508  0.97205  0.51523  1.0000
  C   C4211     1.0  0.68620  0.95358  0.52344  1.0000
  H   H3351     1.0  0.74724  0.91302  0.55050  1.0000
  H   H3352     1.0  0.71443  0.91901  0.54987  1.0000
  H   H3353     1.0  0.65635  0.93149  0.53395  1.0000
  H   H3354     1.0  0.63359  0.92649  0.56318  1.0000
  H   H3355     1.0  0.69881  0.89300  0.55958  1.0000
  H   H3356     1.0  0.66973  0.92712  0.49879  1.0000
  H   H3357     1.0  0.66096  0.90994  0.48160  1.0000
  H   H3358     1.0  0.67618  0.87740  0.48195  1.0000
  H   H3359     1.0  0.69971  0.86175  0.50067  1.0000
  H   H3360     1.0  0.70827  0.87871  0.51859  1.0000
  H   H3361     1.0  0.70479  0.93595  0.48500  1.0000
  H   H3362     1.0  0.84454  0.75310  0.53521  1.0000
  C   C4212     1.0  0.99224  0.77527  0.57007  1.0000
  C   C4213     1.0  0.88927  0.89888  0.52307  1.0000
  C   C4214     1.0  0.98262  0.79710  0.46102  1.0000
  P   P141      1.0  0.84645  0.86839  0.56450  1.0000
  C   C4215     1.0  0.81776  0.89119  0.54875  1.0000
  H   H3363     1.0  0.79647  0.95664  0.44923  1.0000
  H   H3364     1.0  0.52502  0.92334  0.44942  1.0000
  H   H3365     1.0  0.55443  0.93351  0.43856  1.0000
  H   H3366     1.0  0.96247  0.76523  0.45694  1.0000
  H   H3367     1.0  0.79595  0.92950  0.47476  1.0000
  H   H3368     1.0  0.76244  0.89588  0.49925  1.0000
  C   C4216     1.0  0.69080  0.97745  0.49626  1.0000
  H   H3369     1.0  0.91067  0.81841  0.59020  1.0000
  C   C4217     1.0  0.93159  0.80910  0.56799  1.0000
  H   H3370     1.0  0.65227  0.88337  0.39180  1.0000
  H   H3371     1.0  0.88127  0.83174  0.61177  1.0000
  C   C4218     1.0  0.58755  0.93891  0.41525  1.0000
  H   H3372     1.0  0.95494  0.87854  0.46200  1.0000
  H   H3373     1.0  0.92259  0.79286  0.61407  1.0000
  H   H3374     1.0  0.84935  0.88445  0.62078  1.0000
  C   C4219     1.0  0.59748  0.90049  0.46115  1.0000
  C   C4220     1.0  0.60539  0.89899  0.47584  1.0000
  C   C4221     1.0  0.58541  0.95163  0.42590  1.0000
  C   C4222     1.0  0.96014  0.75842  0.54345  1.0000
  C   C4223     1.0  0.96848  0.86613  0.43872  1.0000
  S   S567      1.0  0.64928  0.97188  0.60343  1.0000
  C   C4224     1.0  0.91014  0.76076  0.57731  1.0000
  C   C4225     1.0  0.74035  0.93511  0.58298  1.0000
  H   H3375     1.0  0.52441  0.89144  0.45063  1.0000
  H   H3376     1.0  0.96689  0.78760  0.36553  1.0000
  C   C4226     1.0  0.85198  0.84535  0.54086  1.0000
  H   H3377     1.0  0.96051  0.87631  0.42962  1.0000
  C   C4227     1.0  0.53776  0.91377  0.44540  1.0000
  C   C4228     1.0  0.72249  0.93197  0.58745  1.0000
  Fe  Fe280     1.0  0.80571  0.97907  0.50150  1.0000
  C   C4229     1.0  0.52421  0.97643  0.38217  1.0000
  H   H3378     1.0  0.54510  0.95411  0.39206  1.0000
  H   H3379     1.0  0.85679  0.85608  0.53000  1.0000
  H   H3380     1.0  0.94885  0.75283  0.52368  1.0000
  H   H3381     1.0  0.74939  0.92874  0.59247  1.0000
  C   C4230     1.0  0.79971  0.90126  0.54901  1.0000
  H   H3382     1.0  0.88443  0.85590  0.54531  1.0000
  C   C4231     1.0  0.95342  0.78080  0.57611  1.0000
  C   C4232     1.0  0.60371  0.91104  0.44385  1.0000
  H   H3383     1.0  0.58601  0.86914  0.32128  1.0000
  C   C4233     1.0  0.62590  0.91830  0.45611  1.0000
  C   C4234     1.0  0.53741  0.89578  0.44610  1.0000
  C   C4235     1.0  0.57093  0.90731  0.43333  1.0000
  P   P142      1.0  0.59253  0.91467  0.42516  1.0000
  H   H3384     1.0  0.95036  0.76951  0.60522  1.0000
  C   C4236     1.0  0.94685  0.79554  0.56279  1.0000
  C   C4237     1.0  0.96120  0.75389  0.52695  1.0000
  C   C4238     1.0  0.85871  0.89951  0.54253  1.0000
  C   C4239     1.0  0.84005  0.83334  0.57293  1.0000
  C   C4240     1.0  0.58868  0.96778  0.62792  1.0000
  C   C4241     1.0  0.61815  0.91974  0.44140  1.0000
  H   H3385     1.0  0.92632  0.82028  0.55771  1.0000
  H   H3386     1.0  0.69461  0.96677  0.34956  1.0000
  H   H3387     1.0  0.62838  0.96958  0.53536  1.0000
  Fe  Fe281     1.0  0.62485  0.97536  0.59140  1.0000
  H   H3388     1.0  0.63880  0.87956  0.36789  1.0000
  H   H3389     1.0  0.63376  0.96908  0.35808  1.0000
  C   C4242     1.0  0.57332  0.87342  0.33084  1.0000
  Fe  Fe282     1.0  0.60966  0.93555  0.32738  1.0000
  C   C4243     1.0  0.80992  0.88107  0.58177  1.0000
  H   H3390     1.0  0.62325  0.92792  0.42816  1.0000
  H   H3391     1.0  0.62539  0.90726  0.48476  1.0000
  P   P143      1.0  0.97448  0.76470  0.56958  1.0000
  H   H3392     1.0  0.91919  0.74873  0.57309  1.0000
  C   C4244     1.0  0.57055  0.88912  0.43458  1.0000
  H   H3393     1.0  0.71782  0.92309  0.60032  1.0000
  H   H3394     1.0  0.54333  0.96558  0.41933  1.0000
  C   C4245     1.0  0.55381  0.88344  0.44079  1.0000
  H   H3395     1.0  0.58495  0.90428  0.39493  1.0000
  C   C4246     1.0  0.60714  0.90232  0.40783  1.0000
  C   C4247     1.0  0.61092  0.89125  0.38032  1.0000
  C   C4248     1.0  0.62991  0.88540  0.37930  1.0000
  C   C4249     1.0  0.87185  0.84444  0.60756  1.0000
  C   C4250     1.0  0.54074  0.88657  0.35453  1.0000
  C   C4251     1.0  0.84648  0.84741  0.55907  1.0000
  H   H3396     1.0  0.94552  0.78285  0.34943  1.0000
  C   C4252     1.0  0.96539  0.86747  0.45693  1.0000
  H   H3397     1.0  0.60044  0.89102  0.48923  1.0000
  C   C4253     1.0  0.59958  0.89960  0.39455  1.0000
  H   H3398     1.0  0.55354  0.86951  0.44129  1.0000
  H   H3399     1.0  0.58314  0.87939  0.43053  1.0000
  H   H3400     1.0  0.63254  0.89762  0.41699  1.0000
  C   C4254     1.0  0.98150  0.85147  0.43236  1.0000
  H   H3401     1.0  0.77287  0.90947  0.56580  1.0000
  H   H3402     1.0  0.86822  0.92337  0.52535  1.0000
  C   C4255     1.0  0.62615  0.89572  0.40711  1.0000
  H   H3403     1.0  0.56132  0.96670  0.62722  1.0000
  C   C4256     1.0  0.84788  0.87738  0.59635  1.0000
  C   C4257     1.0  0.79181  0.89112  0.58197  1.0000
  C   C4258     1.0  0.86296  0.88037  0.54790  1.0000
  C   C4259     1.0  0.83996  0.81708  0.56868  1.0000
  H   H3404     1.0  0.94695  0.76046  0.55299  1.0000
  C   C4260     1.0  0.97811  0.75109  0.51451  1.0000
  C   C4261     1.0  0.92279  0.80809  0.58642  1.0000
  C   C4262     1.0  0.62909  0.97985  0.36568  1.0000
  H   H3405     1.0  0.94653  0.74333  0.63039  1.0000
  C   C4263     1.0  0.63337  0.97228  0.52069  1.0000
  C   C4264     1.0  0.51422  0.91436  0.31927  1.0000
  C   C4265     1.0  0.98844  0.83954  0.46246  1.0000
  C   C4266     1.0  0.97049  0.77581  0.35941  1.0000
  H   H3406     1.0  0.65305  0.97199  0.37740  1.0000
  C   C4267     1.0  0.97552  0.85428  0.46873  1.0000
  H   H3407     1.0  0.58010  0.98000  0.42669  1.0000
  Fe  Fe283     1.0  0.67566  0.97604  0.41812  1.0000
  H   H3408     1.0  0.94588  0.74487  0.59247  1.0000
  S   S568      1.0  0.90637  0.74038  0.61274  1.0000
  H   H3409     1.0  0.97874  0.74787  0.50166  1.0000
  H   H3410     1.0  0.98338  0.85073  0.41830  1.0000
  C   C4268     1.0  0.50343  0.97438  0.33264  1.0000
  H   H3411     1.0  0.97298  0.85521  0.48289  1.0000
  Fe  Fe284     1.0  0.57659  0.96441  0.31824  1.0000
  H   H3412     1.0  0.98979  0.82428  0.40557  1.0000
  C   C4269     1.0  0.92053  0.74882  0.64937  1.0000
  C   C4270     1.0  0.93748  0.73788  0.64282  1.0000
  S   S569      1.0  0.77513  0.98340  0.51209  1.0000
  C   C4271     1.0  0.99179  0.74790  0.35298  1.0000
  C   C4272     1.0  0.98724  0.76331  0.36053  1.0000
  H   H3413     1.0  0.91645  0.76268  0.64192  1.0000
  C   C4273     1.0  0.50187  0.93196  0.40415  1.0000
  C   C4274     1.0  0.98317  0.77722  0.43593  1.0000
  H   H3414     1.0  0.99266  0.76305  0.59857  1.0000
  H   H3415     1.0  0.98506  0.73618  0.47099  1.0000
  C   C4275     1.0  0.68730  0.98091  0.34674  1.0000
  H   H3416     1.0  0.67964  0.98219  0.52356  1.0000
  H   H3417     1.0  0.72831  0.98084  0.58002  1.0000
  S   S570      1.0  0.88164  0.73752  0.46304  1.0000
  C   C4276     1.0  0.50010  0.88666  0.35032  1.0000
  C   C4277     1.0  0.99408  0.75242  0.51872  1.0000
  C   C4278     1.0  0.99307  0.75689  0.53528  1.0000
  H   H3418     1.0  0.73942  0.98456  0.44247  1.0000
  H   H3419     1.0  0.64987  0.98261  0.46783  1.0000
  H   H3420     1.0  0.49853  0.96289  0.33202  1.0000
  C   C4279     1.0  0.99376  0.80031  0.44333  1.0000
  H   H3421     1.0  0.52230  0.94526  0.64545  1.0000
  C   C4280     1.0  0.99470  0.78953  0.43114  1.0000
  H   H3422     1.0  0.99356  0.79123  0.54243  1.0000
  C   C4281     1.0  0.50165  0.93793  0.37201  1.0000
  H   H3423     1.0  0.99570  0.82917  0.47200  1.0000
  H   H3424     1.0  0.52085  0.85577  0.64646  1.0000
  C   C4282     1.0  0.49711  0.98180  0.34832  1.0000
  H   H3425     1.0  0.97442  0.73725  0.64982  1.0000
  C   C4283     1.0  0.95934  0.73626  0.59372  1.0000
  H   H3426     1.0  0.68821  0.98578  0.37245  1.0000
  H   H3427     1.0  0.57222  0.80457  0.95228  1.0000
  C   C4284     1.0  0.51460  0.92242  0.66643  1.0000
  C   C4285     1.0  0.51942  0.79686  0.93513  1.0000
  C   C4286     1.0  0.50662  0.90826  0.78052  1.0000
  C   C4287     1.0  0.50071  0.89474  0.92676  1.0000
  H   H3428     1.0  0.56724  0.90409  0.66345  1.0000
  H   H3429     1.0  0.54769  0.85987  0.92765  1.0000
  S   S571      1.0  0.52343  0.94476  0.69576  1.0000
  H   H3430     1.0  0.53270  0.79552  0.92566  1.0000
  H   H3431     1.0  0.52636  0.87714  0.66149  1.0000
  S   S572      1.0  0.56533  0.96817  0.68853  1.0000
  C   C4288     1.0  0.55255  0.90907  0.66415  1.0000
  C   C4289     1.0  0.52952  0.86030  0.74400  1.0000
  H   H3432     1.0  0.50341  0.93210  0.92589  1.0000
  C   C4290     1.0  0.51125  0.81317  0.94132  1.0000
  C   C4291     1.0  0.56116  0.80067  0.96354  1.0000
  H   H3433     1.0  0.51619  0.91107  0.90360  1.0000
  H   H3434     1.0  0.54868  0.96628  0.66034  1.0000
  H   H3435     1.0  0.51826  0.82436  0.93664  1.0000
  H   H3436     1.0  0.49978  0.96531  0.79921  1.0000
  Fe  Fe285     1.0  0.50681  0.94759  0.72395  1.0000
  H   H3437     1.0  0.51506  0.89590  0.77627  1.0000
  H   H3438     1.0  0.52841  0.77557  0.97501  1.0000
  H   H3439     1.0  0.52494  0.90202  0.71533  1.0000
  H   H3440     1.0  0.53749  0.88518  0.74248  1.0000
  C   C4292     1.0  0.52389  0.88791  0.72089  1.0000
  H   H3441     1.0  0.55385  0.78435  0.94935  1.0000
  H   H3442     1.0  0.50763  0.89765  0.80897  1.0000
  C   C4293     1.0  0.54615  0.92568  0.65296  1.0000
  C   C4294     1.0  0.52091  0.90577  0.67785  1.0000
  C   C4295     1.0  0.53110  0.87834  0.73630  1.0000
  H   H3443     1.0  0.54609  0.88929  0.90482  1.0000
  H   H3444     1.0  0.50324  0.96495  0.91435  1.0000
  S   S573      1.0  0.54991  0.73745  0.97105  1.0000
  H   H3445     1.0  0.54532  0.88617  0.68486  1.0000
  C   C4296     1.0  0.51486  0.87960  0.71313  1.0000
  C   C4297     1.0  0.53654  0.78428  0.97631  1.0000
  H   H3446     1.0  0.89514  0.74995  0.66979  1.0000
  S   S574      1.0  0.52159  0.76136  0.93477  1.0000
  Fe  Fe286     1.0  0.50036  0.96685  0.68606  1.0000
  C   C4298     1.0  0.53464  0.86964  0.92746  1.0000
  C   C4299     1.0  0.52722  0.93226  0.65399  1.0000
  C   C4300     1.0  0.51070  0.78211  0.94165  1.0000
  C   C4301     1.0  0.50014  0.92328  0.76751  1.0000
  C   C4302     1.0  0.53374  0.88623  0.91465  1.0000
  C   C4303     1.0  0.51679  0.89866  0.91414  1.0000
  C   C4304     1.0  0.90849  0.74161  0.66502  1.0000
  H   H3447     1.0  0.53495  0.85301  0.75608  1.0000
  C   C4305     1.0  0.54003  0.89907  0.67642  1.0000
  H   H3448     1.0  0.56530  0.81584  0.98073  1.0000
  H   H3449     1.0  0.50643  0.85466  0.71530  1.0000
  C   C4306     1.0  0.50993  0.98477  0.77548  1.0000
  H   H3450     1.0  0.50001  0.92809  0.66727  1.0000
  C   C4307     1.0  0.56304  0.96665  0.65445  1.0000
  S   S575      1.0  0.52031  0.96856  0.72641  1.0000
  C   C4308     1.0  0.50312  0.97866  0.79417  1.0000
  C   C4309     1.0  0.51386  0.87196  0.66687  1.0000
  H   H3451     1.0  0.60188  0.96775  0.66626  1.0000
  Fe  Fe287     1.0  0.52577  0.73915  0.95961  1.0000
  C   C4310     1.0  0.55083  0.78931  0.96185  1.0000
  C   C4311     1.0  0.50242  0.90924  0.79898  1.0000
  C   C4312     1.0  0.59304  0.96747  0.65775  1.0000
  C   C4313     1.0  0.55720  0.80700  0.97974  1.0000
  C   C4314     1.0  0.50167  0.87784  0.93924  1.0000
  C   C4315     1.0  0.57441  0.96714  0.66543  1.0000
  Fe  Fe288     1.0  0.53523  0.96726  0.69744  1.0000
  S   S576      1.0  0.50531  0.92139  0.74464  1.0000
  H   H3452     1.0  0.51171  0.97618  0.76598  1.0000
  H   H3453     1.0  0.55527  0.73761  0.91231  1.0000
  C   C4316     1.0  0.52072  0.85182  0.73627  1.0000
  C   C4317     1.0  0.51858  0.86542  0.93969  1.0000
  C   C4318     1.0  0.51336  0.86143  0.72091  1.0000
  H   H3454     1.0  0.51943  0.83786  0.74232  1.0000
  H   H3455     1.0  0.51905  0.85232  0.94925  1.0000
  P   P144      1.0  0.50490  0.89257  0.69371  1.0000
  H   H3456     1.0  0.49937  0.80789  0.90472  1.0000
  C   C4319     1.0  0.51080  0.85979  0.65831  1.0000
  C   C4320     1.0  0.50087  0.87731  0.68217  1.0000
