data_image0
_chemical_formula_structural       HCSH2CHC3FeS2FeSCFeSFeS3CSH4C2HSCHCH2C3HC2H2C4HC2H2SHC2H7CHC6HCH5CH3C8H3C17SCH5CHCH3C2H2C3H2CSHC2HSH2FeC2H4C2H4SH2C2H3PH2C2HCHCFeC5HC2H2CSFeH3CH2C2HCH6C7PCHC2HC3SFeH2C2H5C2H3C2HPC10HSC5SH4CH3FeHC2H6CHC6PC10PC2HC2SC2HC3HC3H2CHCH3C5HCHC2SCHCH2CHC2H3CHCH5C2HC2HCHFeS2C2HCSCFeS2FeSHFeSFeHSHC3H2FeCSFeHCSH2C2HCHPC3HC4H3CHFeHSHCH2CH2C3HCHC7H2CH2CHC2HC2H3PHC5SC6H2CH3C2H4CHC5HC2HSC2H3C2H2CSC3HC2H2CHCHCH3SHC2FeH3CHCHCSFeC4H2SH6C2HC3H2C8H5SFeC6PC3SC4H2C2HCH4CPHC4H3CHC4PC13HCH2C2SHCH11CHS2CSHCSCH2C5SCHCHCHCFeHPC11HC6H2SHC2H5SCH3C2H2SC4HC3HCHFeSH2C3H2CFeC2H4SH3CH2C2HC2H2SH2C2H3SFeC2FeH3CH2CH2C8SC3HCHC2FeSC5H3FeS2FeS2FeSFeS3H2C4HCH2S2HC3HC2HCSFeC2HCH2C9H6C2HC2HC5H3C6H3C3HC2FeCHC7H2SH2C2H3SC3H3C2HC2S2H3CHCFeC4PC4H2C3HCHC4HCH3CHSHC2H4CH4C5SC4SCSHCH3CHCHC2HPC10H4C2H4FeH2CHC3H5CHC2HCHC3HCSC3H3CHSH4C3HC4H3C2HCH5CH2CHCHC2H2C3PC10PHCHCPH5CFeCHC2H5CHCH2PH2CH3CHC4HC2HCHCHPC4H2CH2FeHCH2C2SCH2CH3C4H3C2SCHCH2SCH2C4HFeS2Fe2S5FeSHFe2S2CH2FeHCFeSHFeS2FeH2CSC2HCH3CHCHCSC9H4C6H3C3HC3H2C3HC2HC2SCH2C5H3C3H5SCPCHCHC2HC2HCSC4H2CH2SC2H5CSHC2FeCSH2C3HCH2SHC2H2CH3C3HC2HC7HSC4HCHCH4CHC2H2CH3FeH2CHC3HC4H2CHCH2C3HC8PC18HC2H17CPC4HC3H2C2H2C3HCHC2H2C6HSFeCHCSHCHCH2CHPHC2SH2C2HCH2CHC2PHC2H5C4H2PH2CHCSC4HC2H3C2HCHFeCHCHCH3CHCHCH2C2HC3H2C2H2FeHCH2C4H3C4HSCH4FeC2FeSHCSFeS2FeS2HFeHS3C6H4C2H3CHCHC2H2C9HC5H3SC4SHCHC5HCH2FeHC3HSH3SCHC2PH4SHC3HCHSHC2HC6PC10H14C2SHC2HC4FeCH2CHC3HC2H2C2H2C8H2C3SCH6C3H2C3H4CHCH2PHC9H3CH2CHCHFeH2C2SHCHCHCH4C5HC2HC2SC2H2C3H2CSCFeHC3HCH2CH3C2HC2FeCHC2PC2HC2HCSC2H2FeCH4C2H2CH2CH2CH3CH2CHC2H2SH4C3HCH5C2S2CSFeSH3PFeCFeH2CH2CFeHCSCFeSFeSHSCH2CFeHFeCSCHC7HCH3C7H3C2H2C2SCS2H2CHC4HCH3C3HCHCH3PC5H3CHCH2C2HCHC4HC3SHCFeHPSH3CH2CHSH2CH2CHSHCHC2H2C4H4PHC3HCFeCHCHC2HCHCH2C4H3CH2C2HC2HC2HCHC4PC4HC2HC2SHC7HC2HC5H2PC2H5SC6PC18H11CH6FeC3HC2H2C2H2C2H3CSCHSC4H2SHCH2SC2HSCHCH2CFeH5PC2HCHCFeC2HCFeHSCSCS3H2Fe2C2HSHC2HCH4CSCFeC7H3CSC2H2C11H4C3HC3HC2HCHCPSH2CSH6C3SHC2FeCHFeCH2C4HC4H2CHC4HCH2CH2CH2SCHCH3CH3CH4C8PH2CH2C2HS2C2H3CH2C2HC3H5C3H3FeH2CSC3PC2SHC6HC4HC5H2CH3CPSH2SHCFeS2FeS2FeSFeS3H2CFeS2FeS2FeCFeCS2H2CHFeS2HCSH2C2HFeS2FeSHFeSFeS4CHCH3SCH2C6H5CHSCH2CH3C2HCHC7H5C2H5C6H4C3HC2HCPHC6H5C2HC2HC4H2CFePC2SC2H3C2PC3H2C2HC2FeH2PHC7HCH2C6SC3HPH5C3H6CPC14SC2H9CH4CHC4HCH2C8H3SCHC2HC4H2CHCSH2CH2C4H2SC2HFeHSH3CHCH2CPCHC6H3C6HC3H4FeC8H6CHC4HPC18H2CHSHCH13C6PC10H2C3H10C2HCH4SH4C3H2CH2C4H7C2HFeHC2HC4H3C7HSH2C4HC4HC9H2CHSCHSCH2C2PHCH3C2HCH3C2HC2HC2HC2H3C2PHCH2C3FeHFeSFeS2FeSCS2CHSCFe2HCS2HCH2C2H2FeHCH3C3H3C2HC3HCH2C7H4C7PC14HC3H15CH4CFeH2C2HCPC3H2SH2C4FeC9FeCHCHC3H2PSC5HC3HCH2CHCH6C2SCHCHCHSC2H2PHCHC2SCH2C2H5CH5CHSCHC6HCH2C4H2CH3CHC2PC3HCHCPC2H2C2HCSHCH2SC2HC3HC2H2SH4C4HCHCH2C2H2SCHSHSFeS2FeS2HCFeS3CH2C2HSCFeSFeS2FeS2CHCFeHSFeS2C2FeHS2CSCH2CFeSCSHCHCHC7H4C6H3C4HC2H2FeCFeH2PC7H5C2HPHFeCHC3HFeHCHC3SCHC9H3C2H8C2HC3H3CHC4HCH2CH4C2HCHCHCHC3S2HCHCHC4HC6PC2H2C11PHCH6CHCH7CH2C2HC2SH3C2HCH2CH3C6PC3HC4H2C8H3C2H4CH5CHCHCHCHCFeCHCPHSHCHC2HFeH4C3HCH2C2H2C2HCFeH2C2HCHC5HC2HC4HCH2C7H2C2HCH2SFeCH5C3HCHC3H2CHC2H2CFeHC3H3C2PH2C6SC3H2C2SHCH2CH4C3HC2H2C3HC2S2FeC2H2CHCH3CHSHC3SFeS3FeSH2SCHC3H4C2HFeH3FeH3SCHC4PH2C2H3SC6H2FeH5CFeC2H2C6H2C2HCH3C2H2C2Fe2C4SC2HPCHC2HC2HCH3C5SH2CH2CH2CHC3HCHCHCHCH2FeH2C2SC2HFeC2H2C5HCHCHCHC2HSC4HC2H2CHC4H2C2HC2H4C2H3SHCHC2H2C3PC2H2CHC2H2C2H3CH2CSCSCHCH6C3P2H2C4SHPHC2H2FeC2HC4HC2H2C4SHCH3CH2CHC2HC2H2C3HC4FeHSCH2C2H3SHC2HCHCFeC2FeS2FeSFeS2H3CS2HCH4C7H4CFeH2C3HCHCSC5H2SC5HCFeC6H4C2SCH2CH3C2H2CHC4H3C5PFeCHCHSCH5CHCH5C5SHSH2CHSCH2SC3H2SH2C4HCHCSCHCHC2HC4H3CH2C6PC4HPHC12H6C3H2PH3C2H2CHCH3C6PC8HC7H10C2PH3C2FeC3PC3H2CHCHCHC3HSHC2FeH2CH2C3SHCH2C3SCH8CHC2HC2FeCHC4FeHCFeS2FeS2FeSFeS3H2C5HC5H3CHC2H2C2H4C6H4C5H4C7SHC6HC2H2CHCHC4HCH2C2H3FeC2HC5PC9HC6FeHSCH9CHCH3CHCHC6H2CFeH3CFeHC2S2H2C2HS2HCH2FeCH7C2SHC2HSC3HCH3SC2HSH2CHPH5CHCHC3HCPCHCSCSCFeSCHSC3HCSFeS2FeCSFeSFeCS2CPH2C2SH2CHC2H3PH2SCHCH2C4HCHC3HC9H2CFeC6H5CHC5HCH2C6H3SC6PC18SCH10SH8C4HPC3HCHC12SCH5C2H12SH2C2H2CHCHCPC9HSC9H3CSH2FeHCH8FeC3SCHCHCHC2H3C2H2C2H2CHCFeCFeHCHCHC2HC4HC3HCH2C2H2C4H3CH2C7SH2SHCH2C2H2CH2CH2C6PC9H6FeH5SCH3CHFeHCHC4HSHCHCSHCH2CHC2H3CH3C3HC5HCHC2HC5H3SHCSH2PC2HCHC2H3C3HFeSFeS2FeSFeSFeCS2HCH3CH8C8H4CSCH2C2H3C3H2C2H3C7H8C3HC2HC4H2C2HC3HC8H2C2HPH4CHCH4CHSHCH2C2H2CHC2HC3H2CH2CHCHCH2SH2C2HC4HCPC9PC3HC2HC11H6SCH4CH3CH3CH3CHCH3CSC3HCHCH2CH4C4HC2H2CHC2HC2HCHC2HCFeCSCHSCHS2FeSHFeSHFeSFeS2HC4HCSHCHCFeC2HC2HC2SCHCHCHCH2C2HS2HSHCHC4FeC2HCFeHCHC7H4C2HC10PC2PC2HC12H19C3FeC2PC4H2CHC2HC3H2CH6CSHCHCH2C2H7CHC4SHCHCHC2H3C4HC2FeCHCPC2HCH2SH4CH2CHC2SCHCH2SC6H2CH2CH2C2HCSCHCH4CH4CSH2C3HC2FeCHSC3HC4HC2FeHC3H4FeHCH3CSPC8H4C2HPC5H2CH7C5H2CSHC2H2CHSC2H3
_chemical_formula_sum              "H2304 C2880 S384 Fe192 P96"
_cell_length_a       63.0924
_cell_length_b       63.9944
_cell_length_c       65.6002
_cell_angle_alpha    75.727
_cell_angle_beta     80.2376
_cell_angle_gamma    79.0975

_space_group_name_H-M_alt    "P 1"
_space_group_IT_number       1

loop_
  _space_group_symop_operation_xyz
  'x, y, z'

loop_
  _atom_site_type_symbol
  _atom_site_label
  _atom_site_symmetry_multiplicity
  _atom_site_fract_x
  _atom_site_fract_y
  _atom_site_fract_z
  _atom_site_occupancy
  H   H1        1.0  0.38458  0.33930  0.04093  1.0000
  C   C1        1.0  0.35570  0.04584  0.15238  1.0000
  S   S1        1.0  0.47798  0.04927  0.22610  1.0000
  H   H2        1.0  0.13900  0.46918  0.99610  1.0000
  H   H3        1.0  0.41101  0.23896  0.09983  1.0000
  C   C2        1.0  0.47838  0.00269  0.11330  1.0000
  H   H4        1.0  0.41327  0.35187  0.00824  1.0000
  C   C3        1.0  0.47041  0.24505  0.09192  1.0000
  C   C4        1.0  0.10912  0.45245  0.08565  1.0000
  C   C5        1.0  0.40724  0.18884  0.13053  1.0000
  Fe  Fe1       1.0  0.45690  0.09501  0.07832  1.0000
  S   S2        1.0  0.43589  0.06986  0.07994  1.0000
  S   S3        1.0  0.47651  0.09549  0.10371  1.0000
  Fe  Fe2       1.0  0.45118  0.11625  0.03289  1.0000
  S   S4        1.0  0.42935  0.09351  0.03006  1.0000
  C   C6        1.0  0.13255  0.44207  0.12030  1.0000
  Fe  Fe3       1.0  0.41381  0.09785  0.06242  1.0000
  S   S5        1.0  0.37771  0.10039  0.07252  1.0000
  Fe  Fe4       1.0  0.45315  0.06763  0.04757  1.0000
  S   S6        1.0  0.46601  0.03557  0.03837  1.0000
  S   S7        1.0  0.43335  0.12321  0.06367  1.0000
  S   S8        1.0  0.47630  0.09016  0.04752  1.0000
  C   C7        1.0  0.39822  0.27160  0.08431  1.0000
  S   S9        1.0  0.24669  0.46153  0.04396  1.0000
  H   H5        1.0  0.00670  0.42754  0.12496  1.0000
  H   H6        1.0  0.33648  0.40127  0.07903  1.0000
  H   H7        1.0  0.39911  0.00228  0.21124  1.0000
  H   H8        1.0  0.41478  0.18316  0.14503  1.0000
  C   C8        1.0  0.14789  0.47888  0.13926  1.0000
  C   C9        1.0  0.28218  0.38489  0.04487  1.0000
  H   H9        1.0  0.38150  0.08091  0.23183  1.0000
  S   S10       1.0  0.38320  0.39184  0.01401  1.0000
  C   C10       1.0  0.03479  0.46897  0.12146  1.0000
  H   H10       1.0  0.32377  0.07776  0.00509  1.0000
  C   C11       1.0  0.32496  0.42810  0.02960  1.0000
  H   H11       1.0  0.30284  0.18957  0.06346  1.0000
  H   H12       1.0  0.30856  0.15333  0.08794  1.0000
  C   C12       1.0  0.41153  0.25138  0.08521  1.0000
  C   C13       1.0  0.37646  0.33445  0.02996  1.0000
  C   C14       1.0  0.41966  0.18752  0.11100  1.0000
  H   H13       1.0  0.14126  0.43766  0.13397  1.0000
  C   C15       1.0  0.11921  0.43106  0.09261  1.0000
  C   C16       1.0  0.00864  0.48782  0.22270  1.0000
  H   H14       1.0  0.37189  0.16360  0.09486  1.0000
  H   H15       1.0  0.41973  0.19228  0.07757  1.0000
  C   C17       1.0  0.27414  0.41563  0.01580  1.0000
  C   C18       1.0  0.36168  0.12068  0.05577  1.0000
  C   C19       1.0  0.37105  0.13621  0.03953  1.0000
  C   C20       1.0  0.35769  0.15343  0.02760  1.0000
  H   H16       1.0  0.23426  0.42709  0.00466  1.0000
  C   C21       1.0  0.32575  0.13873  0.04732  1.0000
  C   C22       1.0  0.33905  0.12175  0.05936  1.0000
  H   H17       1.0  0.38855  0.13521  0.03648  1.0000
  H   H18       1.0  0.39010  0.02422  0.05288  1.0000
  S   S11       1.0  0.30098  0.43416  0.06798  1.0000
  H   H19       1.0  0.33175  0.10963  0.07171  1.0000
  C   C23       1.0  0.33106  0.06376  0.03688  1.0000
  C   C24       1.0  0.42650  0.26341  0.04853  1.0000
  H   H20       1.0  0.01766  0.36548  0.19065  1.0000
  H   H21       1.0  0.47670  0.05923  0.14819  1.0000
  H   H22       1.0  0.35710  0.02211  0.20879  1.0000
  H   H23       1.0  0.34551  0.27311  0.01770  1.0000
  H   H24       1.0  0.36498  0.16578  0.01549  1.0000
  H   H25       1.0  0.36006  0.24419  0.09232  1.0000
  H   H26       1.0  0.28478  0.37872  0.06134  1.0000
  C   C25       1.0  0.46694  0.16803  0.05147  1.0000
  H   H27       1.0  0.41972  0.04625  0.04770  1.0000
  C   C26       1.0  0.44217  0.13003  0.15635  1.0000
  C   C27       1.0  0.46328  0.11854  0.15723  1.0000
  C   C28       1.0  0.47366  0.10817  0.14091  1.0000
  C   C29       1.0  0.46290  0.10889  0.12374  1.0000
  C   C30       1.0  0.44170  0.12028  0.12278  1.0000
  C   C31       1.0  0.43143  0.13103  0.13898  1.0000
  H   H28       1.0  0.48773  0.27958  0.00115  1.0000
  C   C32       1.0  0.47705  0.15289  0.06755  1.0000
  H   H29       1.0  0.43320  0.12076  0.10967  1.0000
  H   H30       1.0  0.41503  0.13974  0.13828  1.0000
  H   H31       1.0  0.40424  0.23344  0.03991  1.0000
  H   H32       1.0  0.48552  0.26997  0.06909  1.0000
  H   H33       1.0  0.43481  0.02479  0.11054  1.0000
  C   C33       1.0  0.35646  0.39678  0.04996  1.0000
  H   H34       1.0  0.34794  0.35828  0.03427  1.0000
  H   H35       1.0  0.36873  0.38491  0.05796  1.0000
  H   H36       1.0  0.43805  0.26014  0.03512  1.0000
  C   C34       1.0  0.32258  0.42196  0.05185  1.0000
  C   C35       1.0  0.16828  0.47911  0.16754  1.0000
  C   C36       1.0  0.33498  0.15488  0.03172  1.0000
  C   C37       1.0  0.34320  0.05720  0.13622  1.0000
  C   C38       1.0  0.04166  0.45690  0.08832  1.0000
  C   C39       1.0  0.36687  0.06619  0.04373  1.0000
  C   C40       1.0  0.38470  0.06371  0.20675  1.0000
  C   C41       1.0  0.31051  0.14289  0.98802  1.0000
  H   H37       1.0  0.30033  0.14902  0.00098  1.0000
  H   H38       1.0  0.37294  0.43902  0.04304  1.0000
  H   H39       1.0  0.43245  0.22484  0.01095  1.0000
  C   C42       1.0  0.03218  0.39479  0.18324  1.0000
  C   C43       1.0  0.02539  0.37604  0.19672  1.0000
  C   C44       1.0  0.16747  0.47158  0.12754  1.0000
  C   C45       1.0  0.48618  0.14425  0.99424  1.0000
  C   C46       1.0  0.04383  0.40421  0.21291  1.0000
  C   C47       1.0  0.04152  0.40870  0.19124  1.0000
  C   C48       1.0  0.47948  0.17746  0.03302  1.0000
  C   C49       1.0  0.06572  0.46980  0.16479  1.0000
  C   C50       1.0  0.08113  0.42805  0.20734  1.0000
  C   C51       1.0  0.09200  0.41458  0.19358  1.0000
  C   C52       1.0  0.11212  0.41847  0.18189  1.0000
  C   C53       1.0  0.12183  0.43549  0.18420  1.0000
  C   C54       1.0  0.37195  0.07667  0.02257  1.0000
  C   C55       1.0  0.09113  0.44502  0.20965  1.0000
  C   C56       1.0  0.02799  0.44113  0.09728  1.0000
  C   C57       1.0  0.41170  0.99447  0.05052  1.0000
  C   C58       1.0  0.36985  0.46821  0.01823  1.0000
  S   S12       1.0  0.00910  0.45151  0.15697  1.0000
  C   C59       1.0  0.01996  0.45415  0.21054  1.0000
  H   H40       1.0  0.02544  0.43024  0.08797  1.0000
  H   H41       1.0  0.38950  0.01170  0.14588  1.0000
  H   H42       1.0  0.30615  0.11718  0.21943  1.0000
  H   H43       1.0  0.49006  0.09943  0.14173  1.0000
  H   H44       1.0  0.02973  0.39887  0.16665  1.0000
  C   C60       1.0  0.16300  0.47217  0.01418  1.0000
  H   H45       1.0  0.15904  0.47680  0.07650  1.0000
  C   C61       1.0  0.34322  0.41849  0.01755  1.0000
  H   H46       1.0  0.04649  0.42321  0.18053  1.0000
  H   H47       1.0  0.08518  0.40087  0.19194  1.0000
  H   H48       1.0  0.12026  0.40812  0.17117  1.0000
  C   C62       1.0  0.47738  0.01589  0.09286  1.0000
  C   C63       1.0  0.48245  0.22844  0.99317  1.0000
  H   H49       1.0  0.38770  0.08189  0.01765  1.0000
  H   H50       1.0  0.40960  0.26711  0.00716  1.0000
  C   C64       1.0  0.02089  0.45347  0.13035  1.0000
  C   C65       1.0  0.00601  0.47390  0.21027  1.0000
  C   C66       1.0  0.40704  0.03946  0.99120  1.0000
  H   H51       1.0  0.05431  0.45865  0.16625  1.0000
  H   H52       1.0  0.43596  0.23164  0.06792  1.0000
  C   C67       1.0  0.36423  0.45538  0.03834  1.0000
  S   S13       1.0  0.26551  0.49046  0.06947  1.0000
  H   H53       1.0  0.34344  0.14015  0.10295  1.0000
  C   C68       1.0  0.35555  0.34525  0.02631  1.0000
  C   C69       1.0  0.44524  0.01956  0.04344  1.0000
  H   H54       1.0  0.33087  0.21331  0.05513  1.0000
  S   S14       1.0  0.42930  0.14349  0.17664  1.0000
  H   H55       1.0  0.35752  0.20798  0.11409  1.0000
  H   H56       1.0  0.46341  0.25566  0.10272  1.0000
  Fe  Fe5       1.0  0.23373  0.49045  0.05829  1.0000
  C   C70       1.0  0.39688  0.99594  0.19802  1.0000
  C   C71       1.0  0.13096  0.42586  0.10992  1.0000
  H   H57       1.0  0.33014  0.05019  0.13294  1.0000
  H   H58       1.0  0.04656  0.48611  0.18831  1.0000
  H   H59       1.0  0.34267  0.05165  0.06735  1.0000
  H   H60       1.0  0.39878  0.03610  0.09801  1.0000
  C   C72       1.0  0.32087  0.16386  0.08467  1.0000
  C   C73       1.0  0.40687  0.01675  0.05026  1.0000
  H   H61       1.0  0.41502  0.16117  0.02182  1.0000
  H   H62       1.0  0.46735  0.14500  0.08163  1.0000
  H   H63       1.0  0.44935  0.17177  0.05290  1.0000
  H   H64       1.0  0.11765  0.41852  0.08471  1.0000
  S   S15       1.0  0.31772  0.17695  0.01814  1.0000
  H   H65       1.0  0.45340  0.05819  0.12187  1.0000
  H   H66       1.0  0.27516  0.41832  0.04760  1.0000
  C   C74       1.0  0.46120  0.02922  0.23316  1.0000
  C   C75       1.0  0.34777  0.07746  0.12404  1.0000
  H   H67       1.0  0.28815  0.35320  0.03744  1.0000
  H   H68       1.0  0.36068  0.23439  0.02935  1.0000
  H   H69       1.0  0.39629  0.07349  0.19657  1.0000
  P   P1        1.0  0.05545  0.42272  0.22314  1.0000
  H   H70       1.0  0.47153  0.18842  0.02021  1.0000
  H   H71       1.0  0.08747  0.45682  0.14067  1.0000
  C   C76       1.0  0.46048  0.05506  0.15346  1.0000
  C   C77       1.0  0.46730  0.22318  0.09734  1.0000
  H   H72       1.0  0.43773  0.18879  0.00180  1.0000
  C   C78       1.0  0.35324  0.19070  0.07507  1.0000
  H   H73       1.0  0.38287  0.46127  0.00781  1.0000
  C   C79       1.0  0.27692  0.40731  0.03710  1.0000
  Fe  Fe6       1.0  0.27907  0.46361  0.05226  1.0000
  C   C80       1.0  0.35427  0.03935  0.23352  1.0000
  C   C81       1.0  0.35912  0.40305  0.02783  1.0000
  C   C82       1.0  0.34693  0.46331  0.05213  1.0000
  C   C83       1.0  0.34485  0.33995  0.01175  1.0000
  C   C84       1.0  0.37312  0.05455  0.15616  1.0000
  H   H74       1.0  0.47134  0.24311  0.01994  1.0000
  C   C85       1.0  0.42563  0.24729  0.06729  1.0000
  C   C86       1.0  0.37607  0.31313  0.00426  1.0000
  H   H75       1.0  0.20308  0.46960  0.16174  1.0000
  H   H76       1.0  0.45793  0.21686  0.11233  1.0000
  C   C87       1.0  0.31758  0.18436  0.07098  1.0000
  S   S16       1.0  0.05510  0.45867  0.06220  1.0000
  Fe  Fe7       1.0  0.44024  0.12600  0.20846  1.0000
  H   H77       1.0  0.34224  0.45317  0.06752  1.0000
  H   H78       1.0  0.34435  0.28274  0.08046  1.0000
  H   H79       1.0  0.35198  0.03015  0.16164  1.0000
  C   C88       1.0  0.03947  0.46220  0.23572  1.0000
  H   H80       1.0  0.08343  0.45537  0.22041  1.0000
  H   H81       1.0  0.34162  0.12123  0.22846  1.0000
  C   C89       1.0  0.33370  0.19773  0.06612  1.0000
  C   C90       1.0  0.33821  0.40603  0.06189  1.0000
  H   H82       1.0  0.38728  0.16897  0.05147  1.0000
  C   C91       1.0  0.34650  0.05966  0.05089  1.0000
  H   H83       1.0  0.13864  0.40922  0.11539  1.0000
  H   H84       1.0  0.33104  0.11965  0.00844  1.0000
  H   H85       1.0  0.43572  0.37738  0.01293  1.0000
  H   H86       1.0  0.43675  0.18057  0.11050  1.0000
  H   H87       1.0  0.37769  0.00810  0.09501  1.0000
  H   H88       1.0  0.37870  0.06341  0.05469  1.0000
  C   C92       1.0  0.40984  0.19412  0.09238  1.0000
  C   C93       1.0  0.43904  0.36024  0.02064  1.0000
  C   C94       1.0  0.45593  0.35267  0.03316  1.0000
  C   C95       1.0  0.45996  0.33057  0.04309  1.0000
  C   C96       1.0  0.44728  0.31600  0.04030  1.0000
  C   C97       1.0  0.43007  0.32359  0.02796  1.0000
  C   C98       1.0  0.42624  0.34574  0.01801  1.0000
  P   P2        1.0  0.41436  0.30476  0.02332  1.0000
  C   C99       1.0  0.38701  0.31834  0.01889  1.0000
  H   H89       1.0  0.11895  0.46177  0.20012  1.0000
  C   C100      1.0  0.37622  0.06811  0.22666  1.0000
  C   C101      1.0  0.14847  0.48266  0.15936  1.0000
  H   H90       1.0  0.16765  0.46900  0.11180  1.0000
  C   C102      1.0  0.08453  0.46901  0.15011  1.0000
  C   C103      1.0  0.41265  0.28351  0.04725  1.0000
  C   C104      1.0  0.39867  0.28756  0.06540  1.0000
  S   S17       1.0  0.42613  0.09551  0.22402  1.0000
  Fe  Fe8       1.0  0.25541  0.48628  0.01470  1.0000
  H   H91       1.0  0.47316  0.32471  0.05268  1.0000
  H   H92       1.0  0.45102  0.29887  0.04765  1.0000
  C   C105      1.0  0.48867  0.21754  0.06427  1.0000
  C   C106      1.0  0.47051  0.00745  0.23436  1.0000
  H   H93       1.0  0.46592  0.36393  0.03504  1.0000
  H   H94       1.0  0.31293  0.44037  0.02172  1.0000
  H   H95       1.0  0.45846  0.04748  0.99251  1.0000
  H   H96       1.0  0.38829  0.30312  0.06510  1.0000
  H   H97       1.0  0.38745  0.27490  0.09827  1.0000
  C   C107      1.0  0.39271  0.01010  0.17858  1.0000
  C   C108      1.0  0.02792  0.37125  0.21819  1.0000
  H   H98       1.0  0.32891  0.34876  0.00851  1.0000
  H   H99       1.0  0.33736  0.29744  0.04315  1.0000
  H   H100      1.0  0.09962  0.45645  0.07249  1.0000
  C   C109      1.0  0.01735  0.43961  0.11819  1.0000
  C   C110      1.0  0.28412  0.37060  0.03140  1.0000
  H   H101      1.0  0.01713  0.44375  0.20094  1.0000
  P   P3        1.0  0.39070  0.03925  0.17556  1.0000
  C   C111      1.0  0.37856  0.04653  0.20040  1.0000
  C   C112      1.0  0.41802  0.04548  0.16699  1.0000
  C   C113      1.0  0.43168  0.04532  0.18182  1.0000
  C   C114      1.0  0.45273  0.05033  0.17506  1.0000
  C   C115      1.0  0.48287  0.25314  0.07278  1.0000
  C   C116      1.0  0.44724  0.05461  0.13860  1.0000
  C   C117      1.0  0.42612  0.04976  0.14529  1.0000
  C   C118      1.0  0.36266  0.03493  0.21362  1.0000
  C   C119      1.0  0.03701  0.44816  0.22309  1.0000
  C   C120      1.0  0.18724  0.46829  0.13562  1.0000
  H   H102      1.0  0.31516  0.05895  0.04250  1.0000
  S   S18       1.0  0.45978  0.14491  0.00781  1.0000
  C   C121      1.0  0.12276  0.46371  0.11312  1.0000
  C   C122      1.0  0.37687  0.07541  0.14456  1.0000
  C   C123      1.0  0.36443  0.08665  0.12839  1.0000
  C   C124      1.0  0.34050  0.15646  0.09315  1.0000
  C   C125      1.0  0.35665  0.08062  0.00828  1.0000
  S   S19       1.0  0.47467  0.11130  0.21368  1.0000
  H   H103      1.0  0.37527  0.19696  0.14678  1.0000
  H   H104      1.0  0.30824  0.13965  0.05040  1.0000
  H   H105      1.0  0.15584  0.46244  0.02877  1.0000
  H   H106      1.0  0.42061  0.05826  0.00746  1.0000
  C   C126      1.0  0.11138  0.44869  0.19815  1.0000
  H   H107      1.0  0.42613  0.04129  0.19859  1.0000
  H   H108      1.0  0.47182  0.11794  0.17031  1.0000
  H   H109      1.0  0.43140  0.05139  0.23698  1.0000
  Fe  Fe9       1.0  0.46012  0.08163  0.23125  1.0000
  H   H110      1.0  0.41613  0.04951  0.13351  1.0000
  C   C127      1.0  0.11084  0.46865  0.09591  1.0000
  C   C128      1.0  0.35664  0.16979  0.08839  1.0000
  H   H111      1.0  0.20229  0.46332  0.12603  1.0000
  H   H112      1.0  0.13753  0.43831  0.17530  1.0000
  H   H113      1.0  0.16868  0.48211  0.18300  1.0000
  H   H114      1.0  0.38976  0.08284  0.14762  1.0000
  H   H115      1.0  0.36806  0.10229  0.11883  1.0000
  H   H116      1.0  0.33858  0.08603  0.11108  1.0000
  C   C129      1.0  0.42360  0.02915  0.04737  1.0000
  H   H117      1.0  0.03776  0.47958  0.13078  1.0000
  C   C130      1.0  0.41274  0.17680  0.02614  1.0000
  C   C131      1.0  0.42560  0.19244  0.01478  1.0000
  C   C132      1.0  0.42262  0.21275  0.01992  1.0000
  C   C133      1.0  0.40665  0.21751  0.03633  1.0000
  C   C134      1.0  0.39358  0.20192  0.04775  1.0000
  C   C135      1.0  0.39691  0.18139  0.04276  1.0000
  P   P4        1.0  0.37397  0.20802  0.06964  1.0000
  C   C136      1.0  0.38740  0.20207  0.09317  1.0000
  C   C137      1.0  0.36174  0.23630  0.06175  1.0000
  C   C138      1.0  0.35691  0.25014  0.07607  1.0000
  C   C139      1.0  0.34807  0.27210  0.06937  1.0000
  C   C140      1.0  0.34412  0.28042  0.04834  1.0000
  C   C141      1.0  0.34874  0.26675  0.03401  1.0000
  C   C142      1.0  0.35740  0.24478  0.04069  1.0000
  C   C143      1.0  0.37500  0.20298  0.11294  1.0000
  C   C144      1.0  0.38494  0.19659  0.13150  1.0000
  C   C145      1.0  0.03679  0.38541  0.22640  1.0000
  P   P5        1.0  0.12268  0.48422  0.12778  1.0000
  C   C146      1.0  0.02534  0.48195  0.23550  1.0000
  C   C147      1.0  0.04485  0.47092  0.10046  1.0000
  H   H118      1.0  0.40861  0.14273  0.99469  1.0000
  C   C148      1.0  0.18766  0.47200  0.15563  1.0000
  C   C149      1.0  0.43865  0.03473  0.23741  1.0000
  S   S20       1.0  0.28905  0.48584  0.02146  1.0000
  C   C150      1.0  0.33605  0.07430  0.01569  1.0000
  C   C151      1.0  0.33502  0.48396  0.04574  1.0000
  H   H119      1.0  0.37405  0.12946  0.99637  1.0000
  C   C152      1.0  0.42269  0.27485  0.99708  1.0000
  C   C153      1.0  0.15351  0.47607  0.99555  1.0000
  C   C154      1.0  0.42810  0.29380  0.00074  1.0000
  H   H120      1.0  0.39055  0.04348  0.99854  1.0000
  C   C155      1.0  0.39331  0.00318  0.10095  1.0000
  C   C156      1.0  0.40525  0.01890  0.10252  1.0000
  C   C157      1.0  0.45017  0.99729  0.04327  1.0000
  H   H121      1.0  0.45480  0.00934  0.15383  1.0000
  H   H122      1.0  0.05541  0.48300  0.09384  1.0000
  C   C158      1.0  0.06123  0.48539  0.17715  1.0000
  H   H123      1.0  0.02224  0.35690  0.22861  1.0000
  C   C159      1.0  0.48541  0.23642  0.01036  1.0000
  H   H124      1.0  0.46303  0.05070  0.18658  1.0000
  H   H125      1.0  0.18909  0.47798  0.02848  1.0000
  H   H126      1.0  0.27054  0.43317  0.00997  1.0000
  C   C160      1.0  0.31074  0.10941  0.23503  1.0000
  C   C161      1.0  0.35837  0.48932  0.01190  1.0000
  C   C162      1.0  0.18156  0.48110  0.01412  1.0000
  C   C163      1.0  0.49289  0.00599  0.12588  1.0000
  C   C164      1.0  0.09880  0.48420  0.14741  1.0000
  H   H127      1.0  0.46706  0.01305  0.08251  1.0000
  C   C165      1.0  0.42395  0.04764  0.99639  1.0000
  H   H128      1.0  0.48825  0.04349  0.07009  1.0000
  C   C166      1.0  0.27575  0.40142  0.00220  1.0000
  C   C167      1.0  0.35503  0.32378  0.00089  1.0000
  S   S21       1.0  0.20073  0.48884  0.07799  1.0000
  C   C168      1.0  0.47633  0.20947  0.08345  1.0000
  H   H129      1.0  0.34537  0.42347  0.00046  1.0000
  C   C169      1.0  0.42579  0.01244  0.10941  1.0000
  H   H130      1.0  0.47403  0.19248  0.08767  1.0000
  H   H131      1.0  0.38376  0.30124  0.99505  1.0000
  C   C170      1.0  0.28078  0.37879  0.01016  1.0000
  H   H132      1.0  0.13384  0.48841  0.16877  1.0000
  C   C171      1.0  0.49223  0.23937  0.05891  1.0000
  C   C172      1.0  0.48938  0.03316  0.08576  1.0000
  H   H133      1.0  0.48799  0.00317  0.23168  1.0000
  H   H134      1.0  0.10261  0.48495  0.09057  1.0000
  H   H135      1.0  0.28225  0.36739  0.00009  1.0000
  C   C173      1.0  0.32787  0.12597  0.99217  1.0000
  H   H136      1.0  0.47509  0.39210  0.99373  1.0000
  C   C174      1.0  0.20642  0.43421  0.98826  1.0000
  H   H137      1.0  0.45013  0.00124  0.19296  1.0000
  H   H138      1.0  0.19551  0.43864  0.00166  1.0000
  H   H139      1.0  0.46632  0.22875  0.98944  1.0000
  H   H140      1.0  0.34681  0.31982  0.98944  1.0000
  H   H141      1.0  0.32111  0.48989  0.05613  1.0000
  C   C175      1.0  0.22856  0.42749  0.98993  1.0000
  C   C176      1.0  0.39172  0.00122  0.16127  1.0000
  H   H142      1.0  0.44801  0.31940  0.98835  1.0000
  C   C177      1.0  0.45421  0.99274  0.16252  1.0000
  C   C178      1.0  0.44538  0.04168  0.98776  1.0000
  H   H143      1.0  0.24362  0.01174  0.46582  1.0000
  C   C179      1.0  0.29403  0.08869  0.32152  1.0000
  H   H144      1.0  0.36407  0.09038  0.31631  1.0000
  Fe  Fe10      1.0  0.08382  0.31540  0.44749  1.0000
  S   S22       1.0  0.11369  0.29753  0.46211  1.0000
  S   S23       1.0  0.08567  0.33841  0.41554  1.0000
  C   C180      1.0  0.02134  0.07283  0.40668  1.0000
  C   C181      1.0  0.48354  0.04198  0.29389  1.0000
  H   H145      1.0  0.02421  0.30132  0.45639  1.0000
  C   C182      1.0  0.45758  0.05791  0.36296  1.0000
  S   S24       1.0  0.06719  0.28601  0.45500  1.0000
  C   C183      1.0  0.07784  0.46541  0.46974  1.0000
  Fe  Fe11      1.0  0.06221  0.11759  0.45575  1.0000
  S   S25       1.0  0.06180  0.14934  0.43172  1.0000
  S   S26       1.0  0.32476  0.02428  0.36886  1.0000
  Fe  Fe12      1.0  0.01342  0.11978  0.46112  1.0000
  S   S27       1.0  0.00887  0.15164  0.43750  1.0000
  H   H146      1.0  0.01452  0.48991  0.44270  1.0000
  Fe  Fe13      1.0  0.03795  0.13656  0.41815  1.0000
  S   S28       1.0  0.03885  0.14220  0.38288  1.0000
  Fe  Fe14      1.0  0.03314  0.16124  0.45334  1.0000
  H   H147      1.0  0.12523  0.03121  0.46652  1.0000
  S   S29       1.0  0.04049  0.10373  0.44044  1.0000
  H   H148      1.0  0.42130  0.02194  0.46595  1.0000
  C   C184      1.0  0.16784  0.01718  0.43062  1.0000
  C   C185      1.0  0.99923  0.43221  0.45109  1.0000
  C   C186      1.0  0.33692  0.10127  0.25998  1.0000
  H   H149      1.0  0.43810  0.08105  0.38039  1.0000
  H   H150      1.0  0.07230  0.47615  0.43700  1.0000
  Fe  Fe15      1.0  0.42231  0.10703  0.25428  1.0000
  C   C187      1.0  0.21594  0.07406  0.35126  1.0000
  S   S30       1.0  0.39308  0.10620  0.27948  1.0000
  Fe  Fe16      1.0  0.12303  0.04990  0.34870  1.0000
  H   H151      1.0  0.40782  0.02302  0.24437  1.0000
  C   C188      1.0  0.23543  0.10268  0.35274  1.0000
  S   S31       1.0  0.45511  0.09029  0.26297  1.0000
  H   H152      1.0  0.05385  0.02753  0.39412  1.0000
  H   H153      1.0  0.35525  0.05865  0.25579  1.0000
  C   C189      1.0  0.06885  0.47993  0.45259  1.0000
  C   C190      1.0  0.22980  0.08924  0.34133  1.0000
  H   H154      1.0  0.17165  0.01649  0.41408  1.0000
  C   C191      1.0  0.42205  0.02031  0.44980  1.0000
  H   H155      1.0  0.31169  0.03129  0.31160  1.0000
  P   P6        1.0  0.02722  0.03262  0.43510  1.0000
  C   C192      1.0  0.21175  0.09284  0.28473  1.0000
  C   C193      1.0  0.08684  0.09363  0.36835  1.0000
  C   C194      1.0  0.26122  0.00397  0.35756  1.0000
  H   H156      1.0  0.30111  0.10214  0.34624  1.0000
  C   C195      1.0  0.05884  0.12551  0.36932  1.0000
  C   C196      1.0  0.07226  0.10746  0.37995  1.0000
  C   C197      1.0  0.07512  0.11647  0.33568  1.0000
  C   C198      1.0  0.06054  0.13006  0.34719  1.0000
  H   H157      1.0  0.07089  0.10373  0.39708  1.0000
  H   H158      1.0  0.07601  0.11993  0.31858  1.0000
  H   H159      1.0  0.05021  0.14391  0.33890  1.0000
  C   C199      1.0  0.24834  0.10146  0.27985  1.0000
  H   H160      1.0  0.01780  0.35500  0.39257  1.0000
  Fe  Fe17      1.0  0.13010  0.99968  0.35967  1.0000
  H   H161      1.0  0.20863  0.05886  0.29650  1.0000
  S   S32       1.0  0.02639  0.19382  0.46244  1.0000
  H   H162      1.0  0.02889  0.23752  0.33714  1.0000
  C   C200      1.0  0.03010  0.35519  0.35994  1.0000
  H   H163      1.0  0.48701  0.05939  0.31680  1.0000
  H   H164      1.0  0.48623  0.00150  0.46293  1.0000
  C   C201      1.0  0.06432  0.23177  0.47537  1.0000
  H   H165      1.0  0.24934  0.01245  0.32715  1.0000
  H   H166      1.0  0.00942  0.34037  0.48199  1.0000
  C   C202      1.0  0.18417  0.01057  0.44404  1.0000
  C   C203      1.0  0.07052  0.19311  0.46105  1.0000
  C   C204      1.0  0.08855  0.20209  0.46308  1.0000
  H   H167      1.0  0.00763  0.04517  0.47572  1.0000
  C   C205      1.0  0.02588  0.34527  0.38135  1.0000
  H   H168      1.0  0.07299  0.17817  0.45549  1.0000
  C   C206      1.0  0.06877  0.38408  0.46987  1.0000
  C   C207      1.0  0.06128  0.35677  0.41347  1.0000
  C   C208      1.0  0.05994  0.37515  0.39665  1.0000
  C   C209      1.0  0.04079  0.39048  0.39561  1.0000
  C   C210      1.0  0.02309  0.38746  0.41149  1.0000
  C   C211      1.0  0.02428  0.36887  0.42800  1.0000
  C   C212      1.0  0.04324  0.35341  0.42885  1.0000
  H   H169      1.0  0.07379  0.37769  0.38463  1.0000
  H   H170      1.0  0.03991  0.40483  0.38282  1.0000
  C   C213      1.0  0.46930  0.03348  0.28516  1.0000
  H   H171      1.0  0.04375  0.33880  0.44129  1.0000
  H   H172      1.0  0.20065  0.00509  0.43779  1.0000
  C   C214      1.0  0.30264  0.08702  0.27034  1.0000
  H   H173      1.0  0.40200  0.04814  0.40400  1.0000
  C   C215      1.0  0.05379  0.99459  0.42824  1.0000
  C   C216      1.0  0.25551  0.00160  0.37944  1.0000
  H   H174      1.0  0.23624  0.09047  0.32483  1.0000
  C   C217      1.0  0.02545  0.26089  0.42167  1.0000
  C   C218      1.0  0.38444  0.04365  0.28652  1.0000
  H   H175      1.0  0.47973  0.03230  0.35052  1.0000
  H   H176      1.0  0.09376  0.39503  0.24087  1.0000
  H   H177      1.0  0.23310  0.04699  0.40297  1.0000
  P   P7        1.0  0.28492  0.07059  0.28965  1.0000
  H   H178      1.0  0.10482  0.19413  0.45891  1.0000
  C   C219      1.0  0.06101  0.41044  0.24998  1.0000
  C   C220      1.0  0.36996  0.07723  0.30814  1.0000
  C   C221      1.0  0.08806  0.09805  0.34617  1.0000
  C   C222      1.0  0.03222  0.00470  0.43224  1.0000
  C   C223      1.0  0.22306  0.01502  0.35250  1.0000
  S   S33       1.0  0.00112  0.48917  0.32573  1.0000
  C   C224      1.0  0.36216  0.05721  0.31576  1.0000
  C   C225      1.0  0.00718  0.20960  0.38694  1.0000
  C   C226      1.0  0.04524  0.04401  0.39243  1.0000
  C   C227      1.0  0.29324  0.04343  0.28495  1.0000
  C   C228      1.0  0.14640  0.02384  0.43901  1.0000
  C   C229      1.0  0.05152  0.20044  0.39221  1.0000
  H   H179      1.0  0.06562  0.37501  0.48604  1.0000
  H   H180      1.0  0.24634  0.11429  0.34499  1.0000
  C   C230      1.0  0.38510  0.08042  0.28980  1.0000
  H   H181      1.0  0.09671  0.07932  0.37657  1.0000
  H   H182      1.0  0.27156  0.04396  0.36726  1.0000
  H   H183      1.0  0.03015  0.23081  0.47788  1.0000
  C   C231      1.0  0.28627  0.07150  0.31673  1.0000
  C   C232      1.0  0.41109  0.03532  0.41480  1.0000
  H   H184      1.0  0.07734  0.30637  0.39311  1.0000
  H   H185      1.0  0.28707  0.07327  0.37549  1.0000
  H   H186      1.0  0.35390  0.07187  0.36972  1.0000
  H   H187      1.0  0.35021  0.05496  0.32971  1.0000
  C   C233      1.0  0.17873  0.01020  0.46571  1.0000
  H   H188      1.0  0.03200  0.45902  0.46835  1.0000
  C   C234      1.0  0.14569  0.16557  0.45427  1.0000
  C   C235      1.0  0.14073  0.17344  0.43346  1.0000
  C   C236      1.0  0.13416  0.15967  0.42297  1.0000
  C   C237      1.0  0.13298  0.13794  0.43313  1.0000
  C   C238      1.0  0.13795  0.13005  0.45387  1.0000
  H   H189      1.0  0.03771  0.40791  0.30120  1.0000
  C   C239      1.0  0.36913  0.04054  0.30470  1.0000
  C   C240      1.0  0.47467  0.04025  0.36367  1.0000
  H   H190      1.0  0.35260  0.10274  0.26371  1.0000
  S   S34       1.0  0.35768  0.01641  0.31225  1.0000
  C   C241      1.0  0.01853  0.37137  0.48067  1.0000
  C   C242      1.0  0.47512  0.00149  0.47745  1.0000
  H   H191      1.0  0.14158  0.19033  0.42562  1.0000
  H   H192      1.0  0.12979  0.16582  0.40706  1.0000
  H   H193      1.0  0.12750  0.12726  0.42527  1.0000
  C   C243      1.0  0.29807  0.01526  0.44235  1.0000
  C   C244      1.0  0.30233  0.02956  0.45361  1.0000
  H   H194      1.0  0.24781  0.04677  0.29820  1.0000
  H   H195      1.0  0.00796  0.24630  0.45121  1.0000
  C   C245      1.0  0.29454  0.08919  0.34264  1.0000
  S   S35       1.0  0.12492  0.02914  0.42401  1.0000
  C   C246      1.0  0.21978  0.07073  0.29149  1.0000
  C   C247      1.0  0.20748  0.07245  0.37259  1.0000
  C   C248      1.0  0.08589  0.38917  0.27471  1.0000
  H   H196      1.0  0.22905  0.00397  0.40471  1.0000
  C   C249      1.0  0.39262  0.06346  0.27920  1.0000
  C   C250      1.0  0.02247  0.19939  0.37282  1.0000
  H   H197      1.0  0.06440  0.23769  0.31416  1.0000
  H   H198      1.0  0.09773  0.36161  0.46309  1.0000
  C   C251      1.0  0.43341  0.99980  0.42229  1.0000
  H   H199      1.0  0.01032  0.36619  0.43987  1.0000
  C   C252      1.0  0.21736  0.01248  0.37437  1.0000
  H   H200      1.0  0.13651  0.11325  0.46166  1.0000
  C   C253      1.0  0.29676  0.09706  0.25007  1.0000
  H   H201      1.0  0.19440  0.09804  0.28430  1.0000
  H   H202      1.0  0.05863  0.05302  0.35953  1.0000
  H   H203      1.0  0.19658  0.06069  0.38004  1.0000
  S   S36       1.0  0.15688  0.99754  0.37903  1.0000
  H   H204      1.0  0.10160  0.37959  0.27766  1.0000
  C   C254      1.0  0.04506  0.41339  0.26720  1.0000
  C   C255      1.0  0.41096  0.03713  0.43561  1.0000
  Fe  Fe18      1.0  0.34685  0.00528  0.34705  1.0000
  H   H205      1.0  0.45761  0.06749  0.41189  1.0000
  H   H206      1.0  0.34871  0.05541  0.44349  1.0000
  H   H207      1.0  0.27760  0.05048  0.25656  1.0000
  C   C256      1.0  0.22895  0.04552  0.41989  1.0000
  H   H208      1.0  0.15063  0.17658  0.46205  1.0000
  C   C257      1.0  0.00732  0.30160  0.46259  1.0000
  H   H209      1.0  0.25905  0.11364  0.27603  1.0000
  C   C258      1.0  0.47983  0.04281  0.39871  1.0000
  S   S37       1.0  0.14957  0.05167  0.36659  1.0000
  Fe  Fe19      1.0  0.13492  0.02527  0.39087  1.0000
  C   C259      1.0  0.22700  0.10115  0.37410  1.0000
  C   C260      1.0  0.28754  0.03837  0.26713  1.0000
  C   C261      1.0  0.24017  0.02812  0.43342  1.0000
  C   C262      1.0  0.07017  0.39283  0.29176  1.0000
  H   H210      1.0  0.02155  0.25537  0.36725  1.0000
  H   H211      1.0  0.01131  0.07881  0.41977  1.0000
  S   S38       1.0  0.10704  0.02513  0.37387  1.0000
  H   H212      1.0  0.99731  0.30570  0.43188  1.0000
  H   H213      1.0  0.00159  0.34452  0.26397  1.0000
  H   H214      1.0  0.05603  0.18601  0.36509  1.0000
  H   H215      1.0  0.40175  0.05134  0.44092  1.0000
  H   H216      1.0  0.08981  0.05799  0.45292  1.0000
  H   H217      1.0  0.29481  0.02121  0.42604  1.0000
  C   C263      1.0  0.05430  0.40274  0.46181  1.0000
  C   C264      1.0  0.43351  0.00154  0.44322  1.0000
  H   H218      1.0  0.27104  0.04280  0.33003  1.0000
  C   C265      1.0  0.09028  0.38639  0.43537  1.0000
  C   C266      1.0  0.07588  0.40474  0.42708  1.0000
  C   C267      1.0  0.05799  0.41291  0.44018  1.0000
  H   H219      1.0  0.21518  0.03787  0.48087  1.0000
  H   H220      1.0  0.47731  0.09355  0.34587  1.0000
  C   C268      1.0  0.04786  0.05838  0.37263  1.0000
  C   C269      1.0  0.27796  0.05641  0.35449  1.0000
  C   C270      1.0  0.42532  0.01863  0.24172  1.0000
  C   C271      1.0  0.14166  0.02555  0.46014  1.0000
  C   C272      1.0  0.04985  0.40501  0.28797  1.0000
  C   C273      1.0  0.32317  0.08858  0.27489  1.0000
  C   C274      1.0  0.04637  0.22285  0.47340  1.0000
  C   C275      1.0  0.00991  0.47390  0.44542  1.0000
  H   H221      1.0  0.21157  0.06364  0.34239  1.0000
  H   H222      1.0  0.10366  0.37956  0.42503  1.0000
  H   H223      1.0  0.07812  0.41213  0.41028  1.0000
  H   H224      1.0  0.04674  0.42664  0.43304  1.0000
  H   H225      1.0  0.00149  0.29136  0.37874  1.0000
  S   S39       1.0  0.20300  0.02336  0.33548  1.0000
  Fe  Fe20      1.0  0.16863  0.02415  0.35245  1.0000
  C   C276      1.0  0.38415  0.05184  0.36185  1.0000
  C   C277      1.0  0.37102  0.07162  0.36368  1.0000
  C   C278      1.0  0.38000  0.09090  0.35787  1.0000
  C   C279      1.0  0.40212  0.09040  0.35016  1.0000
  C   C280      1.0  0.41535  0.07056  0.34800  1.0000
  C   C281      1.0  0.40628  0.05122  0.35432  1.0000
  P   P8        1.0  0.44419  0.06934  0.33951  1.0000
  C   C282      1.0  0.45365  0.05454  0.31874  1.0000
  C   C283      1.0  0.45079  0.09627  0.32766  1.0000
  C   C284      1.0  0.46774  0.10375  0.33386  1.0000
  S   S40       1.0  0.27537  0.99340  0.39672  1.0000
  C   C285      1.0  0.46191  0.13748  0.30744  1.0000
  C   C286      1.0  0.44536  0.12994  0.30091  1.0000
  C   C287      1.0  0.43987  0.10938  0.31092  1.0000
  C   C288      1.0  0.08683  0.37619  0.45679  1.0000
  H   H226      1.0  0.32872  0.07988  0.28988  1.0000
  H   H227      1.0  0.03514  0.00774  0.47740  1.0000
  C   C289      1.0  0.44709  0.03607  0.29269  1.0000
  C   C290      1.0  0.43920  0.04675  0.30930  1.0000
  H   H228      1.0  0.37711  0.03699  0.36638  1.0000
  C   C291      1.0  0.03691  0.07979  0.36976  1.0000
  H   H229      1.0  0.36984  0.10626  0.35929  1.0000
  H   H230      1.0  0.40877  0.10551  0.34602  1.0000
  H   H231      1.0  0.41626  0.03568  0.35325  1.0000
  H   H232      1.0  0.02550  0.37267  0.35469  1.0000
  C   C292      1.0  0.03202  0.32283  0.38832  1.0000
  P   P9        1.0  0.03012  0.41219  0.47848  1.0000
  H   H233      1.0  0.43734  0.13969  0.28755  1.0000
  C   C293      1.0  0.31375  0.00697  0.29369  1.0000
  C   C294      1.0  0.35982  0.02391  0.43597  1.0000
  C   C295      1.0  0.03649  0.21092  0.40611  1.0000
  C   C296      1.0  0.99951  0.04045  0.44644  1.0000
  H   H234      1.0  0.43594  0.03034  0.28522  1.0000
  H   H235      1.0  0.42184  0.04943  0.31409  1.0000
  H   H236      1.0  0.03912  0.09092  0.35444  1.0000
  C   C297      1.0  0.06214  0.04765  0.44529  1.0000
  H   H237      1.0  0.42740  0.10351  0.30530  1.0000
  C   C298      1.0  0.21942  0.04054  0.46383  1.0000
  C   C299      1.0  0.20821  0.05803  0.45041  1.0000
  C   C300      1.0  0.21283  0.06067  0.42830  1.0000
  C   C301      1.0  0.00200  0.36292  0.28719  1.0000
  P   P10       1.0  0.20035  0.08497  0.41118  1.0000
  C   C302      1.0  0.17137  0.08620  0.41144  1.0000
  C   C303      1.0  0.20523  0.10813  0.41986  1.0000
  C   C304      1.0  0.19104  0.12800  0.41619  1.0000
  C   C305      1.0  0.19527  0.14606  0.42239  1.0000
  C   C306      1.0  0.21354  0.14438  0.43245  1.0000
  C   C307      1.0  0.22780  0.12468  0.43609  1.0000
  C   C308      1.0  0.22377  0.10666  0.42969  1.0000
  C   C309      1.0  0.16138  0.09764  0.39338  1.0000
  C   C310      1.0  0.13908  0.09852  0.39323  1.0000
  C   C311      1.0  0.12647  0.08843  0.41122  1.0000
  C   C312      1.0  0.13612  0.07756  0.42933  1.0000
  C   C313      1.0  0.15848  0.07618  0.42946  1.0000
  C   C314      1.0  0.21277  0.08616  0.38410  1.0000
  H   H238      1.0  0.04257  0.35031  0.32860  1.0000
  C   C315      1.0  0.47577  0.05252  0.31053  1.0000
  H   H239      1.0  0.38977  0.03081  0.27791  1.0000
  H   H240      1.0  0.09251  0.25640  0.32129  1.0000
  C   C316      1.0  0.35598  0.03871  0.44925  1.0000
  C   C317      1.0  0.29486  0.01770  0.26271  1.0000
  S   S41       1.0  0.10783  0.23370  0.47153  1.0000
  H   H241      1.0  0.19607  0.06958  0.45730  1.0000
  C   C318      1.0  0.02381  0.08707  0.38681  1.0000
  H   H242      1.0  0.17681  0.12964  0.40839  1.0000
  H   H243      1.0  0.18444  0.16143  0.41922  1.0000
  H   H244      1.0  0.21676  0.15843  0.43718  1.0000
  H   H245      1.0  0.24212  0.12339  0.44366  1.0000
  H   H246      1.0  0.23525  0.09165  0.43229  1.0000
  H   H247      1.0  0.17078  0.10567  0.37924  1.0000
  H   H248      1.0  0.13154  0.10668  0.37908  1.0000
  H   H249      1.0  0.10922  0.08874  0.41118  1.0000
  H   H250      1.0  0.12622  0.06956  0.44308  1.0000
  H   H251      1.0  0.16543  0.06688  0.44350  1.0000
  H   H252      1.0  0.02895  0.42221  0.26466  1.0000
  C   C319      1.0  0.42238  0.01671  0.40813  1.0000
  H   H253      1.0  0.23147  0.11180  0.38260  1.0000
  S   S42       1.0  0.01196  0.42631  0.34836  1.0000
  S   S43       1.0  0.48943  0.13740  0.25687  1.0000
  C   C320      1.0  0.45128  0.06744  0.38062  1.0000
  S   S44       1.0  0.09551  0.10125  0.46306  1.0000
  H   H254      1.0  0.08815  0.45032  0.46749  1.0000
  C   C321      1.0  0.30647  0.02761  0.29815  1.0000
  S   S45       1.0  0.99923  0.40650  0.41097  1.0000
  C   C322      1.0  0.36171  0.03207  0.46988  1.0000
  H   H255      1.0  0.40434  0.06580  0.26508  1.0000
  H   H256      1.0  0.30248  0.04660  0.44603  1.0000
  C   C323      1.0  0.24208  0.06392  0.29230  1.0000
  C   C324      1.0  0.27783  0.05567  0.33339  1.0000
  C   C325      1.0  0.08546  0.22167  0.46991  1.0000
  C   C326      1.0  0.23541  0.02562  0.45535  1.0000
  C   C327      1.0  0.01444  0.21562  0.40343  1.0000
  S   S46       1.0  0.10495  0.08079  0.33086  1.0000
  C   C328      1.0  0.47313  0.12437  0.32386  1.0000
  H   H257      1.0  0.01313  0.35032  0.29600  1.0000
  C   C329      1.0  0.25660  0.07919  0.28610  1.0000
  H   H258      1.0  0.20046  0.01569  0.38097  1.0000
  C   C330      1.0  0.22601  0.10820  0.27893  1.0000
  H   H259      1.0  0.47988  0.06826  0.46799  1.0000
  C   C331      1.0  0.00318  0.28093  0.39432  1.0000
  Fe  Fe21      1.0  0.09536  0.26896  0.47257  1.0000
  H   H260      1.0  0.04093  0.25559  0.42774  1.0000
  P   P11       1.0  0.04759  0.28073  0.38297  1.0000
  C   C332      1.0  0.04175  0.30995  0.37372  1.0000
  C   C333      1.0  0.07171  0.27322  0.39614  1.0000
  C   C334      1.0  0.08297  0.28914  0.39870  1.0000
  C   C335      1.0  0.10167  0.28295  0.40890  1.0000
  C   C336      1.0  0.10909  0.26090  0.41681  1.0000
  C   C337      1.0  0.09815  0.24495  0.41405  1.0000
  C   C338      1.0  0.07969  0.25106  0.40351  1.0000
  C   C339      1.0  0.04559  0.31994  0.35210  1.0000
  C   C340      1.0  0.03987  0.34254  0.34529  1.0000
  C   C341      1.0  0.24497  0.01073  0.34408  1.0000
  C   C342      1.0  0.28658  0.07300  0.35912  1.0000
  H   H261      1.0  0.35888  0.04370  0.47982  1.0000
  C   C343      1.0  0.05265  0.26697  0.36125  1.0000
  C   C344      1.0  0.07276  0.26690  0.34822  1.0000
  C   C345      1.0  0.07696  0.25639  0.33129  1.0000
  C   C346      1.0  0.06113  0.24587  0.32725  1.0000
  C   C347      1.0  0.04112  0.24580  0.34018  1.0000
  C   C348      1.0  0.03694  0.25614  0.35722  1.0000
  H   H262      1.0  0.25237  0.01634  0.42694  1.0000
  H   H263      1.0  0.29965  0.10178  0.30908  1.0000
  S   S47       1.0  0.35420  0.03341  0.40968  1.0000
  H   H264      1.0  0.99811  0.44865  0.28019  1.0000
  C   C349      1.0  0.46232  0.05986  0.39845  1.0000
  C   C350      1.0  0.47754  0.07507  0.48194  1.0000
  H   H265      1.0  0.11005  0.29535  0.41117  1.0000
  H   H266      1.0  0.12309  0.25620  0.42543  1.0000
  H   H267      1.0  0.10372  0.22789  0.42050  1.0000
  H   H268      1.0  0.07135  0.23853  0.40152  1.0000
  H   H269      1.0  0.05274  0.31045  0.34043  1.0000
  S   S48       1.0  0.14323  0.02464  0.33225  1.0000
  C   C351      1.0  0.01471  0.43536  0.46264  1.0000
  H   H270      1.0  0.08517  0.27504  0.35114  1.0000
  H   H271      1.0  0.07364  0.38617  0.30793  1.0000
  H   H272      1.0  0.47547  0.02549  0.27214  1.0000
  C   C352      1.0  0.00668  0.25559  0.43519  1.0000
  C   C353      1.0  0.02384  0.27326  0.40093  1.0000
  H   H273      1.0  0.47694  0.99982  0.42343  1.0000
  H   H274      1.0  0.02900  0.31555  0.40510  1.0000
  S   S49       1.0  0.00308  0.38496  0.31720  1.0000
  C   C354      1.0  0.04675  0.01908  0.47205  1.0000
  C   C355      1.0  0.23358  0.00584  0.38780  1.0000
  C   C356      1.0  0.37198  0.01077  0.47709  1.0000
  C   C357      1.0  0.01984  0.45637  0.45986  1.0000
  H   H275      1.0  0.46678  0.15301  0.29902  1.0000
  C   C358      1.0  0.07762  0.04730  0.45836  1.0000
  C   C359      1.0  0.04452  0.19480  0.37549  1.0000
  C   C360      1.0  0.30680  0.02176  0.47453  1.0000
  H   H276      1.0  0.42238  0.01536  0.39200  1.0000
  C   C361      1.0  0.03175  0.05108  0.40958  1.0000
  H   H277      1.0  0.04184  0.21495  0.41931  1.0000
  Fe  Fe22      1.0  0.46671  0.12135  0.24484  1.0000
  S   S50       1.0  0.03548  0.13053  0.47865  1.0000
  H   H278      1.0  0.01593  0.10390  0.38471  1.0000
  H   H279      1.0  0.99843  0.99973  0.43821  1.0000
  C   C362      1.0  0.08137  0.39798  0.25387  1.0000
  C   C363      1.0  0.04645  0.03367  0.45216  1.0000
  C   C364      1.0  0.07768  0.03289  0.47820  1.0000
  H   H280      1.0  0.06276  0.05861  0.42980  1.0000
  H   H281      1.0  0.06848  0.19622  0.39468  1.0000
  C   C365      1.0  0.14359  0.14397  0.46486  1.0000
  Fe  Fe23      1.0  0.34907  0.00942  0.39167  1.0000
  C   C366      1.0  0.15786  0.01892  0.47339  1.0000
  C   C367      1.0  0.04937  0.20372  0.46591  1.0000
  H   H282      1.0  0.48669  0.12980  0.32815  1.0000
  H   H283      1.0  0.01731  0.19429  0.36011  1.0000
  H   H284      1.0  0.21967  0.12538  0.27402  1.0000
  H   H285      1.0  0.03286  0.36838  0.46958  1.0000
  S   S51       1.0  0.06715  0.32754  0.47625  1.0000
  H   H286      1.0  0.27813  0.00055  0.35106  1.0000
  H   H287      1.0  0.13171  0.07152  0.47890  1.0000
  H   H288      1.0  0.00322  0.22368  0.41443  1.0000
  C   C368      1.0  0.36938  0.00239  0.44340  1.0000
  H   H289      1.0  0.29050  0.01394  0.24888  1.0000
  H   H290      1.0  0.28151  0.09522  0.24575  1.0000
  C   C369      1.0  0.43465  0.99687  0.24273  1.0000
  C   C370      1.0  0.48589  0.03292  0.38139  1.0000
  H   H291      1.0  0.06728  0.00340  0.42675  1.0000
  C   C371      1.0  0.99557  0.35969  0.26898  1.0000
  C   C372      1.0  0.30806  0.00202  0.27596  1.0000
  H   H292      1.0  0.99681  0.16857  0.39315  1.0000
  H   H293      1.0  0.41373  0.99575  0.28608  1.0000
  S   S52       1.0  0.37263  0.99280  0.36857  1.0000
  H   H294      1.0  0.05207  0.45778  0.24603  1.0000
  H   H295      1.0  0.06167  0.24620  0.48172  1.0000
  C   C373      1.0  0.00060  0.29928  0.48434  1.0000
  C   C374      1.0  0.37584  0.99603  0.46378  1.0000
  H   H296      1.0  0.03780  0.38167  0.24325  1.0000
  H   H297      1.0  0.30615  0.08151  0.47905  1.0000
  H   H298      1.0  0.31007  0.03275  0.48339  1.0000
  S   S53       1.0  0.19657  0.99650  0.48405  1.0000
  Fe  Fe24      1.0  0.05335  0.29641  0.48536  1.0000
  C   C375      1.0  0.30741  0.99961  0.48408  1.0000
  C   C376      1.0  0.33073  0.11167  0.24006  1.0000
  Fe  Fe25      1.0  0.31024  0.99368  0.38243  1.0000
  H   H299      1.0  0.32435  0.99506  0.30377  1.0000
  H   H300      1.0  0.34262  0.02988  0.24403  1.0000
  H   H301      1.0  0.10104  0.14708  0.48349  1.0000
  C   C377      1.0  0.29853  0.99311  0.45189  1.0000
  H   H302      1.0  0.99554  0.41603  0.45238  1.0000
  H   H303      1.0  0.48883  0.03738  0.41225  1.0000
  C   C378      1.0  0.45594  0.99226  0.48101  1.0000
  H   H304      1.0  0.19344  0.13352  0.48519  1.0000
  H   H305      1.0  0.11975  0.99226  0.45990  1.0000
  C   C379      1.0  0.49355  0.08575  0.48532  1.0000
  C   C380      1.0  0.99482  0.04559  0.46651  1.0000
  C   C381      1.0  0.01517  0.99266  0.43454  1.0000
  C   C382      1.0  0.09712  0.08073  0.48626  1.0000
  C   C383      1.0  0.06223  0.01882  0.48508  1.0000
  C   C384      1.0  0.99473  0.47058  0.43376  1.0000
  C   C385      1.0  0.36129  0.05571  0.24014  1.0000
  C   C386      1.0  0.00506  0.35535  0.48758  1.0000
  S   S54       1.0  0.43338  0.13909  0.23816  1.0000
  C   C387      1.0  0.16567  0.16800  0.53004  1.0000
  C   C388      1.0  0.10403  0.43043  0.61195  1.0000
  C   C389      1.0  0.41983  0.13455  0.56958  1.0000
  H   H306      1.0  0.47533  0.01381  0.57412  1.0000
  C   C390      1.0  0.34507  0.05110  0.62453  1.0000
  H   H307      1.0  0.05722  0.16928  0.52170  1.0000
  C   C391      1.0  0.47250  0.09146  0.51850  1.0000
  C   C392      1.0  0.42007  0.02401  0.57945  1.0000
  Fe  Fe26      1.0  0.01692  0.38353  0.57729  1.0000
  S   S55       1.0  0.05350  0.37586  0.57549  1.0000
  C   C393      1.0  0.42709  0.12212  0.53672  1.0000
  C   C394      1.0  0.23072  0.13693  0.52608  1.0000
  C   C395      1.0  0.24829  0.07447  0.61365  1.0000
  C   C396      1.0  0.42452  0.09593  0.57041  1.0000
  C   C397      1.0  0.29413  0.00527  0.71085  1.0000
  H   H308      1.0  0.27094  0.00472  0.57260  1.0000
  H   H309      1.0  0.06631  0.10692  0.53556  1.0000
  H   H310      1.0  0.06092  0.32278  0.59279  1.0000
  Fe  Fe27      1.0  0.42662  0.07945  0.64705  1.0000
  S   S56       1.0  0.41692  0.07695  0.68199  1.0000
  S   S57       1.0  0.45708  0.05897  0.63522  1.0000
  Fe  Fe28      1.0  0.38840  0.11340  0.63511  1.0000
  S   S58       1.0  0.37579  0.11565  0.66891  1.0000
  S   S59       1.0  0.37159  0.13299  0.60699  1.0000
  Fe  Fe29      1.0  0.41074  0.11340  0.67338  1.0000
  S   S60       1.0  0.42539  0.13000  0.69315  1.0000
  Fe  Fe30      1.0  0.38275  0.07912  0.67561  1.0000
  S   S61       1.0  0.35844  0.06102  0.69926  1.0000
  S   S62       1.0  0.42274  0.11577  0.63869  1.0000
  S   S63       1.0  0.39309  0.07697  0.64161  1.0000
  H   H311      1.0  0.34122  0.06680  0.61401  1.0000
  H   H312      1.0  0.23718  0.07123  0.62818  1.0000
  C   C398      1.0  0.46618  0.01120  0.51167  1.0000
  C   C399      1.0  0.40869  0.07911  0.52112  1.0000
  C   C400      1.0  0.01351  0.32531  0.55355  1.0000
  C   C401      1.0  0.06049  0.41693  0.52773  1.0000
  H   H313      1.0  0.24107  0.01063  0.51687  1.0000
  C   C402      1.0  0.42749  0.10040  0.54815  1.0000
  H   H314      1.0  0.18082  0.05640  0.50576  1.0000
  H   H315      1.0  0.43675  0.01244  0.62449  1.0000
  S   S64       1.0  0.38131  0.00271  0.50213  1.0000
  S   S65       1.0  0.31149  0.03409  0.56940  1.0000
  H   H316      1.0  0.10484  0.42365  0.68835  1.0000
  C   C403      1.0  0.30425  0.04568  0.71180  1.0000
  C   C404      1.0  0.01591  0.48623  0.65539  1.0000
  C   C405      1.0  0.30954  0.03800  0.69310  1.0000
  H   H317      1.0  0.30232  0.07447  0.59641  1.0000
  C   C406      1.0  0.42316  0.13914  0.54742  1.0000
  C   C407      1.0  0.43860  0.01727  0.67451  1.0000
  H   H318      1.0  0.22241  0.18820  0.53512  1.0000
  C   C408      1.0  0.45909  0.00499  0.67794  1.0000
  S   S66       1.0  0.33103  0.04374  0.51929  1.0000
  Fe  Fe31      1.0  0.30871  0.02215  0.54083  1.0000
  C   C409      1.0  0.29403  0.08447  0.49228  1.0000
  C   C410      1.0  0.22547  0.15967  0.52229  1.0000
  H   H319      1.0  0.40130  0.99481  0.68041  1.0000
  C   C411      1.0  0.46322  0.99786  0.64261  1.0000
  H   H320      1.0  0.06249  0.00751  0.50039  1.0000
  H   H321      1.0  0.07139  0.43801  0.70961  1.0000
  C   C412      1.0  0.22342  0.99632  0.54642  1.0000
  C   C413      1.0  0.05963  0.35293  0.66437  1.0000
  C   C414      1.0  0.46122  0.07591  0.70685  1.0000
  C   C415      1.0  0.34544  0.10063  0.56304  1.0000
  C   C416      1.0  0.36039  0.08802  0.57650  1.0000
  C   C417      1.0  0.36882  0.09767  0.59000  1.0000
  C   C418      1.0  0.36236  0.11993  0.58998  1.0000
  C   C419      1.0  0.34803  0.13250  0.57592  1.0000
  C   C420      1.0  0.33962  0.12293  0.56259  1.0000
  H   H322      1.0  0.36520  0.07085  0.57671  1.0000
  H   H323      1.0  0.38033  0.08796  0.60031  1.0000
  H   H324      1.0  0.34313  0.14971  0.57558  1.0000
  H   H325      1.0  0.32828  0.13287  0.55208  1.0000
  H   H326      1.0  0.27664  0.06741  0.62977  1.0000
  H   H327      1.0  0.12158  0.17766  0.49269  1.0000
  C   C421      1.0  0.15152  0.18781  0.52656  1.0000
  C   C422      1.0  0.25766  0.00240  0.56533  1.0000
  H   H328      1.0  0.40099  0.05241  0.56258  1.0000
  C   C423      1.0  0.45640  0.04211  0.55682  1.0000
  C   C424      1.0  0.43065  0.01968  0.65525  1.0000
  H   H329      1.0  0.46285  0.10055  0.60590  1.0000
  C   C425      1.0  0.38198  0.02419  0.68844  1.0000
  C   C426      1.0  0.05787  0.38857  0.64011  1.0000
  C   C427      1.0  0.11940  0.05220  0.50878  1.0000
  C   C428      1.0  0.10104  0.04802  0.52342  1.0000
  C   C429      1.0  0.08067  0.06032  0.51954  1.0000
  H   H330      1.0  0.41873  0.04612  0.51647  1.0000
  H   H331      1.0  0.99432  0.26618  0.52938  1.0000
  H   H332      1.0  0.06641  0.05698  0.53079  1.0000
  C   C430      1.0  0.06907  0.36214  0.55649  1.0000
  C   C431      1.0  0.09148  0.35631  0.55730  1.0000
  C   C432      1.0  0.10448  0.34447  0.54319  1.0000
  C   C433      1.0  0.09524  0.33844  0.52800  1.0000
  C   C434      1.0  0.07293  0.34488  0.52667  1.0000
  C   C435      1.0  0.05979  0.35672  0.54094  1.0000
  H   H333      1.0  0.09876  0.36055  0.56920  1.0000
  H   H334      1.0  0.12172  0.33966  0.54424  1.0000
  H   H335      1.0  0.04253  0.36142  0.54003  1.0000
  C   C436      1.0  0.24088  0.00571  0.53390  1.0000
  C   C437      1.0  0.00605  0.39537  0.69428  1.0000
  C   C438      1.0  0.35480  0.01130  0.65291  1.0000
  H   H336      1.0  0.12467  0.20649  0.51026  1.0000
  C   C439      1.0  0.02095  0.43393  0.51180  1.0000
  C   C440      1.0  0.36571  0.03274  0.70266  1.0000
  Fe  Fe32      1.0  0.33970  0.00671  0.57382  1.0000
  C   C441      1.0  0.07039  0.43409  0.69467  1.0000
  H   H337      1.0  0.40598  0.01751  0.58886  1.0000
  C   C442      1.0  0.02152  0.21206  0.53593  1.0000
  C   C443      1.0  0.03622  0.22686  0.53301  1.0000
  C   C444      1.0  0.05834  0.22068  0.52662  1.0000
  C   C445      1.0  0.06596  0.19984  0.52281  1.0000
  C   C446      1.0  0.05143  0.18515  0.52537  1.0000
  C   C447      1.0  0.02932  0.19121  0.53191  1.0000
  C   C448      1.0  0.26117  0.07613  0.51567  1.0000
  H   H338      1.0  0.47008  0.14391  0.61599  1.0000
  H   H339      1.0  0.15395  0.01980  0.48981  1.0000
  S   S67       1.0  0.33456  0.99302  0.54707  1.0000
  H   H340      1.0  0.15262  0.20045  0.53453  1.0000
  H   H341      1.0  0.06669  0.13586  0.50249  1.0000
  C   C449      1.0  0.41730  0.04387  0.56466  1.0000
  C   C450      1.0  0.04882  0.34557  0.65122  1.0000
  H   H342      1.0  0.99818  0.32488  0.58552  1.0000
  H   H343      1.0  0.01228  0.14095  0.53232  1.0000
  H   H344      1.0  0.31094  0.99396  0.50031  1.0000
  S   S68       1.0  0.11210  0.32247  0.51143  1.0000
  C   C451      1.0  0.39233  0.09742  0.51836  1.0000
  C   C452      1.0  0.48581  0.09183  0.57973  1.0000
  C   C453      1.0  0.04245  0.35967  0.63263  1.0000
  H   H345      1.0  0.03074  0.24337  0.53504  1.0000
  H   H346      1.0  0.06941  0.23244  0.52358  1.0000
  H   H347      1.0  0.08295  0.19544  0.51699  1.0000
  C   C454      1.0  0.37473  0.09753  0.50792  1.0000
  C   C455      1.0  0.40672  0.06071  0.51393  1.0000
  H   H348      1.0  0.27461  0.06136  0.48921  1.0000
  C   C456      1.0  0.20472  0.07813  0.49831  1.0000
  C   C457      1.0  0.41786  0.12230  0.72083  1.0000
  S   S69       1.0  0.36490  0.02696  0.55479  1.0000
  S   S70       1.0  0.27890  0.02151  0.52685  1.0000
  H   H349      1.0  0.47057  0.04939  0.54894  1.0000
  H   H350      1.0  0.22108  0.16890  0.50697  1.0000
  H   H351      1.0  0.02990  0.47472  0.66052  1.0000
  C   C458      1.0  0.44099  0.01273  0.58225  1.0000
  H   H352      1.0  0.35901  0.99631  0.66431  1.0000
  C   C459      1.0  0.47161  0.08737  0.59874  1.0000
  Fe  Fe33      1.0  0.35723  0.01554  0.52739  1.0000
  C   C460      1.0  0.35560  0.01868  0.71974  1.0000
  C   C461      1.0  0.27706  0.08258  0.57620  1.0000
  C   C462      1.0  0.25468  0.08494  0.57511  1.0000
  C   C463      1.0  0.24034  0.08086  0.59404  1.0000
  P   P12       1.0  0.24380  0.09559  0.55015  1.0000
  C   C464      1.0  0.23664  0.12489  0.54583  1.0000
  C   C465      1.0  0.26365  0.09057  0.52780  1.0000
  C   C466      1.0  0.00769  0.37958  0.68232  1.0000
  C   C467      1.0  0.05014  0.43644  0.68775  1.0000
  H   H353      1.0  0.44324  0.99707  0.59334  1.0000
  H   H354      1.0  0.04169  0.39184  0.61274  1.0000
  C   C468      1.0  0.45912  0.02200  0.57122  1.0000
  C   C469      1.0  0.23731  0.13593  0.56169  1.0000
  C   C470      1.0  0.23210  0.15869  0.55782  1.0000
  H   H355      1.0  0.44560  0.13265  0.72840  1.0000
  C   C471      1.0  0.05648  0.41173  0.50939  1.0000
  H   H356      1.0  0.23034  0.12868  0.51361  1.0000
  C   C472      1.0  0.21992  0.08310  0.55189  1.0000
  C   C473      1.0  0.19929  0.09591  0.55044  1.0000
  C   C474      1.0  0.18076  0.08607  0.55288  1.0000
  C   C475      1.0  0.18261  0.06337  0.55694  1.0000
  H   H357      1.0  0.45813  0.09299  0.70755  1.0000
  C   C476      1.0  0.22156  0.06027  0.55651  1.0000
  H   H358      1.0  0.04767  0.43397  0.55273  1.0000
  H   H359      1.0  0.30882  0.06106  0.71224  1.0000
  H   H360      1.0  0.39321  0.20194  0.73100  1.0000
  C   C477      1.0  0.28496  0.07626  0.59584  1.0000
  H   H361      1.0  0.22297  0.08279  0.59370  1.0000
  S   S71       1.0  0.16693  0.01181  0.53764  1.0000
  H   H362      1.0  0.28367  0.11350  0.53071  1.0000
  C   C478      1.0  0.43551  0.05284  0.55297  1.0000
  C   C479      1.0  0.27626  0.07319  0.49795  1.0000
  H   H363      1.0  0.47126  0.09734  0.53287  1.0000
  H   H364      1.0  0.24212  0.12714  0.57695  1.0000
  H   H365      1.0  0.23293  0.16714  0.57003  1.0000
  H   H366      1.0  0.17501  0.13637  0.52297  1.0000
  C   C480      1.0  0.47108  0.06972  0.68808  1.0000
  H   H367      1.0  0.38898  0.03539  0.67517  1.0000
  H   H368      1.0  0.19734  0.11343  0.54796  1.0000
  H   H369      1.0  0.16490  0.09597  0.55196  1.0000
  H   H370      1.0  0.10163  0.21927  0.54625  1.0000
  C   C481      1.0  0.38876  0.00155  0.69145  1.0000
  C   C482      1.0  0.46764  0.03189  0.70446  1.0000
  C   C483      1.0  0.30445  0.01775  0.69245  1.0000
  C   C484      1.0  0.12295  0.43040  0.59732  1.0000
  C   C485      1.0  0.36667  0.04087  0.62501  1.0000
  S   S72       1.0  0.33334  0.08957  0.54652  1.0000
  C   C486      1.0  0.05428  0.23347  0.63985  1.0000
  C   C487      1.0  0.11989  0.26770  0.53831  1.0000
  C   C488      1.0  0.03649  0.41989  0.50137  1.0000
  C   C489      1.0  0.32831  0.04112  0.63774  1.0000
  S   S73       1.0  0.02002  0.38925  0.71672  1.0000
  C   C490      1.0  0.07866  0.07654  0.50082  1.0000
  S   S74       1.0  0.10346  0.02743  0.54653  1.0000
  H   H371      1.0  0.10252  0.41353  0.65494  1.0000
  C   C491      1.0  0.02518  0.43932  0.52998  1.0000
  H   H372      1.0  0.31069  0.10727  0.50025  1.0000
  H   H373      1.0  0.31804  0.04778  0.67941  1.0000
  H   H374      1.0  0.28858  0.08549  0.56204  1.0000
  C   C492      1.0  0.03368  0.47043  0.59539  1.0000
  H   H375      1.0  0.13375  0.44211  0.59601  1.0000
  C   C493      1.0  0.10753  0.31532  0.61458  1.0000
  H   H376      1.0  0.00680  0.16782  0.49862  1.0000
  C   C494      1.0  0.04481  0.43060  0.53811  1.0000
  C   C495      1.0  0.06412  0.24957  0.62475  1.0000
  H   H377      1.0  0.13194  0.27701  0.52824  1.0000
  P   P13       1.0  0.06953  0.27796  0.58476  1.0000
  C   C496      1.0  0.04767  0.29624  0.57222  1.0000
  C   C497      1.0  0.05715  0.25719  0.60462  1.0000
  C   C498      1.0  0.04009  0.24857  0.59992  1.0000
  C   C499      1.0  0.03037  0.23243  0.61504  1.0000
  C   C500      1.0  0.03745  0.22489  0.63500  1.0000
  C   C501      1.0  0.02915  0.30413  0.58491  1.0000
  C   C502      1.0  0.01226  0.31872  0.57560  1.0000
  C   C503      1.0  0.45737  0.03829  0.72322  1.0000
  C   C504      1.0  0.03167  0.31716  0.54083  1.0000
  C   C505      1.0  0.04879  0.30272  0.55009  1.0000
  H   H378      1.0  0.03436  0.25429  0.58451  1.0000
  H   H379      1.0  0.24804  0.06661  0.51999  1.0000
  H   H380      1.0  0.02987  0.21241  0.64673  1.0000
  H   H381      1.0  0.02792  0.29932  0.60204  1.0000
  C   C506      1.0  0.18356  0.07328  0.50160  1.0000
  C   C507      1.0  0.16432  0.15174  0.51964  1.0000
  H   H382      1.0  0.03264  0.32237  0.52373  1.0000
  H   H383      1.0  0.06294  0.29710  0.53991  1.0000
  H   H384      1.0  0.42240  0.15590  0.53859  1.0000
  H   H385      1.0  0.10584  0.29334  0.55452  1.0000
  Fe  Fe34      1.0  0.33630  0.05337  0.54848  1.0000
  H   H386      1.0  0.08139  0.34218  0.60857  1.0000
  H   H387      1.0  0.06654  0.45751  0.60096  1.0000
  C   C508      1.0  0.10089  0.10298  0.53603  1.0000
  H   H388      1.0  0.44680  0.06442  0.49364  1.0000
  C   C509      1.0  0.12054  0.10961  0.52557  1.0000
  C   C510      1.0  0.20297  0.05052  0.55889  1.0000
  C   C511      1.0  0.37153  0.02102  0.63930  1.0000
  H   H389      1.0  0.01780  0.41835  0.63516  1.0000
  H   H390      1.0  0.12987  0.24018  0.52374  1.0000
  H   H391      1.0  0.07252  0.37959  0.66935  1.0000
  H   H392      1.0  0.47025  0.01807  0.52375  1.0000
  H   H393      1.0  0.13149  0.28627  0.61769  1.0000
  C   C512      1.0  0.25073  0.01851  0.63364  1.0000
  H   H394      1.0  0.20421  0.03293  0.56255  1.0000
  C   C513      1.0  0.12101  0.12518  0.50625  1.0000
  C   C514      1.0  0.44167  0.99321  0.49981  1.0000
  H   H395      1.0  0.14248  0.41541  0.57289  1.0000
  C   C515      1.0  0.08167  0.12865  0.50906  1.0000
  H   H396      1.0  0.06422  0.34219  0.67903  1.0000
  C   C516      1.0  0.25800  0.00876  0.54329  1.0000
  C   C517      1.0  0.11872  0.24692  0.53581  1.0000
  C   C518      1.0  0.45605  0.08117  0.51503  1.0000
  H   H397      1.0  0.16828  0.05561  0.55888  1.0000
  C   C519      1.0  0.08145  0.11252  0.52779  1.0000
  S   S75       1.0  0.01961  0.29474  0.50207  1.0000
  C   C520      1.0  0.29658  0.09896  0.50418  1.0000
  C   C521      1.0  0.07594  0.31421  0.59864  1.0000
  C   C522      1.0  0.27057  0.07229  0.61455  1.0000
  H   H398      1.0  0.06572  0.34048  0.51488  1.0000
  H   H399      1.0  0.04526  0.32902  0.65551  1.0000
  H   H400      1.0  0.01733  0.22578  0.61126  1.0000
  C   C523      1.0  0.10132  0.13490  0.49825  1.0000
  H   H401      1.0  0.03540  0.44196  0.69738  1.0000
  S   S76       1.0  0.08040  0.27757  0.50346  1.0000
  H   H402      1.0  0.13534  0.10217  0.53233  1.0000
  H   H403      1.0  0.10076  0.09001  0.55025  1.0000
  H   H404      1.0  0.42956  0.12587  0.51954  1.0000
  H   H405      1.0  0.41616  0.14767  0.57800  1.0000
  C   C524      1.0  0.23980  0.99339  0.57798  1.0000
  C   C525      1.0  0.10497  0.27697  0.55320  1.0000
  C   C526      1.0  0.08769  0.24455  0.56325  1.0000
  H   H406      1.0  0.10024  0.44251  0.62157  1.0000
  C   C527      1.0  0.11745  0.06853  0.49025  1.0000
  C   C528      1.0  0.08762  0.32541  0.60758  1.0000
  C   C529      1.0  0.48138  0.04876  0.59976  1.0000
  C   C530      1.0  0.08883  0.26544  0.56588  1.0000
  H   H407      1.0  0.03438  0.35392  0.62226  1.0000
  H   H408      1.0  0.07524  0.23538  0.57251  1.0000
  H   H409      1.0  0.11110  0.26631  0.60181  1.0000
  C   C531      1.0  0.07371  0.47046  0.48972  1.0000
  C   C532      1.0  0.42073  0.11296  0.58099  1.0000
  H   H410      1.0  0.35920  0.07931  0.49283  1.0000
  C   C533      1.0  0.10269  0.23529  0.54836  1.0000
  H   H411      1.0  0.13512  0.04287  0.51180  1.0000
  H   H412      1.0  0.07703  0.25600  0.62894  1.0000
  H   H413      1.0  0.45111  0.02668  0.73680  1.0000
  H   H414      1.0  0.11742  0.38906  0.57544  1.0000
  H   H415      1.0  0.11662  0.32416  0.62130  1.0000
  C   C534      1.0  0.08408  0.29265  0.59674  1.0000
  H   H416      1.0  0.08415  0.38891  0.60100  1.0000
  H   H417      1.0  0.99875  0.46174  0.65154  1.0000
  C   C535      1.0  0.36206  0.99609  0.72262  1.0000
  H   H418      1.0  0.05971  0.22767  0.65537  1.0000
  C   C536      1.0  0.11589  0.29399  0.61253  1.0000
  H   H419      1.0  0.23720  0.04997  0.55837  1.0000
  C   C537      1.0  0.06419  0.37431  0.65884  1.0000
  C   C538      1.0  0.24812  0.01683  0.65555  1.0000
  H   H420      1.0  0.23669  0.02014  0.62553  1.0000
  H   H421      1.0  0.07552  0.40970  0.53433  1.0000
  C   C539      1.0  0.02247  0.43268  0.62393  1.0000
  C   C540      1.0  0.04441  0.43543  0.61893  1.0000
  C   C541      1.0  0.04986  0.45460  0.60475  1.0000
  P   P14       1.0  0.06511  0.41572  0.63223  1.0000
  C   C542      1.0  0.09001  0.41520  0.61388  1.0000
  C   C543      1.0  0.06760  0.42364  0.65618  1.0000
  C   C544      1.0  0.08786  0.42060  0.66355  1.0000
  C   C545      1.0  0.13576  0.19120  0.51299  1.0000
  C   C546      1.0  0.04675  0.38114  0.62720  1.0000
  C   C547      1.0  0.10427  0.28273  0.60356  1.0000
  C   C548      1.0  0.08924  0.42605  0.68263  1.0000
  C   C549      1.0  0.09493  0.40039  0.60046  1.0000
  C   C550      1.0  0.11380  0.40048  0.58578  1.0000
  C   C551      1.0  0.12786  0.41539  0.58428  1.0000
  P   P15       1.0  0.43186  0.07862  0.53418  1.0000
  H   H422      1.0  0.42495  0.07943  0.57980  1.0000
  C   C552      1.0  0.27153  0.01780  0.62220  1.0000
  H   H423      1.0  0.41786  0.10940  0.59811  1.0000
  C   C553      1.0  0.04872  0.43106  0.66871  1.0000
  P   P16       1.0  0.47032  0.00405  0.70181  1.0000
  H   H424      1.0  0.37964  0.04849  0.61460  1.0000
  H   H425      1.0  0.40751  0.02169  0.72182  1.0000
  H   H426      1.0  0.41580  0.03040  0.65168  1.0000
  H   H427      1.0  0.23198  0.01716  0.66445  1.0000
  H   H428      1.0  0.17755  0.16517  0.54096  1.0000
  C   C554      1.0  0.28133  0.10222  0.52168  1.0000
  Fe  Fe35      1.0  0.09570  0.30794  0.49153  1.0000
  C   C555      1.0  0.28973  0.01525  0.63264  1.0000
  H   H429      1.0  0.01759  0.36389  0.68692  1.0000
  C   C556      1.0  0.44690  0.00246  0.51516  1.0000
  C   C557      1.0  0.46986  0.06574  0.60905  1.0000
  H   H430      1.0  0.31174  0.04925  0.63717  1.0000
  H   H431      1.0  0.01823  0.17980  0.53336  1.0000
  H   H432      1.0  0.03279  0.43224  0.66410  1.0000
  H   H433      1.0  0.38866  0.11065  0.71859  1.0000
  H   H434      1.0  0.42922  0.02575  0.68627  1.0000
  C   C558      1.0  0.39888  0.11320  0.72917  1.0000
  H   H435      1.0  0.00535  0.44047  0.50615  1.0000
  C   C559      1.0  0.38913  0.06091  0.50349  1.0000
  H   H436      1.0  0.14969  0.08595  0.50170  1.0000
  H   H437      1.0  0.27363  0.01896  0.60523  1.0000
  P   P17       1.0  0.31119  0.00775  0.66832  1.0000
  H   H438      1.0  0.00078  0.20895  0.50173  1.0000
  H   H439      1.0  0.48765  0.10851  0.57205  1.0000
  C   C560      1.0  0.33300  0.02087  0.65169  1.0000
  H   H440      1.0  0.39268  0.11145  0.52460  1.0000
  H   H441      1.0  0.42805  0.17651  0.72956  1.0000
  H   H442      1.0  0.38778  0.04663  0.49806  1.0000
  C   C561      1.0  0.26633  0.01417  0.66606  1.0000
  H   H443      1.0  0.38824  0.01316  0.64002  1.0000
  C   C562      1.0  0.47427  0.04784  0.68685  1.0000
  C   C563      1.0  0.99607  0.38376  0.66485  1.0000
  C   C564      1.0  0.45883  0.07281  0.49667  1.0000
  C   C565      1.0  0.16586  0.09015  0.49949  1.0000
  H   H444      1.0  0.21837  0.06499  0.50020  1.0000
  C   C566      1.0  0.28734  0.01328  0.65469  1.0000
  C   C567      1.0  0.37313  0.07932  0.50046  1.0000
  H   H445      1.0  0.22471  0.10350  0.48903  1.0000
  C   C568      1.0  0.45416  0.06024  0.72431  1.0000
  H   H446      1.0  0.34302  0.02524  0.73086  1.0000
  C   C569      1.0  0.44278  0.00980  0.63949  1.0000
  H   H447      1.0  0.08093  0.45932  0.50295  1.0000
  P   P18       1.0  0.14628  0.13406  0.49271  1.0000
  C   C570      1.0  0.01191  0.46737  0.60028  1.0000
  C   C571      1.0  0.14894  0.15526  0.50550  1.0000
  C   C572      1.0  0.19051  0.11676  0.49015  1.0000
  C   C573      1.0  0.13424  0.17488  0.50278  1.0000
  H   H448      1.0  0.06900  0.40102  0.50203  1.0000
  H   H449      1.0  0.00969  0.18321  0.57655  1.0000
  C   C574      1.0  0.22620  0.17055  0.53814  1.0000
  H   H450      1.0  0.99708  0.37132  0.65602  1.0000
  H   H451      1.0  0.26394  0.01242  0.68307  1.0000
  Fe  Fe36      1.0  0.13358  0.00249  0.54331  1.0000
  H   H452      1.0  0.30570  0.01434  0.62351  1.0000
  C   C575      1.0  0.06038  0.48990  0.49265  1.0000
  H   H453      1.0  0.06289  0.08575  0.49768  1.0000
  H   H454      1.0  0.47992  0.03202  0.60751  1.0000
  C   C576      1.0  0.16911  0.11205  0.49470  1.0000
  C   C577      1.0  0.47137  0.99534  0.66174  1.0000
  S   S77       1.0  0.00210  0.41568  0.58518  1.0000
  C   C578      1.0  0.00632  0.44851  0.61455  1.0000
  H   H455      1.0  0.36185  0.11146  0.50638  1.0000
  H   H456      1.0  0.01294  0.44973  0.53819  1.0000
  C   C579      1.0  0.20823  0.09985  0.49220  1.0000
  H   H457      1.0  0.48118  0.04347  0.67191  1.0000
  H   H458      1.0  0.43601  0.00292  0.52977  1.0000
  H   H459      1.0  0.00038  0.33665  0.54628  1.0000
  C   C580      1.0  0.28894  0.01296  0.72957  1.0000
  C   C581      1.0  0.48748  0.11655  0.63606  1.0000
  C   C582      1.0  0.29398  0.03318  0.73003  1.0000
  C   C583      1.0  0.49104  0.09391  0.50360  1.0000
  H   H460      1.0  0.21044  0.99395  0.53892  1.0000
  H   H461      1.0  0.47509  0.08203  0.67414  1.0000
  H   H462      1.0  0.99942  0.48781  0.54798  1.0000
  C   C584      1.0  0.48016  0.01096  0.49272  1.0000
  C   C585      1.0  0.99603  0.14666  0.52796  1.0000
  S   S78       1.0  0.99634  0.38758  0.55151  1.0000
  C   C586      1.0  0.48496  0.13224  0.61728  1.0000
  H   H463      1.0  0.40645  0.05814  0.72907  1.0000
  C   C587      1.0  0.43091  0.12560  0.73474  1.0000
  H   H464      1.0  0.08983  0.03246  0.48821  1.0000
  H   H465      1.0  0.47450  0.11628  0.64924  1.0000
  S   S79       1.0  0.99486  0.36462  0.60288  1.0000
  C   C588      1.0  0.99851  0.47899  0.65003  1.0000
  H   H466      1.0  0.99934  0.47972  0.59324  1.0000
  H   H467      1.0  0.03795  0.48518  0.58450  1.0000
  C   C589      1.0  0.01315  0.39099  0.48766  1.0000
  C   C590      1.0  0.38797  0.31203  0.94723  1.0000
  C   C591      1.0  0.37812  0.48360  0.86378  1.0000
  C   C592      1.0  0.40944  0.99982  0.85242  1.0000
  H   H468      1.0  0.42911  0.25185  0.97683  1.0000
  Fe  Fe37      1.0  0.02308  0.42411  0.77833  1.0000
  S   S80       1.0  0.04657  0.42153  0.80161  1.0000
  S   S81       1.0  0.48340  0.24205  0.91888  1.0000
  Fe  Fe38      1.0  0.01032  0.41093  0.74057  1.0000
  Fe  Fe39      1.0  0.36918  0.40450  0.93665  1.0000
  S   S82       1.0  0.36614  0.37631  0.96476  1.0000
  S   S83       1.0  0.34093  0.41594  0.91774  1.0000
  S   S84       1.0  0.38621  0.42299  0.95242  1.0000
  S   S85       1.0  0.39991  0.38840  0.92058  1.0000
  S   S86       1.0  0.31961  0.21452  0.95906  1.0000
  Fe  Fe40      1.0  0.38004  0.19824  0.96596  1.0000
  S   S87       1.0  0.36962  0.21975  0.93595  1.0000
  H   H469      1.0  0.37888  0.09857  0.93590  1.0000
  Fe  Fe41      1.0  0.34422  0.23625  0.95763  1.0000
  Fe  Fe42      1.0  0.34624  0.19642  0.93956  1.0000
  S   S88       1.0  0.34263  0.18527  0.91039  1.0000
  S   S89       1.0  0.35874  0.17351  0.96815  1.0000
  C   C593      1.0  0.33693  0.14569  0.83370  1.0000
  H   H470      1.0  0.46669  0.02269  0.96766  1.0000
  H   H471      1.0  0.43515  0.12245  0.76740  1.0000
  Fe  Fe43      1.0  0.39815  0.36156  0.94969  1.0000
  H   H472      1.0  0.39605  0.23487  0.81605  1.0000
  C   C594      1.0  0.39998  0.19009  0.78341  1.0000
  Fe  Fe44      1.0  0.46020  0.07743  0.83506  1.0000
  S   S90       1.0  0.45656  0.10329  0.80537  1.0000
  H   H473      1.0  0.30694  0.02657  0.78289  1.0000
  Fe  Fe45      1.0  0.42599  0.10344  0.86122  1.0000
  S   S91       1.0  0.41883  0.13111  0.83349  1.0000
  S   S92       1.0  0.41276  0.10376  0.89525  1.0000
  Fe  Fe46      1.0  0.42082  0.10482  0.81556  1.0000
  H   H474      1.0  0.08884  0.45220  0.97357  1.0000
  H   H475      1.0  0.48204  0.05359  0.89898  1.0000
  C   C595      1.0  0.36860  0.25950  0.80920  1.0000
  S   S93       1.0  0.42439  0.07726  0.84432  1.0000
  C   C596      1.0  0.28972  0.47121  0.94240  1.0000
  C   C597      1.0  0.42982  0.17091  0.76302  1.0000
  H   H476      1.0  0.11458  0.44275  0.90193  1.0000
  C   C598      1.0  0.40582  0.11118  0.76518  1.0000
  H   H477      1.0  0.46369  0.08583  0.76717  1.0000
  H   H478      1.0  0.44822  0.15031  0.93402  1.0000
  H   H479      1.0  0.17239  0.40275  0.79754  1.0000
  C   C599      1.0  0.40445  0.19072  0.82780  1.0000
  H   H480      1.0  0.40974  0.28191  0.94643  1.0000
  C   C600      1.0  0.34803  0.26456  0.80242  1.0000
  H   H481      1.0  0.34586  0.03085  0.96021  1.0000
  C   C601      1.0  0.46273  0.14083  0.92741  1.0000
  S   S94       1.0  0.39775  0.10403  0.79285  1.0000
  C   C602      1.0  0.33353  0.16517  0.84064  1.0000
  C   C603      1.0  0.36981  0.15581  0.81146  1.0000
  C   C604      1.0  0.47219  0.02263  0.78396  1.0000
  C   C605      1.0  0.36260  0.16304  0.90586  1.0000
  C   C606      1.0  0.37949  0.15528  0.91842  1.0000
  C   C607      1.0  0.39486  0.13713  0.91504  1.0000
  C   C608      1.0  0.39398  0.12714  0.89851  1.0000
  C   C609      1.0  0.37741  0.13517  0.88559  1.0000
  C   C610      1.0  0.36154  0.15284  0.88954  1.0000
  H   H482      1.0  0.38083  0.16325  0.93072  1.0000
  H   H483      1.0  0.40751  0.13094  0.92521  1.0000
  H   H484      1.0  0.37650  0.12742  0.87291  1.0000
  H   H485      1.0  0.34842  0.15865  0.87995  1.0000
  C   C611      1.0  0.43278  0.20094  0.95654  1.0000
  C   C612      1.0  0.45449  0.19166  0.95334  1.0000
  C   C613      1.0  0.47004  0.20447  0.94207  1.0000
  C   C614      1.0  0.46384  0.22667  0.93399  1.0000
  C   C615      1.0  0.44207  0.23623  0.93771  1.0000
  C   C616      1.0  0.42643  0.22326  0.94893  1.0000
  H   H486      1.0  0.28315  0.48551  0.93124  1.0000
  H   H487      1.0  0.43720  0.25346  0.93171  1.0000
  H   H488      1.0  0.40955  0.23041  0.95159  1.0000
  C   C617      1.0  0.46332  0.40267  0.96330  1.0000
  C   C618      1.0  0.43378  0.18414  0.85728  1.0000
  C   C619      1.0  0.35063  0.22736  0.79875  1.0000
  H   H489      1.0  0.44577  0.12918  0.90753  1.0000
  C   C620      1.0  0.42541  0.19631  0.82119  1.0000
  C   C621      1.0  0.36637  0.32233  0.94730  1.0000
  C   C622      1.0  0.34976  0.31016  0.94831  1.0000
  H   H490      1.0  0.36242  0.33957  0.94698  1.0000
  H   H491      1.0  0.33301  0.31803  0.94891  1.0000
  C   C623      1.0  0.36976  0.07201  0.92681  1.0000
  C   C624      1.0  0.48114  0.03654  0.90611  1.0000
  C   C625      1.0  0.35470  0.28771  0.94921  1.0000
  H   H492      1.0  0.49052  0.34746  0.85775  1.0000
  C   C626      1.0  0.35299  0.04572  0.95499  1.0000
  C   C627      1.0  0.39804  0.18280  0.84947  1.0000
  H   H493      1.0  0.45238  0.36907  0.92379  1.0000
  C   C628      1.0  0.37155  0.08389  0.94147  1.0000
  C   C629      1.0  0.13591  0.43805  0.94269  1.0000
  S   S95       1.0  0.03136  0.43465  0.74314  1.0000
  C   C630      1.0  0.39270  0.10806  0.75125  1.0000
  H   H494      1.0  0.30595  0.44085  0.89522  1.0000
  H   H495      1.0  0.24589  0.42004  0.93974  1.0000
  C   C631      1.0  0.05928  0.46079  0.78010  1.0000
  C   C632      1.0  0.05575  0.44643  0.79977  1.0000
  C   C633      1.0  0.06033  0.45164  0.81799  1.0000
  C   C634      1.0  0.06823  0.47121  0.81654  1.0000
  C   C635      1.0  0.35999  0.05324  0.93350  1.0000
  H   H496      1.0  0.05587  0.45692  0.76597  1.0000
  H   H497      1.0  0.05761  0.44061  0.83326  1.0000
  H   H498      1.0  0.44059  0.99451  0.83365  1.0000
  C   C636      1.0  0.37637  0.27754  0.94841  1.0000
  C   C637      1.0  0.34612  0.45864  0.91187  1.0000
  C   C638      1.0  0.33364  0.44414  0.90877  1.0000
  H   H499      1.0  0.24703  0.43818  0.86451  1.0000
  H   H500      1.0  0.31964  0.16864  0.85218  1.0000
  H   H501      1.0  0.35992  0.45256  0.92054  1.0000
  H   H502      1.0  0.38189  0.17885  0.85513  1.0000
  H   H503      1.0  0.34570  0.19471  0.83906  1.0000
  S   S96       1.0  0.41781  0.37593  0.96637  1.0000
  C   C639      1.0  0.44435  0.30412  0.98666  1.0000
  P   P19       1.0  0.43909  0.00162  0.95001  1.0000
  C   C640      1.0  0.11551  0.47059  0.96427  1.0000
  H   H504      1.0  0.29021  0.03908  0.74454  1.0000
  C   C641      1.0  0.48284  0.14037  0.93389  1.0000
  H   H505      1.0  0.01489  0.46829  0.82911  1.0000
  C   C642      1.0  0.13168  0.44348  0.82571  1.0000
  C   C643      1.0  0.28168  0.39095  0.96055  1.0000
  H   H506      1.0  0.48407  0.14943  0.94544  1.0000
  C   C644      1.0  0.06802  0.47984  0.77853  1.0000
  C   C645      1.0  0.11514  0.43683  0.95401  1.0000
  H   H507      1.0  0.48689  0.31902  0.98671  1.0000
  C   C646      1.0  0.46419  0.03080  0.92210  1.0000
  S   S97       1.0  0.40877  0.32640  0.94816  1.0000
  C   C647      1.0  0.39677  0.01988  0.90535  1.0000
  C   C648      1.0  0.31568  0.45210  0.89751  1.0000
  C   C649      1.0  0.37944  0.46088  0.86888  1.0000
  C   C650      1.0  0.35160  0.99252  0.80089  1.0000
  H   H508      1.0  0.43350  0.46133  0.96194  1.0000
  H   H509      1.0  0.48679  0.19709  0.93957  1.0000
  C   C651      1.0  0.07238  0.48520  0.79671  1.0000
  H   H510      1.0  0.45878  0.26945  0.95302  1.0000
  H   H511      1.0  0.47209  0.18260  0.90141  1.0000
  S   S98       1.0  0.00496  0.39777  0.77598  1.0000
  C   C652      1.0  0.42035  0.18050  0.74450  1.0000
  C   C653      1.0  0.38701  0.00048  0.85372  1.0000
  H   H512      1.0  0.31818  0.48440  0.94381  1.0000
  H   H513      1.0  0.28118  0.00316  0.74374  1.0000
  H   H514      1.0  0.35784  0.12586  0.81383  1.0000
  H   H515      1.0  0.32313  0.25244  0.79188  1.0000
  H   H516      1.0  0.37767  0.10161  0.75752  1.0000
  C   C654      1.0  0.19844  0.43545  0.96935  1.0000
  S   S99       1.0  0.41416  0.18387  0.96984  1.0000
  H   H517      1.0  0.45217  0.04364  0.92718  1.0000
  C   C655      1.0  0.49003  0.00303  0.84197  1.0000
  C   C656      1.0  0.49011  0.03332  0.77435  1.0000
  Fe  Fe47      1.0  0.45521  0.12731  0.82546  1.0000
  C   C657      1.0  0.47954  0.39476  0.97673  1.0000
  S   S100      1.0  0.46231  0.10132  0.85432  1.0000
  H   H518      1.0  0.18125  0.44072  0.96823  1.0000
  H   H519      1.0  0.36706  0.00767  0.90580  1.0000
  C   C658      1.0  0.43381  0.26606  0.98001  1.0000
  C   C659      1.0  0.39693  0.00685  0.75424  1.0000
  C   C660      1.0  0.46121  0.02135  0.86368  1.0000
  H   H520      1.0  0.25112  0.37839  0.96614  1.0000
  C   C661      1.0  0.45559  0.29515  0.96973  1.0000
  H   H521      1.0  0.45713  0.37481  0.85661  1.0000
  H   H522      1.0  0.47731  0.15514  0.85407  1.0000
  S   S101      1.0  0.47257  0.15604  0.80981  1.0000
  H   H523      1.0  0.48197  0.17919  0.98452  1.0000
  C   C662      1.0  0.46612  0.06818  0.77198  1.0000
  C   C663      1.0  0.40719  0.09630  0.96685  1.0000
  H   H524      1.0  0.10684  0.42335  0.95437  1.0000
  H   H525      1.0  0.07163  0.47519  0.83063  1.0000
  C   C664      1.0  0.42316  0.99512  0.83452  1.0000
  H   H526      1.0  0.39633  0.06353  0.76584  1.0000
  H   H527      1.0  0.33900  0.28091  0.80131  1.0000
  H   H528      1.0  0.43568  0.28319  0.78004  1.0000
  C   C665      1.0  0.36343  0.07727  0.96294  1.0000
  C   C666      1.0  0.35471  0.05766  0.96970  1.0000
  C   C667      1.0  0.39036  0.03059  0.77896  1.0000
  H   H529      1.0  0.37515  0.21043  0.76503  1.0000
  C   C668      1.0  0.31997  0.14478  0.95046  1.0000
  C   C669      1.0  0.16106  0.41395  0.80566  1.0000
  H   H530      1.0  0.42083  0.46018  0.92861  1.0000
  C   C670      1.0  0.47787  0.99252  0.92341  1.0000
  C   C671      1.0  0.40815  0.12997  0.98667  1.0000
  C   C672      1.0  0.22278  0.46472  0.85223  1.0000
  C   C673      1.0  0.46135  0.12892  0.91257  1.0000
  C   C674      1.0  0.46334  0.36738  0.87158  1.0000
  C   C675      1.0  0.32376  0.48887  0.89109  1.0000
  C   C676      1.0  0.45153  0.03471  0.78767  1.0000
  H   H531      1.0  0.48606  0.45726  0.95983  1.0000
  S   S102      1.0  0.24822  0.48085  0.98447  1.0000
  C   C677      1.0  0.36656  0.17541  0.81838  1.0000
  C   C678      1.0  0.12399  0.42929  0.81657  1.0000
  C   C679      1.0  0.40410  0.48133  0.97248  1.0000
  C   C680      1.0  0.13617  0.45125  0.87295  1.0000
  H   H532      1.0  0.33339  0.45182  0.96941  1.0000
  C   C681      1.0  0.47946  0.34855  0.91025  1.0000
  H   H533      1.0  0.43781  0.02651  0.79529  1.0000
  C   C682      1.0  0.46064  0.36411  0.90943  1.0000
  H   H534      1.0  0.42670  0.44712  0.89068  1.0000
  H   H535      1.0  0.38522  0.03361  0.79473  1.0000
  H   H536      1.0  0.40741  0.08285  0.95952  1.0000
  H   H537      1.0  0.28837  0.99919  0.81023  1.0000
  C   C683      1.0  0.44993  0.02772  0.97370  1.0000
  H   H538      1.0  0.31345  0.42046  0.98266  1.0000
  C   C684      1.0  0.30368  0.38747  0.95220  1.0000
  C   C685      1.0  0.31169  0.37056  0.94160  1.0000
  H   H539      1.0  0.42637  0.02923  0.90919  1.0000
  H   H540      1.0  0.38428  0.47923  0.92036  1.0000
  C   C686      1.0  0.38057  0.00693  0.91430  1.0000
  H   H541      1.0  0.18618  0.42829  0.81295  1.0000
  H   H542      1.0  0.19697  0.48190  0.80235  1.0000
  H   H543      1.0  0.14372  0.42551  0.93422  1.0000
  Fe  Fe48      1.0  0.38587  0.39326  0.97910  1.0000
  H   H544      1.0  0.37639  0.00416  0.86757  1.0000
  H   H545      1.0  0.49269  0.07933  0.93932  1.0000
  C   C687      1.0  0.27843  0.45342  0.94962  1.0000
  H   H546      1.0  0.43842  0.38609  0.88946  1.0000
  C   C688      1.0  0.41951  0.17534  0.78242  1.0000
  C   C689      1.0  0.20242  0.47062  0.84500  1.0000
  C   C690      1.0  0.49035  0.16250  0.84354  1.0000
  H   H547      1.0  0.13258  0.40359  0.79946  1.0000
  C   C691      1.0  0.45269  0.37365  0.89010  1.0000
  C   C692      1.0  0.19884  0.43247  0.85115  1.0000
  C   C693      1.0  0.45716  0.00098  0.87632  1.0000
  C   C694      1.0  0.23493  0.42367  0.95347  1.0000
  H   H548      1.0  0.31472  0.39777  0.95387  1.0000
  H   H549      1.0  0.32866  0.36836  0.93481  1.0000
  C   C695      1.0  0.41215  0.48006  0.87763  1.0000
  H   H550      1.0  0.19705  0.47792  0.94477  1.0000
  C   C696      1.0  0.21920  0.42659  0.85848  1.0000
  H   H551      1.0  0.46784  0.30338  0.95869  1.0000
  H   H552      1.0  0.00913  0.47856  0.86379  1.0000
  C   C697      1.0  0.12031  0.47589  0.89610  1.0000
  C   C698      1.0  0.10498  0.45307  0.96481  1.0000
  C   C699      1.0  0.46227  0.00871  0.93075  1.0000
  H   H553      1.0  0.26304  0.45445  0.94406  1.0000
  C   C700      1.0  0.16247  0.48637  0.81390  1.0000
  C   C701      1.0  0.14621  0.46793  0.85877  1.0000
  C   C702      1.0  0.43958  0.20047  0.90378  1.0000
  C   C703      1.0  0.46153  0.19747  0.89536  1.0000
  C   C704      1.0  0.46988  0.21376  0.87930  1.0000
  C   C705      1.0  0.45629  0.23310  0.87172  1.0000
  C   C706      1.0  0.43416  0.23618  0.88002  1.0000
  C   C707      1.0  0.42599  0.21981  0.89631  1.0000
  P   P20       1.0  0.41659  0.26125  0.87025  1.0000
  C   C708      1.0  0.42094  0.28295  0.88164  1.0000
  C   C709      1.0  0.42257  0.26844  0.84163  1.0000
  C   C710      1.0  0.41979  0.29033  0.83048  1.0000
  C   C711      1.0  0.42443  0.29560  0.80834  1.0000
  C   C712      1.0  0.43191  0.27909  0.79717  1.0000
  C   C713      1.0  0.43468  0.25728  0.80811  1.0000
  C   C714      1.0  0.42993  0.25199  0.83020  1.0000
  C   C715      1.0  0.43950  0.28062  0.89165  1.0000
  C   C716      1.0  0.44288  0.29716  0.90066  1.0000
  C   C717      1.0  0.42813  0.31652  0.89915  1.0000
  C   C718      1.0  0.40964  0.31912  0.88916  1.0000
  C   C719      1.0  0.40605  0.30245  0.88040  1.0000
  C   C720      1.0  0.38888  0.25562  0.87625  1.0000
  C   C721      1.0  0.38279  0.24046  0.86692  1.0000
  C   C722      1.0  0.36190  0.23476  0.87230  1.0000
  C   C723      1.0  0.34684  0.24429  0.88687  1.0000
  C   C724      1.0  0.35273  0.25936  0.89625  1.0000
  C   C725      1.0  0.37381  0.26462  0.89139  1.0000
  H   H554      1.0  0.43312  0.18803  0.91650  1.0000
  C   C726      1.0  0.39033  0.01000  0.77494  1.0000
  C   C727      1.0  0.39655  0.04772  0.76256  1.0000
  H   H555      1.0  0.46312  0.24572  0.85957  1.0000
  H   H556      1.0  0.40921  0.22195  0.90352  1.0000
  H   H557      1.0  0.41413  0.30342  0.83871  1.0000
  H   H558      1.0  0.42236  0.31253  0.79986  1.0000
  H   H559      1.0  0.48698  0.21151  0.87296  1.0000
  H   H560      1.0  0.44223  0.12721  0.97488  1.0000
  H   H561      1.0  0.43212  0.23505  0.83841  1.0000
  H   H562      1.0  0.45127  0.26588  0.89295  1.0000
  H   H563      1.0  0.45681  0.29478  0.90912  1.0000
  H   H564      1.0  0.43076  0.32932  0.90620  1.0000
  H   H565      1.0  0.39787  0.33391  0.88867  1.0000
  H   H566      1.0  0.39153  0.30471  0.87286  1.0000
  H   H567      1.0  0.39442  0.23230  0.85618  1.0000
  H   H568      1.0  0.35757  0.22236  0.86580  1.0000
  H   H569      1.0  0.33089  0.23931  0.89159  1.0000
  H   H570      1.0  0.34128  0.26610  0.90818  1.0000
  H   H571      1.0  0.37832  0.27499  0.90018  1.0000
  C   C728      1.0  0.31795  0.45231  0.96406  1.0000
  P   P21       1.0  0.27162  0.41242  0.97478  1.0000
  C   C729      1.0  0.49264  0.16411  0.98327  1.0000
  C   C730      1.0  0.44001  0.19293  0.83590  1.0000
  C   C731      1.0  0.42670  0.10424  0.96559  1.0000
  C   C732      1.0  0.44851  0.05746  0.78181  1.0000
  H   H572      1.0  0.45636  0.19668  0.83061  1.0000
  C   C733      1.0  0.41330  0.45735  0.88290  1.0000
  C   C734      1.0  0.38020  0.23839  0.81075  1.0000
  C   C735      1.0  0.42503  0.11983  0.75684  1.0000
  H   H573      1.0  0.11999  0.45532  0.83274  1.0000
  H   H574      1.0  0.44065  0.24444  0.79949  1.0000
  C   C736      1.0  0.14650  0.45558  0.94208  1.0000
  C   C737      1.0  0.48683  0.05624  0.76848  1.0000
  H   H575      1.0  0.16247  0.45632  0.93306  1.0000
  H   H576      1.0  0.13821  0.43518  0.86964  1.0000
  C   C738      1.0  0.39054  0.19963  0.76470  1.0000
  C   C739      1.0  0.28666  0.43503  0.96441  1.0000
  C   C740      1.0  0.30940  0.47067  0.94967  1.0000
  H   H577      1.0  0.32678  0.49107  0.98257  1.0000
  C   C741      1.0  0.47789  0.02238  0.84663  1.0000
  H   H578      1.0  0.18947  0.41981  0.85153  1.0000
  C   C742      1.0  0.21272  0.43039  0.95186  1.0000
  C   C743      1.0  0.29785  0.35670  0.93965  1.0000
  H   H579      1.0  0.42679  0.16699  0.79661  1.0000
  H   H580      1.0  0.43254  0.06681  0.78490  1.0000
  C   C744      1.0  0.13865  0.41443  0.80667  1.0000
  C   C745      1.0  0.15418  0.44277  0.82521  1.0000
  C   C746      1.0  0.41147  0.02578  0.97685  1.0000
  C   C747      1.0  0.39694  0.44776  0.87854  1.0000
  C   C748      1.0  0.19171  0.48742  0.92998  1.0000
  C   C749      1.0  0.34117  0.48098  0.90301  1.0000
  H   H581      1.0  0.10660  0.43013  0.81681  1.0000
  S   S103      1.0  0.33354  0.27264  0.95163  1.0000
  Fe  Fe49      1.0  0.41694  0.40423  0.93872  1.0000
  C   C750      1.0  0.46889  0.40656  0.94128  1.0000
  H   H582      1.0  0.39748  0.43021  0.88312  1.0000
  C   C751      1.0  0.41269  0.17947  0.86414  1.0000
  S   S104      1.0  0.44852  0.41687  0.92437  1.0000
  H   H583      1.0  0.38382  0.15165  0.80032  1.0000
  C   C752      1.0  0.39300  0.28975  0.94723  1.0000
  H   H584      1.0  0.38028  0.26029  0.94879  1.0000
  C   C753      1.0  0.33715  0.12764  0.95453  1.0000
  H   H585      1.0  0.32564  0.13410  0.83974  1.0000
  H   H586      1.0  0.43073  0.20284  0.80464  1.0000
  C   C754      1.0  0.12303  0.45534  0.89141  1.0000
  H   H587      1.0  0.40781  0.17289  0.88079  1.0000
  P   P22       1.0  0.16383  0.46252  0.83539  1.0000
  H   H588      1.0  0.36625  0.45349  0.86634  1.0000
  C   C755      1.0  0.23124  0.44270  0.85888  1.0000
  C   C756      1.0  0.13641  0.47193  0.95297  1.0000
  S   S105      1.0  0.35742  0.21697  0.98758  1.0000
  H   H589      1.0  0.34744  0.12262  0.94115  1.0000
  H   H590      1.0  0.37569  0.07766  0.91019  1.0000
  C   C757      1.0  0.34833  0.17994  0.83311  1.0000
  C   C758      1.0  0.35505  0.14104  0.81913  1.0000
  H   H591      1.0  0.48495  0.28122  0.85347  1.0000
  C   C759      1.0  0.31066  0.47452  0.88872  1.0000
  H   H592      1.0  0.45905  0.17441  0.95941  1.0000
  H   H593      1.0  0.37555  0.27190  0.81338  1.0000
  C   C760      1.0  0.19058  0.45454  0.84377  1.0000
  H   H594      1.0  0.30409  0.34362  0.93139  1.0000
  C   C761      1.0  0.37125  0.22209  0.80571  1.0000
  C   C762      1.0  0.16883  0.42826  0.81466  1.0000
  P   P23       1.0  0.38571  0.19449  0.80873  1.0000
  H   H595      1.0  0.35771  0.04467  0.92197  1.0000
  C   C763      1.0  0.33909  0.24852  0.79713  1.0000
  C   C764      1.0  0.14397  0.48830  0.86392  1.0000
  H   H596      1.0  0.44148  0.09725  0.95705  1.0000
  H   H597      1.0  0.22562  0.40953  0.86399  1.0000
  H   H598      1.0  0.48580  0.48870  0.86507  1.0000
  H   H599      1.0  0.31726  0.15246  0.93425  1.0000
  H   H600      1.0  0.44541  0.18068  0.86845  1.0000
  C   C765      1.0  0.38791  0.10552  0.97771  1.0000
  C   C766      1.0  0.45039  0.27608  0.96646  1.0000
  C   C767      1.0  0.20684  0.48938  0.91160  1.0000
  C   C768      1.0  0.49183  0.16429  0.82158  1.0000
  H   H601      1.0  0.20663  0.43183  0.93702  1.0000
  H   H602      1.0  0.34341  0.21507  0.79472  1.0000
  P   P24       1.0  0.36270  0.09487  0.98097  1.0000
  H   H603      1.0  0.45206  0.03621  0.86765  1.0000
  H   H604      1.0  0.22364  0.48177  0.91241  1.0000
  C   C769      1.0  0.41417  0.01888  0.91640  1.0000
  H   H605      1.0  0.39816  0.01953  0.97313  1.0000
  C   C770      1.0  0.24296  0.42165  0.97271  1.0000
  S   S106      1.0  0.48473  0.04753  0.83154  1.0000
  C   C771      1.0  0.39920  0.99195  0.94528  1.0000
  C   C772      1.0  0.27603  0.35962  0.94851  1.0000
  C   C773      1.0  0.42717  0.12107  0.97554  1.0000
  C   C774      1.0  0.38147  0.99346  0.93451  1.0000
  H   H606      1.0  0.39587  0.03084  0.88990  1.0000
  C   C775      1.0  0.30663  0.43454  0.97145  1.0000
  C   C776      1.0  0.40299  0.02409  0.73784  1.0000
  H   H607      1.0  0.06968  0.48348  0.94588  1.0000
  H   H608      1.0  0.44651  0.40619  0.97001  1.0000
  H   H609      1.0  0.29725  0.48057  0.87945  1.0000
  C   C777      1.0  0.30599  0.99731  0.80759  1.0000
  C   C778      1.0  0.48217  0.35181  0.87232  1.0000
  H   H610      1.0  0.01216  0.42947  0.83342  1.0000
  C   C779      1.0  0.49044  0.34234  0.89166  1.0000
  H   H611      1.0  0.34894  0.05157  0.98616  1.0000
  Fe  Fe50      1.0  0.33498  0.19381  0.98742  1.0000
  C   C780      1.0  0.30663  0.15240  0.96718  1.0000
  H   H612      1.0  0.44497  0.15965  0.76249  1.0000
  C   C781      1.0  0.49085  0.40243  0.93277  1.0000
  H   H613      1.0  0.47393  0.00508  0.78878  1.0000
  C   C782      1.0  0.34097  0.11766  0.97549  1.0000
  H   H614      1.0  0.23194  0.47732  0.85270  1.0000
  H   H615      1.0  0.10969  0.47921  0.91014  1.0000
  H   H616      1.0  0.47843  0.10660  0.89361  1.0000
  C   C783      1.0  0.41760  0.46994  0.95827  1.0000
  H   H617      1.0  0.26542  0.34861  0.94732  1.0000
  C   C784      1.0  0.26796  0.37662  0.95901  1.0000
  H   H618      1.0  0.19593  0.48779  0.84049  1.0000
  C   C785      1.0  0.43296  0.01999  0.96784  1.0000
  H   H619      1.0  0.40997  0.48189  0.98691  1.0000
  H   H620      1.0  0.29361  0.16599  0.96398  1.0000
  C   C786      1.0  0.41049  0.46931  0.93944  1.0000
  C   C787      1.0  0.41598  0.00422  0.93610  1.0000
  H   H621      1.0  0.34689  0.02238  0.77664  1.0000
  C   C788      1.0  0.31643  0.01275  0.79222  1.0000
  C   C789      1.0  0.47999  0.11626  0.90453  1.0000
  C   C790      1.0  0.33917  0.01036  0.78881  1.0000
  H   H622      1.0  0.48252  0.30634  0.87710  1.0000
  H   H623      1.0  0.44497  0.00009  0.89002  1.0000
  C   C791      1.0  0.40249  0.04460  0.74193  1.0000
  C   C792      1.0  0.37823  0.99636  0.83718  1.0000
  H   H624      1.0  0.41624  0.00283  0.86531  1.0000
  H   H625      1.0  0.36079  0.99731  0.83846  1.0000
  Fe  Fe51      1.0  0.00001  0.45749  0.74527  1.0000
  H   H626      1.0  0.42477  0.48722  0.88148  1.0000
  C   C793      1.0  0.38980  0.47991  0.93490  1.0000
  H   H627      1.0  0.10730  0.48305  0.97274  1.0000
  H   H628      1.0  0.07125  0.49055  0.76317  1.0000
  C   C794      1.0  0.40071  0.19484  0.74534  1.0000
  C   C795      1.0  0.38859  0.12239  0.98761  1.0000
  C   C796      1.0  0.16247  0.48911  0.97670  1.0000
  C   C797      1.0  0.37608  0.49098  0.94925  1.0000
  H   H629      1.0  0.02217  0.48531  0.89451  1.0000
  H   H630      1.0  0.48544  0.34175  0.92537  1.0000
  H   H631      1.0  0.44537  0.06533  0.73837  1.0000
  C   C798      1.0  0.99752  0.44115  0.83524  1.0000
  C   C799      1.0  0.99900  0.46316  0.83290  1.0000
  C   C800      1.0  0.12763  0.58880  0.99481  1.0000
  C   C801      1.0  0.48035  0.82573  0.03507  1.0000
  H   H632      1.0  0.32512  0.56770  0.02091  1.0000
  S   S107      1.0  0.46183  0.88769  0.21256  1.0000
  C   C802      1.0  0.33718  0.82495  0.11733  1.0000
  H   H633      1.0  0.05380  0.64220  0.08000  1.0000
  H   H634      1.0  0.99827  0.55964  0.20793  1.0000
  H   H635      1.0  0.09769  0.56663  0.12537  1.0000
  H   H636      1.0  0.45477  0.76399  0.01988  1.0000
  Fe  Fe52      1.0  0.04994  0.53885  0.05327  1.0000
  C   C803      1.0  0.00825  0.60429  0.19134  1.0000
  C   C804      1.0  0.42081  0.89860  0.20002  1.0000
  Fe  Fe53      1.0  0.09325  0.52488  0.02805  1.0000
  S   S108      1.0  0.12696  0.53368  0.02003  1.0000
  H   H637      1.0  0.01510  0.50499  0.15018  1.0000
  C   C805      1.0  0.34062  0.49684  0.02570  1.0000
  S   S109      1.0  0.07785  0.51215  0.06079  1.0000
  Fe  Fe54      1.0  0.40148  0.90933  0.11029  1.0000
  S   S110      1.0  0.33851  0.80127  0.01039  1.0000
  S   S111      1.0  0.39461  0.90846  0.14565  1.0000
  Fe  Fe55      1.0  0.37288  0.90473  0.07827  1.0000
  S   S112      1.0  0.39504  0.91925  0.05020  1.0000
  S   S113      1.0  0.33802  0.90059  0.07904  1.0000
  H   H638      1.0  0.40395  0.71413  0.10378  1.0000
  Fe  Fe56      1.0  0.39756  0.94364  0.06849  1.0000
  H   H639      1.0  0.37069  0.99137  0.01538  1.0000
  S   S114      1.0  0.39946  0.88189  0.09504  1.0000
  S   S115      1.0  0.37341  0.93079  0.09529  1.0000
  S   S116      1.0  0.29640  0.84618  0.03180  1.0000
  C   C806      1.0  0.32772  0.88526  0.06515  1.0000
  C   C807      1.0  0.34031  0.87608  0.04890  1.0000
  C   C808      1.0  0.33107  0.86378  0.03854  1.0000
  C   C809      1.0  0.30910  0.86105  0.04425  1.0000
  C   C810      1.0  0.29662  0.87046  0.06035  1.0000
  C   C811      1.0  0.30584  0.88256  0.07065  1.0000
  H   H640      1.0  0.35691  0.87889  0.04405  1.0000
  H   H641      1.0  0.34090  0.85657  0.02613  1.0000
  H   H642      1.0  0.27967  0.86852  0.06478  1.0000
  H   H643      1.0  0.29592  0.88993  0.08295  1.0000
  C   C812      1.0  0.27856  0.56825  0.00113  1.0000
  C   C813      1.0  0.47526  0.95838  0.11292  1.0000
  H   H644      1.0  0.49060  0.69487  0.01303  1.0000
  H   H645      1.0  0.34561  0.71638  0.07649  1.0000
  H   H646      1.0  0.34010  0.80896  0.11385  1.0000
  C   C814      1.0  0.44205  0.62361  0.02708  1.0000
  H   H647      1.0  0.43714  0.96738  0.04732  1.0000
  C   C815      1.0  0.40978  0.79369  0.99961  1.0000
  H   H648      1.0  0.40756  0.76140  0.08505  1.0000
  C   C816      1.0  0.40624  0.90276  0.18500  1.0000
  C   C817      1.0  0.41388  0.90281  0.16362  1.0000
  H   H649      1.0  0.38895  0.90589  0.18995  1.0000
  H   H650      1.0  0.07426  0.60409  0.01210  1.0000
  C   C818      1.0  0.44139  0.76853  0.01057  1.0000
  C   C819      1.0  0.31387  0.59121  0.99374  1.0000
  C   C820      1.0  0.38971  0.96363  0.00451  1.0000
  C   C821      1.0  0.03808  0.52656  0.13393  1.0000
  C   C822      1.0  0.48594  0.66191  0.07171  1.0000
  C   C823      1.0  0.10158  0.56059  0.14147  1.0000
  C   C824      1.0  0.34740  0.76656  0.07766  1.0000
  C   C825      1.0  0.32612  0.94925  0.18270  1.0000
  C   C826      1.0  0.07222  0.62553  0.10579  1.0000
  H   H651      1.0  0.14160  0.57766  0.00056  1.0000
  C   C827      1.0  0.18171  0.52084  0.04758  1.0000
  C   C828      1.0  0.16509  0.53079  0.03509  1.0000
  C   C829      1.0  0.14638  0.52129  0.03730  1.0000
  C   C830      1.0  0.19020  0.49451  0.99565  1.0000
  C   C831      1.0  0.12825  0.54254  0.16526  1.0000
  H   H652      1.0  0.19596  0.52849  0.04588  1.0000
  H   H653      1.0  0.16663  0.54601  0.02378  1.0000
  H   H654      1.0  0.36893  0.93169  0.21106  1.0000
  S   S117      1.0  0.03845  0.55396  0.08140  1.0000
  C   C832      1.0  0.38174  0.69281  0.12173  1.0000
  C   C833      1.0  0.43626  0.89832  0.15733  1.0000
  C   C834      1.0  0.33493  0.78715  0.07741  1.0000
  C   C835      1.0  0.38855  0.70878  0.10432  1.0000
  S   S118      1.0  0.03211  0.51860  0.04072  1.0000
  H   H655      1.0  0.32538  0.88360  0.12709  1.0000
  C   C836      1.0  0.45084  0.89345  0.17252  1.0000
  H   H656      1.0  0.33330  0.82177  0.06501  1.0000
  C   C837      1.0  0.31157  0.85718  0.12224  1.0000
  C   C838      1.0  0.32855  0.86693  0.12507  1.0000
  C   C839      1.0  0.34321  0.80589  0.06568  1.0000
  C   C840      1.0  0.45721  0.73783  0.06571  1.0000
  C   C841      1.0  0.45031  0.96705  0.19618  1.0000
  H   H657      1.0  0.13538  0.55021  0.13115  1.0000
  C   C842      1.0  0.00439  0.57937  0.01748  1.0000
  H   H658      1.0  0.00651  0.55875  0.11658  1.0000
  H   H659      1.0  0.41474  0.89868  0.21644  1.0000
  Fe  Fe57      1.0  0.42204  0.89854  0.06798  1.0000
  H   H660      1.0  0.47672  0.61554  0.02069  1.0000
  C   C843      1.0  0.44159  0.75092  0.07678  1.0000
  C   C844      1.0  0.37221  0.71876  0.00532  1.0000
  C   C845      1.0  0.03842  0.61611  0.10072  1.0000
  H   H661      1.0  0.35437  0.53708  0.01542  1.0000
  S   S119      1.0  0.48920  0.78352  0.05851  1.0000
  H   H662      1.0  0.40388  0.96444  0.01145  1.0000
  H   H663      1.0  0.47350  0.65148  0.07619  1.0000
  H   H664      1.0  0.42962  0.79800  0.02144  1.0000
  S   S120      1.0  0.42616  0.92445  0.08447  1.0000
  C   C846      1.0  0.45149  0.98829  0.18464  1.0000
  H   H665      1.0  0.04070  0.52046  0.11953  1.0000
  C   C847      1.0  0.43403  0.83892  0.13558  1.0000
  C   C848      1.0  0.10806  0.58987  0.00848  1.0000
  P   P25       1.0  0.05783  0.57432  0.15457  1.0000
  H   H666      1.0  0.10721  0.57952  0.02432  1.0000
  H   H667      1.0  0.36997  0.81853  0.04431  1.0000
  H   H668      1.0  0.99765  0.49537  0.08791  1.0000
  H   H669      1.0  0.41525  0.66703  0.04699  1.0000
  S   S121      1.0  0.06669  0.55334  0.02151  1.0000
  H   H670      1.0  0.37874  0.68556  0.02270  1.0000
  C   C849      1.0  0.35578  0.71000  0.08911  1.0000
  C   C850      1.0  0.48144  0.93719  0.08579  1.0000
  C   C851      1.0  0.39737  0.96471  0.18328  1.0000
  H   H671      1.0  0.07126  0.59320  0.18650  1.0000
  C   C852      1.0  0.12295  0.55108  0.14467  1.0000
  H   H672      1.0  0.47783  0.93493  0.07095  1.0000
  S   S122      1.0  0.24021  0.51543  0.02818  1.0000
  H   H673      1.0  0.46482  0.80902  0.08790  1.0000
  C   C853      1.0  0.42466  0.63794  0.03465  1.0000
  C   C854      1.0  0.46345  0.62655  0.02704  1.0000
  H   H674      1.0  0.39248  0.78257  0.04525  1.0000
  C   C855      1.0  0.37391  0.75641  0.12710  1.0000
  C   C856      1.0  0.37827  0.74724  0.14789  1.0000
  C   C857      1.0  0.38416  0.76008  0.15980  1.0000
  C   C858      1.0  0.38557  0.78211  0.15098  1.0000
  C   C859      1.0  0.38143  0.79136  0.13001  1.0000
  C   C860      1.0  0.37566  0.77830  0.11814  1.0000
  P   P26       1.0  0.38197  0.82003  0.11873  1.0000
  C   C861      1.0  0.35437  0.83453  0.12038  1.0000
  C   C862      1.0  0.39896  0.83003  0.13274  1.0000
  C   C863      1.0  0.42107  0.83066  0.12509  1.0000
  C   C864      1.0  0.34989  0.85586  0.12376  1.0000
  C   C865      1.0  0.39358  0.82317  0.09121  1.0000
  C   C866      1.0  0.41090  0.80773  0.08499  1.0000
  C   C867      1.0  0.42032  0.81044  0.06381  1.0000
  C   C868      1.0  0.41282  0.82874  0.04879  1.0000
  C   C869      1.0  0.39567  0.84415  0.05485  1.0000
  C   C870      1.0  0.38589  0.84134  0.07593  1.0000
  H   H675      1.0  0.36891  0.74666  0.11798  1.0000
  H   H676      1.0  0.37692  0.73026  0.15483  1.0000
  H   H677      1.0  0.38747  0.75303  0.17596  1.0000
  H   H678      1.0  0.38989  0.79182  0.16057  1.0000
  H   H679      1.0  0.37223  0.78520  0.10200  1.0000
  H   H680      1.0  0.42838  0.82511  0.11086  1.0000
  H   H681      1.0  0.36283  0.86430  0.12487  1.0000
  H   H682      1.0  0.41751  0.79391  0.09657  1.0000
  H   H683      1.0  0.43396  0.79878  0.05904  1.0000
  H   H684      1.0  0.42038  0.83111  0.03245  1.0000
  H   H685      1.0  0.38999  0.85824  0.04310  1.0000
  H   H686      1.0  0.37261  0.85357  0.08023  1.0000
  H   H687      1.0  0.40808  0.63567  0.03455  1.0000
  H   H688      1.0  0.10357  0.51300  0.15648  1.0000
  C   C871      1.0  0.39026  0.83711  0.15153  1.0000
  C   C872      1.0  0.37769  0.70257  0.02302  1.0000
  S   S123      1.0  0.29334  0.53921  0.03649  1.0000
  H   H689      1.0  0.00876  0.51921  0.18286  1.0000
  C   C873      1.0  0.43950  0.75626  0.99633  1.0000
  C   C874      1.0  0.36325  0.88663  0.23484  1.0000
  H   H690      1.0  0.14485  0.53524  0.16769  1.0000
  C   C875      1.0  0.04434  0.55231  0.15318  1.0000
  C   C876      1.0  0.37972  0.73050  0.04163  1.0000
  C   C877      1.0  0.42695  0.78763  0.01173  1.0000
  C   C878      1.0  0.31591  0.83626  0.11820  1.0000
  Fe  Fe58      1.0  0.06122  0.49282  0.04604  1.0000
  C   C879      1.0  0.03080  0.54258  0.17083  1.0000
  H   H691      1.0  0.34032  0.75239  0.08644  1.0000
  H   H692      1.0  0.44637  0.98238  0.99475  1.0000
  C   C880      1.0  0.41514  0.87698  0.00404  1.0000
  H   H693      1.0  0.11610  0.53637  0.19859  1.0000
  C   C881      1.0  0.35214  0.93620  0.20795  1.0000
  C   C882      1.0  0.37095  0.97887  0.00673  1.0000
  C   C883      1.0  0.02010  0.59328  0.17607  1.0000
  H   H694      1.0  0.47432  0.73787  0.06602  1.0000
  C   C884      1.0  0.49062  0.94298  0.12411  1.0000
  C   C885      1.0  0.42235  0.97455  0.11321  1.0000
  H   H695      1.0  0.31855  0.78866  0.08576  1.0000
  H   H696      1.0  0.35675  0.67302  0.13631  1.0000
  C   C886      1.0  0.45438  0.95464  0.16352  1.0000
  C   C887      1.0  0.01502  0.57342  0.08364  1.0000
  H   H697      1.0  0.01078  0.61095  0.99934  1.0000
  H   H698      1.0  0.37231  0.56558  0.02116  1.0000
  C   C888      1.0  0.05482  0.62913  0.09406  1.0000
  C   C889      1.0  0.99926  0.60194  0.01058  1.0000
  C   C890      1.0  0.12084  0.51090  0.11000  1.0000
  C   C891      1.0  0.10046  0.52231  0.10474  1.0000
  C   C892      1.0  0.09902  0.54241  0.09015  1.0000
  C   C893      1.0  0.11782  0.55133  0.08075  1.0000
  C   C894      1.0  0.13809  0.54032  0.08616  1.0000
  C   C895      1.0  0.13964  0.52022  0.10073  1.0000
  H   H699      1.0  0.43749  0.85117  0.99263  1.0000
  H   H700      1.0  0.39976  0.94720  0.18491  1.0000
  C   C896      1.0  0.45664  0.97581  0.15177  1.0000
  C   C897      1.0  0.38026  0.55583  0.00987  1.0000
  C   C898      1.0  0.02009  0.52582  0.16959  1.0000
  S   S124      1.0  0.44932  0.88430  0.04579  1.0000
  C   C899      1.0  0.03952  0.59929  0.11890  1.0000
  H   H701      1.0  0.33376  0.68824  0.10732  1.0000
  H   H702      1.0  0.08571  0.51538  0.11128  1.0000
  H   H703      1.0  0.08334  0.55076  0.08558  1.0000
  H   H704      1.0  0.11671  0.56651  0.06889  1.0000
  H   H705      1.0  0.15277  0.54692  0.07843  1.0000
  H   H706      1.0  0.15566  0.51181  0.10400  1.0000
  C   C900      1.0  0.07329  0.60877  0.12408  1.0000
  C   C901      1.0  0.40322  0.84554  0.16189  1.0000
  C   C902      1.0  0.39807  0.89416  0.99952  1.0000
  H   H707      1.0  0.42102  0.87298  0.01935  1.0000
  H   H708      1.0  0.45250  0.94436  0.01506  1.0000
  C   C903      1.0  0.30904  0.94753  0.19938  1.0000
  C   C904      1.0  0.00291  0.57250  0.10367  1.0000
  C   C905      1.0  0.41283  0.73875  0.06438  1.0000
  H   H709      1.0  0.33080  0.51256  0.02092  1.0000
  H   H710      1.0  0.08654  0.60660  0.13332  1.0000
  H   H711      1.0  0.39281  0.97171  0.15049  1.0000
  H   H712      1.0  0.39276  0.96889  0.10465  1.0000
  C   C906      1.0  0.37662  0.78356  0.05465  1.0000
  H   H713      1.0  0.39041  0.90282  0.01174  1.0000
  C   C907      1.0  0.37551  0.71764  0.08793  1.0000
  H   H714      1.0  0.38565  0.69569  0.05475  1.0000
  H   H715      1.0  0.40223  0.96253  0.21547  1.0000
  P   P27       1.0  0.38424  0.73803  0.06514  1.0000
  H   H716      1.0  0.28836  0.89521  0.99322  1.0000
  C   C908      1.0  0.42865  0.72581  0.05306  1.0000
  C   C909      1.0  0.36397  0.80407  0.05421  1.0000
  C   C910      1.0  0.36842  0.76457  0.06628  1.0000
  C   C911      1.0  0.37486  0.74658  0.02354  1.0000
  C   C912      1.0  0.07511  0.50071  0.17435  1.0000
  C   C913      1.0  0.14398  0.50201  0.05253  1.0000
  C   C914      1.0  0.04290  0.58828  0.17469  1.0000
  C   C915      1.0  0.37948  0.86861  0.23365  1.0000
  C   C916      1.0  0.44317  0.89368  0.19389  1.0000
  H   H717      1.0  0.46695  0.98984  0.04030  1.0000
  H   H718      1.0  0.39186  0.68603  0.13431  1.0000
  H   H719      1.0  0.46294  0.71568  0.04468  1.0000
  C   C917      1.0  0.38152  0.70840  0.04112  1.0000
  H   H720      1.0  0.01137  0.58869  0.16535  1.0000
  H   H721      1.0  0.12958  0.49458  0.05419  1.0000
  C   C918      1.0  0.35247  0.97768  0.99825  1.0000
  H   H722      1.0  0.37338  0.83647  0.15801  1.0000
  C   C919      1.0  0.19808  0.55558  0.99010  1.0000
  H   H723      1.0  0.32271  0.95472  0.16641  1.0000
  Fe  Fe59      1.0  0.27336  0.51293  0.03780  1.0000
  H   H724      1.0  0.01983  0.59241  0.05168  1.0000
  H   H725      1.0  0.44681  0.76102  0.08546  1.0000
  C   C920      1.0  0.34903  0.69403  0.10653  1.0000
  C   C921      1.0  0.36198  0.68546  0.12285  1.0000
  S   S125      1.0  0.39386  0.81906  0.99894  1.0000
  H   H726      1.0  0.44229  0.89829  0.14087  1.0000
  C   C922      1.0  0.45077  0.72529  0.05383  1.0000
  H   H727      1.0  0.39628  0.85181  0.17588  1.0000
  C   C923      1.0  0.42870  0.65558  0.04169  1.0000
  H   H728      1.0  0.43505  0.85315  0.16187  1.0000
  C   C924      1.0  0.45011  0.65882  0.04125  1.0000
  H   H729      1.0  0.37393  0.76370  0.02318  1.0000
  H   H730      1.0  0.42408  0.71635  0.04338  1.0000
  H   H731      1.0  0.30283  0.82904  0.11527  1.0000
  H   H732      1.0  0.07113  0.51324  0.18345  1.0000
  C   C925      1.0  0.42509  0.84644  0.15392  1.0000
  C   C926      1.0  0.31257  0.57284  0.01058  1.0000
  C   C927      1.0  0.41946  0.75131  0.07625  1.0000
  C   C928      1.0  0.29495  0.56130  0.01433  1.0000
  C   C929      1.0  0.01021  0.59141  0.06708  1.0000
  H   H733      1.0  0.29521  0.86619  0.12238  1.0000
  C   C930      1.0  0.01899  0.61058  0.20525  1.0000
  C   C931      1.0  0.37012  0.53952  0.00658  1.0000
  H   H734      1.0  0.36090  0.94441  0.17400  1.0000
  C   C932      1.0  0.21184  0.56869  0.99360  1.0000
  C   C933      1.0  0.45159  0.95027  0.18568  1.0000
  S   S126      1.0  0.07938  0.50309  0.01335  1.0000
  C   C934      1.0  0.08541  0.56213  0.15887  1.0000
  C   C935      1.0  0.47803  0.81155  0.05501  1.0000
  H   H735      1.0  0.02641  0.58973  0.12412  1.0000
  H   H736      1.0  0.05878  0.55098  0.12107  1.0000
  C   C936      1.0  0.47122  0.95566  0.09339  1.0000
  C   C937      1.0  0.17966  0.50135  0.06253  1.0000
  C   C938      1.0  0.05368  0.59555  0.18808  1.0000
  H   H737      1.0  0.07823  0.55281  0.19305  1.0000
  H   H738      1.0  0.02466  0.61918  0.09193  1.0000
  C   C939      1.0  0.39374  0.97861  0.16374  1.0000
  S   S127      1.0  0.39009  0.97965  0.05496  1.0000
  C   C940      1.0  0.08948  0.60363  0.00154  1.0000
  Fe  Fe60      1.0  0.31657  0.83329  0.00460  1.0000
  H   H739      1.0  0.99740  0.50288  0.22272  1.0000
  C   C941      1.0  0.04171  0.60639  0.20350  1.0000
  C   C942      1.0  0.45961  0.85611  0.04976  1.0000
  C   C943      1.0  0.31261  0.90805  0.00394  1.0000
  H   H740      1.0  0.08471  0.63592  0.10085  1.0000
  C   C944      1.0  0.05717  0.59521  0.13046  1.0000
  H   H741      1.0  0.42859  0.95727  0.11747  1.0000
  H   H742      1.0  0.35832  0.96367  0.23137  1.0000
  C   C945      1.0  0.31347  0.93983  0.22038  1.0000
  H   H743      1.0  0.26498  0.55940  0.00389  1.0000
  H   H744      1.0  0.20101  0.53816  0.99641  1.0000
  H   H745      1.0  0.46814  0.88970  0.16768  1.0000
  C   C946      1.0  0.45719  0.84201  0.06974  1.0000
  C   C947      1.0  0.34766  0.94357  0.18699  1.0000
  H   H746      1.0  0.45443  0.91372  0.99771  1.0000
  C   C948      1.0  0.09354  0.50043  0.15921  1.0000
  C   C949      1.0  0.39875  0.97336  0.20046  1.0000
  Fe  Fe61      1.0  0.48953  0.75208  0.99613  1.0000
  C   C950      1.0  0.16067  0.49199  0.06513  1.0000
  H   H747      1.0  0.05000  0.61180  0.21399  1.0000
  C   C951      1.0  0.04830  0.54386  0.13486  1.0000
  C   C952      1.0  0.37095  0.74072  0.00554  1.0000
  P   P28       1.0  0.46123  0.98175  0.12314  1.0000
  C   C953      1.0  0.45066  0.94775  0.99835  1.0000
  C   C954      1.0  0.02360  0.51788  0.15112  1.0000
  H   H748      1.0  0.33981  0.91937  0.01098  1.0000
  C   C955      1.0  0.46764  0.64388  0.03459  1.0000
  C   C956      1.0  0.09067  0.55277  0.17946  1.0000
  H   H749      1.0  0.46000  0.96767  0.08409  1.0000
  C   C957      1.0  0.43338  0.98461  0.04719  1.0000
  S   S128      1.0  0.46205  0.73798  0.98945  1.0000
  C   C958      1.0  0.11206  0.54321  0.18264  1.0000
  C   C959      1.0  0.33306  0.91477  0.99888  1.0000
  H   H750      1.0  0.02820  0.54807  0.18545  1.0000
  H   H751      1.0  0.47342  0.85873  0.01702  1.0000
  Fe  Fe62      1.0  0.05144  0.53065  0.00922  1.0000
  C   C960      1.0  0.47127  0.84789  0.03249  1.0000
  H   H752      1.0  0.30384  0.90747  0.01973  1.0000
  H   H753      1.0  0.43905  0.61037  0.02086  1.0000
  H   H754      1.0  0.00964  0.61893  0.21723  1.0000
  H   H755      1.0  0.44851  0.84838  0.08313  1.0000
  C   C961      1.0  0.43465  0.99024  0.11444  1.0000
  C   C962      1.0  0.30386  0.90118  0.98898  1.0000
  H   H756      1.0  0.30001  0.93814  0.23298  1.0000
  H   H757      1.0  0.35212  0.89157  0.22306  1.0000
  C   C963      1.0  0.46654  0.81982  0.07240  1.0000
  H   H758      1.0  0.29235  0.95180  0.19598  1.0000
  H   H759      1.0  0.45293  0.67314  0.04576  1.0000
  C   C964      1.0  0.37989  0.52717  0.99151  1.0000
  H   H760      1.0  0.44763  0.96375  0.21328  1.0000
  H   H761      1.0  0.45095  0.83979  0.12929  1.0000
  C   C965      1.0  0.40187  0.98104  0.10628  1.0000
  H   H762      1.0  0.01979  0.57085  0.01145  1.0000
  H   H763      1.0  0.38105  0.86025  0.22085  1.0000
  H   H764      1.0  0.45485  0.94146  0.15570  1.0000
  C   C966      1.0  0.99750  0.55242  0.22474  1.0000
  H   H765      1.0  0.22544  0.56136  0.00241  1.0000
  H   H766      1.0  0.40806  0.57276  0.00049  1.0000
  C   C967      1.0  0.33510  0.93397  0.22479  1.0000
  H   H767      1.0  0.33785  0.98937  0.00021  1.0000
  C   C968      1.0  0.35264  0.96104  0.98780  1.0000
  C   C969      1.0  0.39003  0.94710  0.99387  1.0000
  H   H768      1.0  0.45027  0.93393  0.19483  1.0000
  H   H769      1.0  0.48941  0.60484  0.06045  1.0000
  S   S129      1.0  0.48812  0.78666  0.99897  1.0000
  H   H770      1.0  0.40488  0.93577  0.99199  1.0000
  H   H771      1.0  0.02728  0.56211  0.22840  1.0000
  H   H772      1.0  0.42932  0.67285  0.99810  1.0000
  H   H773      1.0  0.48949  0.81975  0.02164  1.0000
  C   C970      1.0  0.01368  0.55382  0.23628  1.0000
  C   C971      1.0  0.40035  0.55983  0.99830  1.0000
  C   C972      1.0  0.48888  0.67404  0.08581  1.0000
  H   H774      1.0  0.47855  0.67323  0.10087  1.0000
  C   C973      1.0  0.42462  0.86483  0.98890  1.0000
  H   H775      1.0  0.36677  0.75334  0.99184  1.0000
  H   H776      1.0  0.32747  0.60004  0.99105  1.0000
  H   H777      1.0  0.36900  0.71428  0.99139  1.0000
  H   H778      1.0  0.20443  0.50156  0.99582  1.0000
  H   H779      1.0  0.21923  0.60123  0.98790  1.0000
  C   C974      1.0  0.45170  0.93044  0.98858  1.0000
  C   C975      1.0  0.41889  0.96567  0.33598  1.0000
  S   S130      1.0  0.32966  0.97597  0.35819  1.0000
  S   S131      1.0  0.05173  0.72647  0.40040  1.0000
  C   C976      1.0  0.04017  0.82369  0.37504  1.0000
  S   S132      1.0  0.33323  0.97998  0.40661  1.0000
  Fe  Fe63      1.0  0.35399  0.96473  0.38122  1.0000
  S   S133      1.0  0.36797  0.92922  0.38903  1.0000
  H   H780      1.0  0.40882  0.95931  0.35039  1.0000
  H   H781      1.0  0.40868  0.91209  0.42148  1.0000
  H   H782      1.0  0.00044  0.86997  0.43149  1.0000
  P   P29       1.0  0.44910  0.98042  0.46113  1.0000
  Fe  Fe64      1.0  0.01932  0.72873  0.42060  1.0000
  C   C977      1.0  0.08045  0.84432  0.40817  1.0000
  Fe  Fe65      1.0  0.42890  0.90067  0.28670  1.0000
  H   H783      1.0  0.18436  0.96584  0.42612  1.0000
  H   H784      1.0  0.00203  0.55917  0.41146  1.0000
  C   C978      1.0  0.04100  0.80349  0.38966  1.0000
  H   H785      1.0  0.02806  0.77321  0.40055  1.0000
  H   H786      1.0  0.40055  0.98204  0.40417  1.0000
  C   C979      1.0  0.09213  0.88315  0.33136  1.0000
  Fe  Fe66      1.0  0.03631  0.69744  0.45933  1.0000
  H   H787      1.0  0.38367  0.97965  0.46936  1.0000
  C   C980      1.0  0.08058  0.87374  0.35050  1.0000
  S   S134      1.0  0.07036  0.69249  0.44256  1.0000
  C   C981      1.0  0.01407  0.90037  0.38221  1.0000
  Fe  Fe67      1.0  0.06472  0.72885  0.42954  1.0000
  S   S135      1.0  0.09098  0.74937  0.42721  1.0000
  Fe  Fe68      1.0  0.05514  0.89172  0.44103  1.0000
  S   S136      1.0  0.05946  0.90470  0.40557  1.0000
  H   H788      1.0  0.09984  0.89719  0.33048  1.0000
  S   S137      1.0  0.04352  0.85918  0.45262  1.0000
  C   C982      1.0  0.29506  0.88675  0.28776  1.0000
  H   H789      1.0  0.20715  0.97600  0.35697  1.0000
  H   H790      1.0  0.27844  0.97794  0.31126  1.0000
  C   C983      1.0  0.44875  0.88530  0.34599  1.0000
  Fe  Fe69      1.0  0.05439  0.69055  0.41502  1.0000
  H   H791      1.0  0.08559  0.84918  0.30111  1.0000
  Fe  Fe70      1.0  0.47424  0.91328  0.27604  1.0000
  C   C984      1.0  0.99933  0.53080  0.33017  1.0000
  S   S138      1.0  0.06447  0.66350  0.39723  1.0000
  C   C985      1.0  0.05525  0.49922  0.45552  1.0000
  H   H792      1.0  0.28095  0.94594  0.45602  1.0000
  C   C986      1.0  0.38917  0.88435  0.35350  1.0000
  C   C987      1.0  0.08862  0.76747  0.44420  1.0000
  C   C988      1.0  0.10599  0.76632  0.45536  1.0000
  C   C989      1.0  0.10566  0.78173  0.46742  1.0000
  C   C990      1.0  0.08838  0.79899  0.46778  1.0000
  C   C991      1.0  0.07088  0.80015  0.45671  1.0000
  C   C992      1.0  0.07087  0.78424  0.44516  1.0000
  H   H793      1.0  0.11986  0.75358  0.45453  1.0000
  C   C993      1.0  0.07383  0.72302  0.48612  1.0000
  H   H794      1.0  0.32507  0.88015  0.26788  1.0000
  H   H795      1.0  0.05748  0.78523  0.43653  1.0000
  H   H796      1.0  0.27187  0.93646  0.29739  1.0000
  C   C994      1.0  0.10478  0.95277  0.36742  1.0000
  C   C995      1.0  0.10280  0.94807  0.38968  1.0000
  C   C996      1.0  0.08958  0.93265  0.40182  1.0000
  C   C997      1.0  0.07751  0.92290  0.39168  1.0000
  C   C998      1.0  0.07939  0.92789  0.36953  1.0000
  C   C999      1.0  0.09325  0.94236  0.35750  1.0000
  C   C1000     1.0  0.01694  0.78605  0.47121  1.0000
  H   H797      1.0  0.08842  0.92860  0.41895  1.0000
  H   H798      1.0  0.07001  0.92060  0.36159  1.0000
  H   H799      1.0  0.09472  0.94584  0.34037  1.0000
  C   C1001     1.0  0.04638  0.66528  0.37890  1.0000
  C   C1002     1.0  0.11726  0.97583  0.46068  1.0000
  H   H800      1.0  0.39694  0.93099  0.46253  1.0000
  H   H801      1.0  0.03005  0.64624  0.42749  1.0000
  C   C1003     1.0  0.37604  0.89069  0.26623  1.0000
  C   C1004     1.0  0.31377  0.94091  0.46400  1.0000
  S   S139      1.0  0.46129  0.88329  0.27463  1.0000
  C   C1005     1.0  0.09376  0.87443  0.31351  1.0000
  S   S140      1.0  0.44245  0.92898  0.29079  1.0000
  S   S141      1.0  0.40580  0.88333  0.31260  1.0000
  H   H802      1.0  0.10276  0.88173  0.29869  1.0000
  H   H803      1.0  0.06532  0.83234  0.33486  1.0000
  C   C1006     1.0  0.34107  0.92121  0.44181  1.0000
  H   H804      1.0  0.49176  0.92437  0.37991  1.0000
  C   C1007     1.0  0.07012  0.85585  0.35179  1.0000
  C   C1008     1.0  0.37725  0.91722  0.36711  1.0000
  C   C1009     1.0  0.38139  0.92986  0.34656  1.0000
  C   C1010     1.0  0.39066  0.91968  0.32967  1.0000
  H   H805      1.0  0.41660  0.96227  0.44637  1.0000
  C   C1011     1.0  0.38111  0.89447  0.37050  1.0000
  H   H806      1.0  0.37792  0.94744  0.34380  1.0000
  H   H807      1.0  0.39478  0.92941  0.31397  1.0000
  H   H808      1.0  0.37782  0.88461  0.38630  1.0000
  C   C1012     1.0  0.40843  0.93490  0.47101  1.0000
  C   C1013     1.0  0.05823  0.97305  0.42596  1.0000
  C   C1014     1.0  0.43611  0.94500  0.38076  1.0000
  H   H809      1.0  0.07625  0.94674  0.46565  1.0000
  C   C1015     1.0  0.01829  0.68622  0.35770  1.0000
  H   H810      1.0  0.38890  0.94814  0.42685  1.0000
  C   C1016     1.0  0.40921  0.96636  0.40174  1.0000
  H   H811      1.0  0.44200  0.98545  0.41684  1.0000
  H   H812      1.0  0.29231  0.86992  0.29176  1.0000
  H   H813      1.0  0.02392  0.59145  0.40352  1.0000
  P   P30       1.0  0.45465  0.94417  0.35669  1.0000
  C   C1017     1.0  0.03556  0.86416  0.38686  1.0000
  C   C1018     1.0  0.08254  0.56527  0.46373  1.0000
  C   C1019     1.0  0.39401  0.86164  0.24869  1.0000
  C   C1020     1.0  0.00363  0.89498  0.40290  1.0000
  C   C1021     1.0  0.28357  0.92423  0.29094  1.0000
  H   H814      1.0  0.39137  0.98140  0.31958  1.0000
  H   H815      1.0  0.26564  0.89794  0.30664  1.0000
  H   H816      1.0  0.48884  0.95609  0.27083  1.0000
  C   C1022     1.0  0.09612  0.97132  0.46293  1.0000
  H   H817      1.0  0.31401  0.95801  0.32213  1.0000
  C   C1023     1.0  0.30215  0.93017  0.27739  1.0000
  H   H818      1.0  0.37048  0.98480  0.28468  1.0000
  H   H819      1.0  0.99566  0.56421  0.33240  1.0000
  C   C1024     1.0  0.36176  0.89823  0.25083  1.0000
  C   C1025     1.0  0.48179  0.97584  0.34952  1.0000
  H   H820      1.0  0.43000  0.98028  0.37424  1.0000
  C   C1026     1.0  0.01277  0.79414  0.37427  1.0000
  H   H821      1.0  0.08241  0.98419  0.46392  1.0000
  C   C1027     1.0  0.02945  0.61745  0.41643  1.0000
  C   C1028     1.0  0.44411  0.90562  0.35146  1.0000
  C   C1029     1.0  0.07158  0.58671  0.46037  1.0000
  C   C1030     1.0  0.30344  0.92834  0.43547  1.0000
  H   H822      1.0  0.40690  0.84796  0.24756  1.0000
  C   C1031     1.0  0.31366  0.89263  0.27420  1.0000
  C   C1032     1.0  0.44422  0.98131  0.29796  1.0000
  C   C1033     1.0  0.07080  0.54775  0.46966  1.0000
  S   S142      1.0  0.08160  0.88323  0.46178  1.0000
  H   H823      1.0  0.02363  0.84498  0.34950  1.0000
  C   C1034     1.0  0.44164  0.96117  0.33461  1.0000
  Fe  Fe71      1.0  0.43614  0.94336  0.25726  1.0000
  H   H824      1.0  0.02849  0.84263  0.41736  1.0000
  P   P31       1.0  0.34136  0.92223  0.25155  1.0000
  S   S143      1.0  0.41986  0.91643  0.25414  1.0000
  H   H825      1.0  0.37049  0.99047  0.24611  1.0000
  H   H826      1.0  0.39203  0.86672  0.35625  1.0000
  H   H827      1.0  0.03083  0.63448  0.34986  1.0000
  C   C1035     1.0  0.32510  0.91958  0.43015  1.0000
  H   H828      1.0  0.30462  0.94706  0.27342  1.0000
  H   H829      1.0  0.05752  0.81341  0.45684  1.0000
  C   C1036     1.0  0.07233  0.84676  0.33399  1.0000
  H   H830      1.0  0.35790  0.91467  0.43731  1.0000
  S   S144      1.0  0.00029  0.67096  0.33027  1.0000
  H   H831      1.0  0.47172  0.96432  0.31371  1.0000
  H   H832      1.0  0.29114  0.92744  0.42618  1.0000
  C   C1037     1.0  0.03228  0.68467  0.37268  1.0000
  H   H833      1.0  0.34605  0.92439  0.29477  1.0000
  H   H834      1.0  0.37525  0.89897  0.27892  1.0000
  C   C1038     1.0  0.14799  0.89027  0.47382  1.0000
  H   H835      1.0  0.35783  0.95201  0.30901  1.0000
  S   S145      1.0  0.08986  0.81904  0.48161  1.0000
  H   H836      1.0  0.04704  0.61355  0.41380  1.0000
  C   C1039     1.0  0.07678  0.83281  0.39380  1.0000
  H   H837      1.0  0.12440  0.81072  0.42782  1.0000
  C   C1040     1.0  0.43058  0.92580  0.39474  1.0000
  C   C1041     1.0  0.39444  0.89686  0.33315  1.0000
  H   H838      1.0  0.11842  0.79036  0.40215  1.0000
  H   H839      1.0  0.43570  0.87644  0.34613  1.0000
  C   C1042     1.0  0.11148  0.81715  0.41796  1.0000
  C   C1043     1.0  0.09767  0.83647  0.42027  1.0000
  C   C1044     1.0  0.35113  0.94188  0.26192  1.0000
  C   C1045     1.0  0.33548  0.93180  0.45869  1.0000
  H   H840      1.0  0.01041  0.91671  0.37268  1.0000
  H   H841      1.0  0.07013  0.85944  0.40998  1.0000
  H   H842      1.0  0.01842  0.80765  0.44031  1.0000
  H   H843      1.0  0.07967  0.53131  0.47222  1.0000
  P   P32       1.0  0.05578  0.84389  0.37685  1.0000
  H   H844      1.0  0.08873  0.80465  0.37998  1.0000
  C   C1046     1.0  0.30362  0.98501  0.47273  1.0000
  C   C1047     1.0  0.40891  0.97816  0.31852  1.0000
  C   C1048     1.0  0.35102  0.93888  0.28391  1.0000
  H   H845      1.0  0.05701  0.63229  0.37502  1.0000
  C   C1049     1.0  0.29777  0.93884  0.45239  1.0000
  Fe  Fe72      1.0  0.45330  0.90160  0.24213  1.0000
  C   C1050     1.0  0.35763  0.95449  0.29210  1.0000
  H   H846      1.0  0.07968  0.88046  0.36435  1.0000
  C   C1051     1.0  0.02983  0.88496  0.37410  1.0000
  H   H847      1.0  0.17730  0.98677  0.33492  1.0000
  C   C1052     1.0  0.02739  0.78878  0.38921  1.0000
  C   C1053     1.0  0.99581  0.50960  0.34052  1.0000
  H   H848      1.0  0.04852  0.51026  0.44198  1.0000
  C   C1054     1.0  0.48242  0.90883  0.34383  1.0000
  H   H849      1.0  0.04478  0.94449  0.42609  1.0000
  C   C1055     1.0  0.04125  0.96123  0.42790  1.0000
  H   H850      1.0  0.15125  0.96349  0.45675  1.0000
  H   H851      1.0  0.00611  0.53422  0.31365  1.0000
  C   C1056     1.0  0.01751  0.66808  0.34961  1.0000
  C   C1057     1.0  0.45420  0.96851  0.31529  1.0000
  C   C1058     1.0  0.31744  0.91436  0.26908  1.0000
  C   C1059     1.0  0.21705  0.92801  0.47810  1.0000
  H   H852      1.0  0.16523  0.95954  0.32034  1.0000
  H   H853      1.0  0.10715  0.91711  0.46456  1.0000
  H   H854      1.0  0.45410  0.98712  0.28318  1.0000
  C   C1060     1.0  0.04596  0.64723  0.37048  1.0000
  H   H855      1.0  0.34819  0.93300  0.46725  1.0000
  H   H856      1.0  0.11925  0.78068  0.47589  1.0000
  C   C1061     1.0  0.01159  0.81434  0.35988  1.0000
  C   C1062     1.0  0.35788  0.96080  0.24835  1.0000
  H   H857      1.0  0.02838  0.55583  0.43629  1.0000
  C   C1063     1.0  0.00852  0.87404  0.41538  1.0000
  C   C1064     1.0  0.01461  0.54712  0.44156  1.0000
  H   H858      1.0  0.08064  0.60033  0.45575  1.0000
  C   C1065     1.0  0.48387  0.98292  0.42866  1.0000
  C   C1066     1.0  0.05043  0.50409  0.47571  1.0000
  H   H859      1.0  0.32965  0.91186  0.41673  1.0000
  C   C1067     1.0  0.40281  0.94722  0.41474  1.0000
  H   H860      1.0  0.02442  0.54604  0.26719  1.0000
  C   C1068     1.0  0.46099  0.91735  0.35088  1.0000
  C   C1069     1.0  0.47016  0.87671  0.33953  1.0000
  C   C1070     1.0  0.17886  0.92122  0.46582  1.0000
  C   C1071     1.0  0.19933  0.91210  0.45700  1.0000
  P   P33       1.0  0.15445  0.91627  0.45805  1.0000
  C   C1072     1.0  0.42155  0.98616  0.29959  1.0000
  C   C1073     1.0  0.13171  0.93774  0.46101  1.0000
  C   C1074     1.0  0.11035  0.93340  0.46327  1.0000
  C   C1075     1.0  0.09269  0.95019  0.46394  1.0000
  H   H861      1.0  0.21382  0.96877  0.44541  1.0000
  C   C1076     1.0  0.99981  0.54898  0.42733  1.0000
  C   C1077     1.0  0.13505  0.95927  0.45929  1.0000
  H   H862      1.0  0.47658  0.93718  0.46708  1.0000
  C   C1078     1.0  0.04887  0.59065  0.46295  1.0000
  C   C1079     1.0  0.43403  0.95809  0.47308  1.0000
  S   S146      1.0  0.41778  0.97701  0.24839  1.0000
  H   H863      1.0  0.05189  0.79908  0.40160  1.0000
  C   C1080     1.0  0.15942  0.91535  0.43027  1.0000
  C   C1081     1.0  0.16826  0.89564  0.42406  1.0000
  C   C1082     1.0  0.17062  0.89458  0.40273  1.0000
  C   C1083     1.0  0.16462  0.91328  0.38741  1.0000
  C   C1084     1.0  0.15671  0.93310  0.39331  1.0000
  C   C1085     1.0  0.15400  0.93417  0.41464  1.0000
  C   C1086     1.0  0.01053  0.79480  0.45106  1.0000
  H   H864      1.0  0.07494  0.96559  0.42283  1.0000
  C   C1087     1.0  0.08400  0.85616  0.31486  1.0000
  C   C1088     1.0  0.21836  0.91550  0.46312  1.0000
  H   H865      1.0  0.20062  0.90237  0.44545  1.0000
  C   C1089     1.0  0.01200  0.53356  0.46197  1.0000
  C   C1090     1.0  0.48380  0.94784  0.45327  1.0000
  C   C1091     1.0  0.10812  0.80571  0.40348  1.0000
  C   C1092     1.0  0.41386  0.92694  0.41159  1.0000
  C   C1093     1.0  0.01973  0.97099  0.43233  1.0000
  H   H866      1.0  0.12987  0.88459  0.45097  1.0000
  H   H867      1.0  0.08479  0.72485  0.47139  1.0000
  P   P34       1.0  0.03263  0.52900  0.47938  1.0000
  C   C1094     1.0  0.09099  0.81363  0.39125  1.0000
  C   C1095     1.0  0.36453  0.97629  0.25663  1.0000
  H   H868      1.0  0.17282  0.88095  0.43576  1.0000
  H   H869      1.0  0.17669  0.87919  0.39813  1.0000
  H   H870      1.0  0.16573  0.91242  0.37098  1.0000
  H   H871      1.0  0.15215  0.94760  0.38135  1.0000
  H   H872      1.0  0.14730  0.94967  0.41881  1.0000
  S   S147      1.0  0.03040  0.90750  0.46369  1.0000
  C   C1096     1.0  0.22789  0.87356  0.40734  1.0000
  C   C1097     1.0  0.24194  0.85972  0.39577  1.0000
  C   C1098     1.0  0.25390  0.86851  0.37662  1.0000
  C   C1099     1.0  0.25193  0.89114  0.36909  1.0000
  C   C1100     1.0  0.23823  0.90516  0.38090  1.0000
  C   C1101     1.0  0.22591  0.89619  0.39986  1.0000
  P   P35       1.0  0.23482  0.93438  0.37089  1.0000
  C   C1102     1.0  0.22821  0.94691  0.39357  1.0000
  C   C1103     1.0  0.25992  0.94218  0.35557  1.0000
  C   C1104     1.0  0.28012  0.93133  0.36183  1.0000
  C   C1105     1.0  0.29953  0.93694  0.34969  1.0000
  C   C1106     1.0  0.29894  0.95353  0.33131  1.0000
  C   C1107     1.0  0.27895  0.96465  0.32515  1.0000
  C   C1108     1.0  0.25951  0.95898  0.33718  1.0000
  C   C1109     1.0  0.20637  0.95292  0.40161  1.0000
  C   C1110     1.0  0.20122  0.96101  0.42009  1.0000
  C   C1111     1.0  0.21780  0.96285  0.43087  1.0000
  C   C1112     1.0  0.23953  0.95708  0.42295  1.0000
  C   C1113     1.0  0.24476  0.94919  0.40436  1.0000
  C   C1114     1.0  0.21311  0.94225  0.35444  1.0000
  C   C1115     1.0  0.20673  0.92696  0.34549  1.0000
  C   C1116     1.0  0.18962  0.93320  0.33308  1.0000
  C   C1117     1.0  0.17888  0.95471  0.32946  1.0000
  C   C1118     1.0  0.18550  0.97006  0.33789  1.0000
  C   C1119     1.0  0.20247  0.96389  0.35037  1.0000
  H   H873      1.0  0.21841  0.86674  0.42206  1.0000
  H   H874      1.0  0.24345  0.84217  0.40158  1.0000
  H   H875      1.0  0.26465  0.85774  0.36757  1.0000
  H   H876      1.0  0.26101  0.89766  0.35404  1.0000
  H   H877      1.0  0.21463  0.90666  0.40876  1.0000
  H   H878      1.0  0.28092  0.91860  0.37616  1.0000
  H   H879      1.0  0.31508  0.92866  0.35472  1.0000
  H   H880      1.0  0.10018  0.56228  0.46170  1.0000
  H   H881      1.0  0.43850  0.90994  0.39225  1.0000
  H   H882      1.0  0.24426  0.96804  0.33222  1.0000
  H   H883      1.0  0.19327  0.95128  0.39376  1.0000
  C   C1120     1.0  0.36459  0.97307  0.27844  1.0000
  H   H884      1.0  0.31414  0.98616  0.27237  1.0000
  H   H885      1.0  0.25235  0.95936  0.43090  1.0000
  H   H886      1.0  0.26171  0.94522  0.39840  1.0000
  H   H887      1.0  0.21464  0.91017  0.34824  1.0000
  H   H888      1.0  0.18439  0.92134  0.32653  1.0000
  H   H889      1.0  0.02699  0.49254  0.24556  1.0000
  Fe  Fe73      1.0  0.02115  0.87423  0.47718  1.0000
  C   C1121     1.0  0.03703  0.57322  0.46867  1.0000
  C   C1122     1.0  0.02509  0.82915  0.36038  1.0000
  C   C1123     1.0  0.02445  0.85865  0.40739  1.0000
  H   H890      1.0  0.03767  0.88960  0.35804  1.0000
  C   C1124     1.0  0.13602  0.87816  0.46610  1.0000
  C   C1125     1.0  0.28005  0.90253  0.29616  1.0000
  H   H891      1.0  0.02259  0.65339  0.46802  1.0000
  H   H892      1.0  0.04050  0.60732  0.46046  1.0000
  C   C1126     1.0  0.99729  0.64186  0.42651  1.0000
  C   C1127     1.0  0.39208  0.87247  0.26510  1.0000
  H   H893      1.0  0.46980  0.98704  0.34056  1.0000
  H   H894      1.0  0.23411  0.90881  0.45595  1.0000
  C   C1128     1.0  0.41958  0.95261  0.46191  1.0000
  C   C1129     1.0  0.17768  0.93261  0.48184  1.0000
  H   H895      1.0  0.40342  0.86702  0.27674  1.0000
  H   H896      1.0  0.01939  0.57668  0.47050  1.0000
  H   H897      1.0  0.00803  0.70153  0.35243  1.0000
  C   C1130     1.0  0.04793  0.55158  0.47212  1.0000
  S   S148      1.0  0.03199  0.73398  0.44849  1.0000
  C   C1131     1.0  0.03115  0.64845  0.35626  1.0000
  H   H898      1.0  0.11166  0.95602  0.39750  1.0000
  S   S149      1.0  0.12265  0.97001  0.35104  1.0000
  C   C1132     1.0  0.01987  0.63594  0.42416  1.0000
  C   C1133     1.0  0.47384  0.96950  0.44648  1.0000
  C   C1134     1.0  0.42588  0.96530  0.38484  1.0000
  C   C1135     1.0  0.01203  0.54487  0.25811  1.0000
  H   H899      1.0  0.42732  0.91237  0.35572  1.0000
  H   H900      1.0  0.00525  0.62002  0.47661  1.0000
  S   S150      1.0  0.02085  0.69261  0.43287  1.0000
  H   H901      1.0  0.03249  0.69867  0.37904  1.0000
  C   C1136     1.0  0.01641  0.60494  0.41082  1.0000
  H   H902      1.0  0.10002  0.84514  0.43179  1.0000
  H   H903      1.0  0.29525  0.98248  0.44271  1.0000
  S   S151      1.0  0.46912  0.93006  0.24261  1.0000
  C   C1137     1.0  0.01524  0.64740  0.48402  1.0000
  C   C1138     1.0  0.47850  0.95441  0.35956  1.0000
  H   H904      1.0  0.00660  0.96165  0.43419  1.0000
  S   S152      1.0  0.99821  0.60905  0.32449  1.0000
  C   C1139     1.0  0.49418  0.94081  0.37170  1.0000
  H   H905      1.0  0.00231  0.78262  0.37400  1.0000
  C   C1140     1.0  0.13164  0.85772  0.47796  1.0000
  H   H906      1.0  0.05304  0.75309  0.47594  1.0000
  H   H907      1.0  0.23174  0.93132  0.48230  1.0000
  C   C1141     1.0  0.48698  0.88843  0.33855  1.0000
  Fe  Fe74      1.0  0.06809  0.85173  0.47513  1.0000
  H   H908      1.0  0.00009  0.81857  0.34849  1.0000
  H   H909      1.0  0.47363  0.86133  0.33458  1.0000
  H   H910      1.0  0.35078  0.96370  0.48048  1.0000
  H   H911      1.0  0.02966  0.79239  0.47586  1.0000
  H   H912      1.0  0.12218  0.84854  0.47204  1.0000
  P   P36       1.0  0.30609  0.95614  0.48468  1.0000
  C   C1142     1.0  0.00744  0.76883  0.48505  1.0000
  C   C1143     1.0  0.45726  0.99121  0.23941  1.0000
  H   H913      1.0  0.46462  0.97443  0.24069  1.0000
  C   C1144     1.0  0.99437  0.52185  0.46777  1.0000
  H   H914      1.0  0.37237  0.99091  0.43323  1.0000
  C   C1145     1.0  0.19674  0.93644  0.48752  1.0000
  Fe  Fe75      1.0  0.05609  0.89658  0.48564  1.0000
  C   C1146     1.0  0.33261  0.96911  0.69124  1.0000
  C   C1147     1.0  0.00562  0.62840  0.48894  1.0000
  H   H915      1.0  0.03415  0.61745  0.71719  1.0000
  C   C1148     1.0  0.00418  0.50331  0.53928  1.0000
  Fe  Fe76      1.0  0.15006  0.95475  0.54389  1.0000
  H   H916      1.0  0.42645  0.98690  0.50259  1.0000
  S   S153      1.0  0.14345  0.92135  0.54358  1.0000
  C   C1149     1.0  0.47801  0.91041  0.52669  1.0000
  S   S154      1.0  0.44831  0.93235  0.70355  1.0000
  C   C1150     1.0  0.02473  0.77789  0.52020  1.0000
  S   S155      1.0  0.18497  0.95956  0.53896  1.0000
  S   S156      1.0  0.14091  0.97339  0.56992  1.0000
  S   S157      1.0  0.40898  0.90923  0.69577  1.0000
  H   H917      1.0  0.43344  0.97931  0.70957  1.0000
  H   H918      1.0  0.40339  0.90854  0.49813  1.0000
  Fe  Fe77      1.0  0.42443  0.91342  0.66202  1.0000
  Fe  Fe78      1.0  0.17512  0.98116  0.56210  1.0000
  C   C1151     1.0  0.01802  0.81542  0.52425  1.0000
  C   C1152     1.0  0.46940  0.88409  0.62114  1.0000
  H   H919      1.0  0.05557  0.75943  0.52938  1.0000
  S   S158      1.0  0.19911  0.98128  0.58394  1.0000
  H   H920      1.0  0.30649  0.97214  0.64890  1.0000
  C   C1153     1.0  0.47968  0.95126  0.61596  1.0000
  C   C1154     1.0  0.46937  0.92517  0.53978  1.0000
  H   H921      1.0  0.02838  0.52916  0.71586  1.0000
  C   C1155     1.0  0.02947  0.69456  0.69615  1.0000
  H   H922      1.0  0.44047  0.84330  0.56268  1.0000
  H   H923      1.0  0.36030  0.97061  0.64538  1.0000
  H   H924      1.0  0.49010  0.95901  0.70256  1.0000
  H   H925      1.0  0.29189  0.91426  0.50397  1.0000
  C   C1156     1.0  0.00367  0.60062  0.59637  1.0000
  S   S159      1.0  0.40986  0.90484  0.63651  1.0000
  C   C1157     1.0  0.07759  0.70451  0.50230  1.0000
  Fe  Fe79      1.0  0.41512  0.94316  0.69325  1.0000
  C   C1158     1.0  0.99642  0.74326  0.52862  1.0000
  C   C1159     1.0  0.35929  0.96389  0.61514  1.0000
  C   C1160     1.0  0.36638  0.94878  0.60221  1.0000
  C   C1161     1.0  0.38108  0.92974  0.60918  1.0000
  C   C1162     1.0  0.38880  0.92616  0.62883  1.0000
  C   C1163     1.0  0.38079  0.94076  0.64194  1.0000
  C   C1164     1.0  0.36616  0.95945  0.63511  1.0000
  H   H926      1.0  0.36089  0.95197  0.58684  1.0000
  H   H927      1.0  0.38715  0.91832  0.59908  1.0000
  H   H928      1.0  0.38596  0.93778  0.65742  1.0000
  C   C1165     1.0  0.42212  0.95606  0.55246  1.0000
  S   S160      1.0  0.34183  0.98852  0.60754  1.0000
  C   C1166     1.0  0.49129  0.95141  0.51691  1.0000
  C   C1167     1.0  0.24077  0.93706  0.52052  1.0000
  H   H929      1.0  0.33693  0.97911  0.70054  1.0000
  H   H930      1.0  0.02907  0.70353  0.72585  1.0000
  C   C1168     1.0  0.42900  0.94636  0.58913  1.0000
  C   C1169     1.0  0.32330  0.94288  0.66659  1.0000
  C   C1170     1.0  0.00342  0.56648  0.62276  1.0000
  C   C1171     1.0  0.35559  0.94274  0.53266  1.0000
  C   C1172     1.0  0.28026  0.94900  0.49829  1.0000
  C   C1173     1.0  0.11987  0.92149  0.53237  1.0000
  C   C1174     1.0  0.10479  0.94051  0.52791  1.0000
  C   C1175     1.0  0.08609  0.94027  0.51908  1.0000
  C   C1176     1.0  0.08254  0.92116  0.51424  1.0000
  C   C1177     1.0  0.09769  0.90214  0.51850  1.0000
  C   C1178     1.0  0.11607  0.90225  0.52798  1.0000
  H   H931      1.0  0.10721  0.95530  0.53171  1.0000
  H   H932      1.0  0.02205  0.59864  0.56590  1.0000
  H   H933      1.0  0.09494  0.88727  0.51505  1.0000
  H   H934      1.0  0.12728  0.88738  0.53214  1.0000
  C   C1179     1.0  0.00548  0.61680  0.70337  1.0000
  C   C1180     1.0  0.43308  0.94196  0.56877  1.0000
  C   C1181     1.0  0.31983  0.94074  0.52510  1.0000
  H   H935      1.0  0.29020  0.98954  0.71074  1.0000
  C   C1182     1.0  0.45799  0.89201  0.60362  1.0000
  C   C1183     1.0  0.03912  0.57279  0.67602  1.0000
  C   C1184     1.0  0.47605  0.94577  0.53464  1.0000
  H   H936      1.0  0.02662  0.62216  0.61643  1.0000
  C   C1185     1.0  0.04049  0.55749  0.69526  1.0000
  C   C1186     1.0  0.26228  0.96509  0.50126  1.0000
  H   H937      1.0  0.46209  0.87388  0.63534  1.0000
  C   C1187     1.0  0.31984  0.97855  0.67475  1.0000
  H   H938      1.0  0.04312  0.82549  0.53652  1.0000
  C   C1188     1.0  0.48730  0.91175  0.58496  1.0000
  P   P37       1.0  0.45093  0.91766  0.56372  1.0000
  S   S161      1.0  0.45782  0.89886  0.67101  1.0000
  H   H939      1.0  0.05123  0.55866  0.70606  1.0000
  H   H940      1.0  0.05784  0.49374  0.50814  1.0000
  C   C1189     1.0  0.01727  0.58972  0.58187  1.0000
  S   S162      1.0  0.49368  0.94409  0.65489  1.0000
  H   H941      1.0  0.32035  0.93287  0.65655  1.0000
  H   H942      1.0  0.03456  0.71582  0.53871  1.0000
  H   H943      1.0  0.06539  0.62602  0.61382  1.0000
  H   H944      1.0  0.02459  0.58307  0.64725  1.0000
  H   H945      1.0  0.42995  0.91721  0.51746  1.0000
  H   H946      1.0  0.02705  0.68223  0.66914  1.0000
  C   C1190     1.0  0.46679  0.90600  0.58543  1.0000
  C   C1191     1.0  0.44496  0.87586  0.56271  1.0000
  C   C1192     1.0  0.05409  0.62927  0.62750  1.0000
  S   S163      1.0  0.14043  0.98323  0.51790  1.0000
  H   H947      1.0  0.40098  0.85353  0.55978  1.0000
  C   C1193     1.0  0.31538  0.96526  0.66235  1.0000
  C   C1194     1.0  0.00648  0.54087  0.53804  1.0000
  Fe  Fe80      1.0  0.46105  0.93355  0.66926  1.0000
  C   C1195     1.0  0.06143  0.63539  0.64380  1.0000
  H   H948      1.0  0.23921  0.98887  0.59505  1.0000
  Fe  Fe81      1.0  0.17475  0.98955  0.51498  1.0000
  C   C1196     1.0  0.02391  0.67968  0.68625  1.0000
  H   H949      1.0  0.03710  0.70826  0.68674  1.0000
  H   H950      1.0  0.15609  0.85495  0.52111  1.0000
  C   C1197     1.0  0.15527  0.88169  0.49373  1.0000
  C   C1198     1.0  0.40683  0.97387  0.55664  1.0000
  C   C1199     1.0  0.01763  0.63120  0.64663  1.0000
  C   C1200     1.0  0.33601  0.93366  0.68301  1.0000
  H   H951      1.0  0.25707  0.90392  0.52388  1.0000
  C   C1201     1.0  0.99599  0.63167  0.52545  1.0000
  C   C1202     1.0  0.34064  0.94678  0.69533  1.0000
  C   C1203     1.0  0.02764  0.54090  0.70080  1.0000
  C   C1204     1.0  0.01460  0.67458  0.73028  1.0000
  H   H952      1.0  0.03457  0.55879  0.57650  1.0000
  H   H953      1.0  0.44192  0.88782  0.60465  1.0000
  C   C1205     1.0  0.40280  0.97798  0.57699  1.0000
  H   H954      1.0  0.46207  0.87101  0.56453  1.0000
  C   C1206     1.0  0.06344  0.70210  0.52128  1.0000
  C   C1207     1.0  0.04683  0.63971  0.66139  1.0000
  C   C1208     1.0  0.03223  0.62712  0.62895  1.0000
  C   C1209     1.0  0.49313  0.91620  0.50882  1.0000
  H   H955      1.0  0.16386  0.89096  0.50048  1.0000
  C   C1210     1.0  0.41258  0.90315  0.56051  1.0000
  H   H956      1.0  0.46986  0.95738  0.54459  1.0000
  H   H957      1.0  0.07846  0.63674  0.64283  1.0000
  C   C1211     1.0  0.00594  0.65051  0.52061  1.0000
  H   H958      1.0  0.26342  0.98226  0.49543  1.0000
  H   H959      1.0  0.44954  0.94845  0.50162  1.0000
  C   C1212     1.0  0.01410  0.66185  0.69839  1.0000
  H   H960      1.0  0.41076  0.96756  0.60896  1.0000
  H   H961      1.0  0.32998  0.93074  0.55628  1.0000
  S   S164      1.0  0.04494  0.86443  0.50092  1.0000
  C   C1213     1.0  0.01355  0.50584  0.51807  1.0000
  H   H962      1.0  0.02083  0.55907  0.50895  1.0000
  C   C1214     1.0  0.34646  0.95565  0.49681  1.0000
  H   H963      1.0  0.07435  0.95499  0.51594  1.0000
  H   H964      1.0  0.43674  0.93559  0.60220  1.0000
  H   H965      1.0  0.09137  0.69198  0.50002  1.0000
  C   C1215     1.0  0.41050  0.86583  0.56016  1.0000
  H   H966      1.0  0.05288  0.64401  0.67407  1.0000
  H   H967      1.0  0.35100  0.93975  0.70769  1.0000
  H   H968      1.0  0.13503  0.83368  0.50706  1.0000
  C   C1216     1.0  0.41428  0.96460  0.59305  1.0000
  H   H969      1.0  0.06626  0.68764  0.53374  1.0000
  H   H970      1.0  0.46867  0.95796  0.58531  1.0000
  H   H971      1.0  0.01585  0.49211  0.51061  1.0000
  H   H972      1.0  0.36688  0.94070  0.54400  1.0000
  C   C1217     1.0  0.00904  0.65971  0.72043  1.0000
  C   C1218     1.0  0.02490  0.69195  0.71817  1.0000
  C   C1219     1.0  0.15085  0.86122  0.50556  1.0000
  C   C1220     1.0  0.36141  0.95198  0.51128  1.0000
  C   C1221     1.0  0.40042  0.88734  0.55958  1.0000
  C   C1222     1.0  0.43504  0.89760  0.56183  1.0000
  C   C1223     1.0  0.02418  0.56725  0.58782  1.0000
  C   C1224     1.0  0.24253  0.95905  0.51211  1.0000
  P   P38       1.0  0.01715  0.75665  0.51042  1.0000
  H   H973      1.0  0.46616  0.94303  0.62419  1.0000
  H   H974      1.0  0.02285  0.53826  0.61246  1.0000
  C   C1225     1.0  0.01244  0.55446  0.66746  1.0000
  H   H975      1.0  0.42484  0.95290  0.53671  1.0000
  H   H976      1.0  0.00180  0.71584  0.51358  1.0000
  C   C1226     1.0  0.05112  0.79187  0.53424  1.0000
  C   C1227     1.0  0.04465  0.77477  0.52824  1.0000
  H   H977      1.0  0.19566  0.94611  0.49917  1.0000
  S   S165      1.0  0.05856  0.92160  0.50364  1.0000
  S   S166      1.0  0.42835  0.94843  0.65849  1.0000
  C   C1228     1.0  0.25855  0.92096  0.51744  1.0000
  C   C1229     1.0  0.01531  0.65858  0.49982  1.0000
  H   H978      1.0  0.37723  0.95711  0.50609  1.0000
  H   H979      1.0  0.00087  0.62880  0.64782  1.0000
  H   H980      1.0  0.22858  0.97149  0.51413  1.0000
  C   C1230     1.0  0.01992  0.52588  0.50673  1.0000
  H   H981      1.0  0.30358  0.93708  0.53111  1.0000
  H   H982      1.0  0.00816  0.83145  0.52194  1.0000
  C   C1231     1.0  0.02523  0.57124  0.66212  1.0000
  C   C1232     1.0  0.42687  0.92721  0.50206  1.0000
  H   H983      1.0  0.38305  0.89169  0.55889  1.0000
  C   C1233     1.0  0.43275  0.86009  0.56177  1.0000
  C   C1234     1.0  0.04531  0.71803  0.52390  1.0000
  C   C1235     1.0  0.45747  0.98741  0.72519  1.0000
  H   H984      1.0  0.22558  0.93244  0.52929  1.0000
  H   H985      1.0  0.39777  0.98423  0.54425  1.0000
  H   H986      1.0  0.06681  0.78964  0.53976  1.0000
  H   H987      1.0  0.00608  0.65906  0.53289  1.0000
  H   H988      1.0  0.02886  0.51353  0.65880  1.0000
  C   C1236     1.0  0.32565  0.94978  0.50348  1.0000
  C   C1237     1.0  0.01642  0.54331  0.51703  1.0000
  C   C1238     1.0  0.02144  0.60827  0.71706  1.0000
  H   H989      1.0  0.40420  0.91950  0.56063  1.0000
  H   H990      1.0  0.99780  0.61793  0.59163  1.0000
  H   H991      1.0  0.47335  0.89438  0.53027  1.0000
  Fe  Fe82      1.0  0.44271  0.89868  0.70466  1.0000
  H   H992      1.0  0.04881  0.58587  0.67191  1.0000
  H   H993      1.0  0.00053  0.64672  0.73008  1.0000
  C   C1239     1.0  0.99575  0.62069  0.50954  1.0000
  S   S167      1.0  0.38737  0.95930  0.71359  1.0000
  C   C1240     1.0  0.13895  0.84929  0.49772  1.0000
  C   C1241     1.0  0.33479  0.93716  0.53956  1.0000
  C   C1242     1.0  0.01737  0.55566  0.60821  1.0000
  P   P39       1.0  0.00603  0.64318  0.68562  1.0000
  C   C1243     1.0  0.44041  0.97668  0.72416  1.0000
  C   C1244     1.0  0.01140  0.79833  0.51837  1.0000
  S   S168      1.0  0.99917  0.49240  0.72860  1.0000
  H   H994      1.0  0.34281  0.91649  0.68580  1.0000
  C   C1245     1.0  0.01514  0.50835  0.65458  1.0000
  C   C1246     1.0  0.05570  0.73897  0.48869  1.0000
  C   C1247     1.0  0.04100  0.73637  0.50737  1.0000
  C   C1248     1.0  0.00375  0.57647  0.73204  1.0000
  C   C1249     1.0  0.00044  0.52088  0.54920  1.0000
  C   C1250     1.0  0.03781  0.81215  0.53229  1.0000
  H   H995      1.0  0.49423  0.92305  0.57146  1.0000
  C   C1251     1.0  0.99693  0.58909  0.61680  1.0000
  C   C1252     1.0  0.48109  0.95964  0.59397  1.0000
  C   C1253     1.0  0.43785  0.94502  0.49309  1.0000
  C   C1254     1.0  0.01358  0.53950  0.68704  1.0000
  H   H996      1.0  0.16211  0.93861  0.48998  1.0000
  C   C1255     1.0  0.02040  0.58826  0.73151  1.0000
  C   C1256     1.0  0.02470  0.63824  0.66264  1.0000
  C   C1257     1.0  0.27818  0.92688  0.50617  1.0000
  C   C1258     1.0  0.48960  0.89020  0.62073  1.0000
  C   C1259     1.0  0.37896  0.98754  0.70871  1.0000
  H   H997      1.0  0.00366  0.52661  0.69168  1.0000
  H   H998      1.0  0.47748  0.90417  0.73054  1.0000
  C   C1260     1.0  0.99670  0.52341  0.64879  1.0000
  H   H999      1.0  0.39015  0.99100  0.58063  1.0000
  H   H1000     1.0  0.99622  0.80130  0.51180  1.0000
  H   H1001     1.0  0.48751  0.98643  0.66335  1.0000
  C   C1261     1.0  0.41204  0.92224  0.49110  1.0000
  P   P40       1.0  0.99498  0.55179  0.64930  1.0000
  S   S169      1.0  0.44820  0.87331  0.73481  1.0000
  H   H1002     1.0  0.35394  0.98526  0.73563  1.0000
  H   H1003     1.0  0.00319  0.55470  0.54553  1.0000
  S   S170      1.0  0.02683  0.68269  0.49404  1.0000
  H   H1004     1.0  0.47299  0.99130  0.62984  1.0000
  C   C1262     1.0  0.22257  0.99046  0.56848  1.0000
  Fe  Fe83      1.0  0.28765  0.53423  0.87006  1.0000
  S   S171      1.0  0.25343  0.52810  0.88263  1.0000
  S   S172      1.0  0.32072  0.51617  0.87727  1.0000
  Fe  Fe84      1.0  0.27357  0.58100  0.84763  1.0000
  S   S173      1.0  0.23789  0.57960  0.85767  1.0000
  S   S174      1.0  0.28814  0.61001  0.82704  1.0000
  Fe  Fe85      1.0  0.24799  0.56167  0.88907  1.0000
  S   S175      1.0  0.23012  0.57015  0.91903  1.0000
  Fe  Fe86      1.0  0.24506  0.54636  0.85029  1.0000
  S   S176      1.0  0.22177  0.53365  0.83502  1.0000
  S   S177      1.0  0.28277  0.56597  0.87993  1.0000
  S   S178      1.0  0.28006  0.54942  0.83688  1.0000
  H   H1005     1.0  0.36970  0.60657  0.86174  1.0000
  H   H1006     1.0  0.22718  0.57867  0.79159  1.0000
  C   C1263     1.0  0.43313  0.51664  0.83634  1.0000
  Fe  Fe87      1.0  0.09476  0.55644  0.84103  1.0000
  S   S179      1.0  0.09957  0.52004  0.84648  1.0000
  S   S180      1.0  0.12142  0.57456  0.84405  1.0000
  Fe  Fe88      1.0  0.04579  0.56021  0.83890  1.0000
  S   S181      1.0  0.04746  0.52395  0.84451  1.0000
  S   S182      1.0  0.01186  0.57954  0.83872  1.0000
  Fe  Fe89      1.0  0.06871  0.52215  0.86919  1.0000
  C   C1264     1.0  0.32918  0.72360  0.97173  1.0000
  Fe  Fe90      1.0  0.07777  0.52547  0.82137  1.0000
  C   C1265     1.0  0.46898  0.57105  0.88865  1.0000
  S   S183      1.0  0.06510  0.55827  0.86529  1.0000
  S   S184      1.0  0.07499  0.56213  0.81396  1.0000
  H   H1007     1.0  0.41978  0.75153  0.97452  1.0000
  H   H1008     1.0  0.34816  0.53534  0.80372  1.0000
  C   C1266     1.0  0.34093  0.52070  0.97616  1.0000
  H   H1009     1.0  0.48988  0.51515  0.92425  1.0000
  Fe  Fe91      1.0  0.33047  0.84231  0.95689  1.0000
  S   S185      1.0  0.35457  0.81139  0.95859  1.0000
  S   S186      1.0  0.32068  0.86623  0.92733  1.0000
  H   H1010     1.0  0.47027  0.84177  0.84290  1.0000
  C   C1267     1.0  0.43658  0.68930  0.86841  1.0000
  S   S187      1.0  0.46053  0.84880  0.89613  1.0000
  H   H1011     1.0  0.45225  0.57207  0.93686  1.0000
  H   H1012     1.0  0.43723  0.86696  0.78023  1.0000
  C   C1268     1.0  0.17983  0.51007  0.78330  1.0000
  C   C1269     1.0  0.44285  0.62553  0.89965  1.0000
  H   H1013     1.0  0.01350  0.61333  0.76278  1.0000
  Fe  Fe92      1.0  0.35226  0.64349  0.89991  1.0000
  S   S188      1.0  0.34887  0.61118  0.92211  1.0000
  S   S189      1.0  0.35094  0.65306  0.86466  1.0000
  Fe  Fe93      1.0  0.36275  0.66353  0.93414  1.0000
  S   S190      1.0  0.48270  0.61333  0.97592  1.0000
  H   H1014     1.0  0.33714  0.69201  0.96377  1.0000
  Fe  Fe94      1.0  0.37820  0.61542  0.93493  1.0000
  S   S191      1.0  0.40661  0.58831  0.93937  1.0000
  Fe  Fe95      1.0  0.33042  0.63114  0.94507  1.0000
  S   S192      1.0  0.29748  0.62278  0.96097  1.0000
  S   S193      1.0  0.38339  0.64579  0.91052  1.0000
  S   S194      1.0  0.33171  0.66341  0.92175  1.0000
  S   S195      1.0  0.38145  0.92815  0.86448  1.0000
  C   C1270     1.0  0.45833  0.96853  0.76213  1.0000
  H   H1015     1.0  0.42970  0.68300  0.85751  1.0000
  C   C1271     1.0  0.48533  0.56925  0.90139  1.0000
  H   H1016     1.0  0.48288  0.70646  0.87333  1.0000
  H   H1017     1.0  0.42740  0.61991  0.90139  1.0000
  H   H1018     1.0  0.29062  0.81943  0.93009  1.0000
  S   S196      1.0  0.34133  0.85203  0.98342  1.0000
  C   C1272     1.0  0.36825  0.53022  0.82860  1.0000
  H   H1019     1.0  0.43408  0.62071  0.83710  1.0000
  H   H1020     1.0  0.29284  0.50932  0.96774  1.0000
  C   C1273     1.0  0.36517  0.91198  0.88423  1.0000
  C   C1274     1.0  0.37419  0.89404  0.89896  1.0000
  C   C1275     1.0  0.36058  0.88040  0.91332  1.0000
  C   C1276     1.0  0.33806  0.88469  0.91272  1.0000
  C   C1277     1.0  0.32910  0.90325  0.89873  1.0000
  C   C1278     1.0  0.34258  0.91690  0.88463  1.0000
  H   H1021     1.0  0.39163  0.89039  0.89893  1.0000
  H   H1022     1.0  0.36749  0.86615  0.92425  1.0000
  H   H1023     1.0  0.31170  0.90666  0.89829  1.0000
  H   H1024     1.0  0.33553  0.93083  0.87343  1.0000
  H   H1025     1.0  0.42560  0.55105  0.97410  1.0000
  C   C1279     1.0  0.28354  0.69320  0.95193  1.0000
  H   H1026     1.0  0.36866  0.98384  0.94171  1.0000
  S   S197      1.0  0.43938  0.94145  0.84610  1.0000
  C   C1280     1.0  0.42345  0.61187  0.96092  1.0000
  H   H1027     1.0  0.32477  0.86818  0.87854  1.0000
  H   H1028     1.0  0.48716  0.92191  0.75641  1.0000
  C   C1281     1.0  0.02684  0.53898  0.78859  1.0000
  H   H1029     1.0  0.47011  0.55046  0.81212  1.0000
  H   H1030     1.0  0.49088  0.52667  0.84698  1.0000
  H   H1031     1.0  0.19849  0.69734  0.76761  1.0000
  C   C1282     1.0  0.46578  0.68141  0.95352  1.0000
  C   C1283     1.0  0.01350  0.59689  0.79568  1.0000
  H   H1032     1.0  0.42033  0.95248  0.74082  1.0000
  C   C1284     1.0  0.37224  0.53777  0.84576  1.0000
  H   H1033     1.0  0.03072  0.59653  0.79557  1.0000
  C   C1285     1.0  0.05737  0.51168  0.92310  1.0000
  C   C1286     1.0  0.00102  0.51517  0.80833  1.0000
  C   C1287     1.0  0.05515  0.51019  0.96090  1.0000
  C   C1288     1.0  0.04447  0.53177  0.95788  1.0000
  C   C1289     1.0  0.04003  0.54312  0.93750  1.0000
  C   C1290     1.0  0.04639  0.53310  0.92021  1.0000
  C   C1291     1.0  0.48075  0.62514  0.88485  1.0000
  H   H1034     1.0  0.14724  0.51744  0.90836  1.0000
  H   H1035     1.0  0.03176  0.55980  0.93503  1.0000
  H   H1036     1.0  0.04259  0.54196  0.90469  1.0000
  H   H1037     1.0  0.35531  0.95860  0.89870  1.0000
  H   H1038     1.0  0.49402  0.64174  0.80715  1.0000
  C   C1292     1.0  0.44182  0.95739  0.76080  1.0000
  C   C1293     1.0  0.00071  0.58902  0.81463  1.0000
  H   H1039     1.0  0.39704  0.99139  0.75044  1.0000
  H   H1040     1.0  0.35040  0.96292  0.82545  1.0000
  H   H1041     1.0  0.10903  0.55804  0.97985  1.0000
  H   H1042     1.0  0.04221  0.53250  0.75843  1.0000
  H   H1043     1.0  0.01273  0.52166  0.90319  1.0000
  C   C1294     1.0  0.19387  0.54506  0.83777  1.0000
  C   C1295     1.0  0.17901  0.53680  0.82936  1.0000
  C   C1296     1.0  0.15667  0.54533  0.83154  1.0000
  C   C1297     1.0  0.14913  0.56268  0.84163  1.0000
  C   C1298     1.0  0.16403  0.57119  0.84970  1.0000
  C   C1299     1.0  0.18620  0.56211  0.84826  1.0000
  H   H1044     1.0  0.18482  0.52386  0.82101  1.0000
  H   H1045     1.0  0.14534  0.53887  0.82502  1.0000
  H   H1046     1.0  0.15832  0.58475  0.85730  1.0000
  H   H1047     1.0  0.19734  0.56858  0.85493  1.0000
  C   C1300     1.0  0.23356  0.54579  0.93810  1.0000
  C   C1301     1.0  0.22922  0.52663  0.93412  1.0000
  C   C1302     1.0  0.17884  0.51143  0.89121  1.0000
  H   H1048     1.0  0.05836  0.50120  0.97660  1.0000
  C   C1303     1.0  0.24710  0.52505  0.97072  1.0000
  C   C1304     1.0  0.24238  0.54504  0.95644  1.0000
  H   H1049     1.0  0.22214  0.52725  0.92007  1.0000
  C   C1305     1.0  0.15964  0.52280  0.77978  1.0000
  P   P41       1.0  0.45906  0.59721  0.87240  1.0000
  H   H1050     1.0  0.24614  0.55981  0.95929  1.0000
  C   C1306     1.0  0.30506  0.62190  0.83829  1.0000
  C   C1307     1.0  0.30677  0.61632  0.86006  1.0000
  C   C1308     1.0  0.32063  0.62594  0.86842  1.0000
  C   C1309     1.0  0.33292  0.64114  0.85498  1.0000
  C   C1310     1.0  0.33118  0.64679  0.83325  1.0000
  C   C1311     1.0  0.31725  0.63728  0.82496  1.0000
  H   H1051     1.0  0.29710  0.60497  0.87060  1.0000
  H   H1052     1.0  0.32173  0.62161  0.88526  1.0000
  H   H1053     1.0  0.34067  0.65852  0.82278  1.0000
  H   H1054     1.0  0.31606  0.64170  0.80813  1.0000
  H   H1055     1.0  0.20311  0.72959  0.78009  1.0000
  C   C1312     1.0  0.42769  0.59556  0.94933  1.0000
  C   C1313     1.0  0.48790  0.58317  0.83948  1.0000
  H   H1056     1.0  0.00957  0.54150  0.81911  1.0000
  C   C1314     1.0  0.47735  0.82280  0.93055  1.0000
  C   C1315     1.0  0.48283  0.63922  0.89733  1.0000
  H   H1057     1.0  0.44328  0.95920  0.93884  1.0000
  C   C1316     1.0  0.43283  0.96150  0.74190  1.0000
  C   C1317     1.0  0.46499  0.64637  0.91108  1.0000
  C   C1318     1.0  0.45628  0.88477  0.75354  1.0000
  C   C1319     1.0  0.41026  0.54757  0.98339  1.0000
  H   H1058     1.0  0.37218  0.96798  0.76430  1.0000
  H   H1059     1.0  0.28444  0.67609  0.95184  1.0000
  C   C1320     1.0  0.49223  0.62539  0.81615  1.0000
  Fe  Fe96      1.0  0.45767  0.93110  0.87411  1.0000
  P   P42       1.0  0.46634  0.71394  0.91609  1.0000
  C   C1321     1.0  0.46658  0.70238  0.87759  1.0000
  C   C1322     1.0  0.44069  0.55927  0.83221  1.0000
  S   S198      1.0  0.06619  0.49908  0.90146  1.0000
  C   C1323     1.0  0.30547  0.51877  0.96756  1.0000
  C   C1324     1.0  0.43973  0.82581  0.81307  1.0000
  H   H1060     1.0  0.40439  0.94816  0.82044  1.0000
  H   H1061     1.0  0.39990  0.98108  0.96069  1.0000
  H   H1062     1.0  0.46344  0.51260  0.81582  1.0000
  C   C1325     1.0  0.19079  0.60060  0.97394  1.0000
  C   C1326     1.0  0.43450  0.71001  0.95140  1.0000
  P   P43       1.0  0.15004  0.49445  0.95263  1.0000
  C   C1327     1.0  0.03030  0.52806  0.77204  1.0000
  C   C1328     1.0  0.44533  0.95622  0.95546  1.0000
  C   C1329     1.0  0.18059  0.56489  0.97858  1.0000
  H   H1063     1.0  0.46282  0.81549  0.93325  1.0000
  H   H1064     1.0  0.33811  0.96027  0.98143  1.0000
  C   C1330     1.0  0.46182  0.60662  0.96518  1.0000
  C   C1331     1.0  0.38686  0.60420  0.86339  1.0000
  H   H1065     1.0  0.13225  0.67678  0.86854  1.0000
  C   C1332     1.0  0.29708  0.59870  0.98106  1.0000
  C   C1333     1.0  0.36657  0.73370  0.94435  1.0000
  Fe  Fe97      1.0  0.45548  0.88346  0.87824  1.0000
  H   H1066     1.0  0.27017  0.72781  0.98561  1.0000
  H   H1067     1.0  0.34567  0.90555  0.94887  1.0000
  P   P44       1.0  0.15385  0.59970  0.95595  1.0000
  H   H1068     1.0  0.46509  0.65636  0.98227  1.0000
  C   C1334     1.0  0.15853  0.62661  0.94117  1.0000
  C   C1335     1.0  0.14989  0.64503  0.94967  1.0000
  C   C1336     1.0  0.15419  0.66574  0.93850  1.0000
  C   C1337     1.0  0.16743  0.66817  0.91896  1.0000
  C   C1338     1.0  0.17652  0.64987  0.91066  1.0000
  C   C1339     1.0  0.17219  0.62914  0.92173  1.0000
  C   C1340     1.0  0.13075  0.49234  0.88235  1.0000
  H   H1069     1.0  0.36361  0.49335  0.85770  1.0000
  C   C1341     1.0  0.43327  0.69970  0.90200  1.0000
  H   H1070     1.0  0.46710  0.69251  0.84835  1.0000
  H   H1071     1.0  0.49232  0.58327  0.90182  1.0000
  C   C1342     1.0  0.15206  0.58416  0.93684  1.0000
  C   C1343     1.0  0.17083  0.57183  0.92841  1.0000
  C   C1344     1.0  0.16995  0.56131  0.91233  1.0000
  C   C1345     1.0  0.15023  0.56285  0.90467  1.0000
  C   C1346     1.0  0.13140  0.57474  0.91316  1.0000
  C   C1347     1.0  0.13230  0.58549  0.92908  1.0000
  S   S199      1.0  0.31792  0.76359  0.98156  1.0000
  C   C1348     1.0  0.39911  0.91847  0.78579  1.0000
  C   C1349     1.0  0.45659  0.67139  0.97365  1.0000
  C   C1350     1.0  0.32469  0.50850  0.97599  1.0000
  H   H1072     1.0  0.40973  0.70710  0.97832  1.0000
  P   P45       1.0  0.36594  0.50698  0.98652  1.0000
  H   H1073     1.0  0.14748  0.67987  0.94515  1.0000
  H   H1074     1.0  0.17093  0.68418  0.91040  1.0000
  H   H1075     1.0  0.18712  0.65172  0.89574  1.0000
  H   H1076     1.0  0.17983  0.61510  0.91527  1.0000
  H   H1077     1.0  0.39238  0.78434  0.97863  1.0000
  C   C1351     1.0  0.44045  0.61721  0.96903  1.0000
  C   C1352     1.0  0.46835  0.53206  0.90115  1.0000
  C   C1353     1.0  0.27643  0.70032  0.97078  1.0000
  H   H1078     1.0  0.08080  0.56548  0.95575  1.0000
  H   H1079     1.0  0.18628  0.57069  0.93394  1.0000
  H   H1080     1.0  0.18469  0.55220  0.90567  1.0000
  H   H1081     1.0  0.14949  0.55509  0.89195  1.0000
  H   H1082     1.0  0.11614  0.57588  0.90712  1.0000
  H   H1083     1.0  0.11751  0.59476  0.93515  1.0000
  C   C1354     1.0  0.21189  0.62543  0.82221  1.0000
  P   P46       1.0  0.20534  0.64642  0.83731  1.0000
  C   C1355     1.0  0.17918  0.64472  0.85343  1.0000
  C   C1356     1.0  0.22610  0.64251  0.85453  1.0000
  C   C1357     1.0  0.22428  0.62873  0.87488  1.0000
  C   C1358     1.0  0.24009  0.62627  0.88823  1.0000
  C   C1359     1.0  0.25791  0.63739  0.88140  1.0000
  C   C1360     1.0  0.26017  0.65069  0.86103  1.0000
  C   C1361     1.0  0.24452  0.65303  0.84754  1.0000
  C   C1362     1.0  0.17361  0.62432  0.86442  1.0000
  C   C1363     1.0  0.15333  0.62291  0.87665  1.0000
  C   C1364     1.0  0.13845  0.64176  0.87821  1.0000
  C   C1365     1.0  0.14387  0.66216  0.86746  1.0000
  C   C1366     1.0  0.16413  0.66367  0.85508  1.0000
  C   C1367     1.0  0.20472  0.67276  0.81911  1.0000
  C   C1368     1.0  0.20146  0.67517  0.79795  1.0000
  S   S200      1.0  0.35968  0.63301  0.95977  1.0000
  C   C1369     1.0  0.20656  0.71155  0.81207  1.0000
  C   C1370     1.0  0.20711  0.69113  0.82612  1.0000
  H   H1084     1.0  0.17852  0.62072  0.82292  1.0000
  H   H1085     1.0  0.21104  0.61944  0.88050  1.0000
  H   H1086     1.0  0.23879  0.61531  0.90376  1.0000
  H   H1087     1.0  0.27037  0.63510  0.89164  1.0000
  H   H1088     1.0  0.27452  0.65855  0.85545  1.0000
  H   H1089     1.0  0.24710  0.66270  0.83155  1.0000
  H   H1090     1.0  0.18486  0.60942  0.86339  1.0000
  H   H1091     1.0  0.14907  0.60714  0.88472  1.0000
  H   H1092     1.0  0.12267  0.64051  0.88759  1.0000
  C   C1371     1.0  0.46622  0.98340  0.74436  1.0000
  H   H1093     1.0  0.16780  0.67963  0.84676  1.0000
  H   H1094     1.0  0.19936  0.66133  0.79217  1.0000
  H   H1095     1.0  0.20857  0.72564  0.81752  1.0000
  H   H1096     1.0  0.20940  0.68965  0.84244  1.0000
  C   C1372     1.0  0.27942  0.58716  0.98477  1.0000
  H   H1097     1.0  0.18718  0.50984  0.96311  1.0000
  C   C1373     1.0  0.00373  0.60634  0.77712  1.0000
  C   C1374     1.0  0.23414  0.50664  0.94830  1.0000
  C   C1375     1.0  0.33477  0.74449  0.96826  1.0000
  C   C1376     1.0  0.48420  0.53060  0.91416  1.0000
  H   H1098     1.0  0.48642  0.56677  0.84832  1.0000
  C   C1377     1.0  0.37767  0.93653  0.94461  1.0000
  H   H1099     1.0  0.47129  0.83609  0.80656  1.0000
  H   H1100     1.0  0.40499  0.74368  0.87037  1.0000
  C   C1378     1.0  0.46082  0.61786  0.88619  1.0000
  C   C1379     1.0  0.35361  0.74950  0.95461  1.0000
  C   C1380     1.0  0.39937  0.93900  0.93673  1.0000
  C   C1381     1.0  0.40506  0.94869  0.91546  1.0000
  C   C1382     1.0  0.38925  0.95542  0.90171  1.0000
  C   C1383     1.0  0.36749  0.95361  0.90949  1.0000
  C   C1384     1.0  0.36159  0.94466  0.93098  1.0000
  C   C1385     1.0  0.45407  0.88859  0.78996  1.0000
  H   H1101     1.0  0.44772  0.88405  0.80651  1.0000
  H   H1102     1.0  0.15189  0.50128  0.85342  1.0000
  H   H1103     1.0  0.23116  0.49174  0.94517  1.0000
  S   S201      1.0  0.43644  0.88984  0.85081  1.0000
  C   C1386     1.0  0.14219  0.49876  0.80975  1.0000
  H   H1104     1.0  0.43018  0.50031  0.83718  1.0000
  C   C1387     1.0  0.17010  0.49797  0.92922  1.0000
  C   C1388     1.0  0.16376  0.50957  0.90957  1.0000
  H   H1105     1.0  0.07602  0.62706  0.97554  1.0000
  C   C1389     1.0  0.24299  0.50586  0.96662  1.0000
  C   C1390     1.0  0.20349  0.71378  0.79099  1.0000
  C   C1391     1.0  0.00394  0.50485  0.79125  1.0000
  C   C1392     1.0  0.30244  0.54122  0.95902  1.0000
  H   H1106     1.0  0.41195  0.93323  0.94702  1.0000
  H   H1107     1.0  0.42188  0.95038  0.90945  1.0000
  C   C1393     1.0  0.38187  0.95588  0.77500  1.0000
  H   H1108     1.0  0.00230  0.56154  0.74397  1.0000
  C   C1394     1.0  0.47646  0.60119  0.84735  1.0000
  S   S202      1.0  0.08428  0.50877  0.79387  1.0000
  H   H1109     1.0  0.35818  0.76548  0.95202  1.0000
  H   H1110     1.0  0.28146  0.75388  0.95310  1.0000
  C   C1395     1.0  0.17684  0.58751  0.97033  1.0000
  H   H1111     1.0  0.40752  0.52329  0.96726  1.0000
  H   H1112     1.0  0.46666  0.65659  0.92142  1.0000
  C   C1396     1.0  0.42333  0.61208  0.84961  1.0000
  C   C1397     1.0  0.40373  0.53826  0.91599  1.0000
  C   C1398     1.0  0.38261  0.54395  0.92562  1.0000
  C   C1399     1.0  0.44493  0.63985  0.91193  1.0000
  H   H1113     1.0  0.41748  0.53977  0.92315  1.0000
  H   H1114     1.0  0.38012  0.55015  0.93994  1.0000
  S   S203      1.0  0.43425  0.90907  0.89343  1.0000
  C   C1400     1.0  0.40060  0.88765  0.96426  1.0000
  C   C1401     1.0  0.42139  0.76126  0.98536  1.0000
  H   H1115     1.0  0.33309  0.89869  0.84827  1.0000
  Fe  Fe98      1.0  0.32822  0.79568  0.98129  1.0000
  H   H1116     1.0  0.02120  0.50272  0.76042  1.0000
  S   S204      1.0  0.48068  0.90444  0.86145  1.0000
  H   H1117     1.0  0.46551  0.96492  0.77674  1.0000
  H   H1118     1.0  0.31513  0.71939  0.98288  1.0000
  H   H1119     1.0  0.03585  0.55207  0.78774  1.0000
  C   C1402     1.0  0.46608  0.59049  0.95335  1.0000
  H   H1120     1.0  0.44887  0.55304  0.87805  1.0000
  C   C1403     1.0  0.47845  0.62234  0.83538  1.0000
  H   H1121     1.0  0.43704  0.62973  0.97811  1.0000
  H   H1122     1.0  0.14017  0.64340  0.96509  1.0000
  C   C1404     1.0  0.01208  0.53273  0.80656  1.0000
  P   P47       1.0  0.37110  0.92399  0.97227  1.0000
  C   C1405     1.0  0.34435  0.56926  0.83709  1.0000
  H   H1123     1.0  0.25604  0.59732  0.79759  1.0000
  C   C1406     1.0  0.12946  0.51841  0.95217  1.0000
  C   C1407     1.0  0.11338  0.52276  0.93861  1.0000
  C   C1408     1.0  0.09646  0.54022  0.93937  1.0000
  C   C1409     1.0  0.09466  0.55274  0.95441  1.0000
  C   C1410     1.0  0.11053  0.54855  0.96796  1.0000
  C   C1411     1.0  0.12809  0.53173  0.96660  1.0000
  H   H1124     1.0  0.42430  0.86026  0.95758  1.0000
  H   H1125     1.0  0.19441  0.51447  0.77303  1.0000
  H   H1126     1.0  0.38243  0.93075  0.75816  1.0000
  C   C1412     1.0  0.43645  0.68066  0.98262  1.0000
  C   C1413     1.0  0.39131  0.90023  0.97927  1.0000
  C   C1414     1.0  0.20828  0.59117  0.98543  1.0000
  C   C1415     1.0  0.44913  0.93467  0.96712  1.0000
  C   C1416     1.0  0.06148  0.50014  0.94353  1.0000
  C   C1417     1.0  0.33628  0.90724  0.96397  1.0000
  H   H1127     1.0  0.42177  0.57950  0.89929  1.0000
  C   C1418     1.0  0.34180  0.70799  0.96115  1.0000
  C   C1419     1.0  0.38727  0.93462  0.77174  1.0000
  C   C1420     1.0  0.41719  0.87001  0.96911  1.0000
  H   H1128     1.0  0.11347  0.51239  0.92781  1.0000
  H   H1129     1.0  0.08435  0.54362  0.92866  1.0000
  H   H1130     1.0  0.42342  0.70140  0.91687  1.0000
  H   H1131     1.0  0.38113  0.73759  0.93383  1.0000
  Fe  Fe99      1.0  0.45996  0.91284  0.83495  1.0000
  C   C1421     1.0  0.45366  0.77551  0.92658  1.0000
  C   C1422     1.0  0.45285  0.78860  0.90616  1.0000
  C   C1423     1.0  0.45538  0.77898  0.88878  1.0000
  C   C1424     1.0  0.45838  0.75626  0.89184  1.0000
  C   C1425     1.0  0.45900  0.74308  0.91235  1.0000
  C   C1426     1.0  0.45713  0.75289  0.92962  1.0000
  C   C1427     1.0  0.38093  0.86417  0.84364  1.0000
  C   C1428     1.0  0.45573  0.54494  0.82196  1.0000
  H   H1132     1.0  0.33502  0.58433  0.84042  1.0000
  H   H1133     1.0  0.45024  0.80620  0.90383  1.0000
  H   H1134     1.0  0.45520  0.78917  0.87294  1.0000
  H   H1135     1.0  0.46071  0.74903  0.87819  1.0000
  H   H1136     1.0  0.36923  0.89651  0.82648  1.0000
  H   H1137     1.0  0.36410  0.56487  0.86162  1.0000
  C   C1429     1.0  0.34498  0.88408  0.85148  1.0000
  H   H1138     1.0  0.14006  0.52877  0.97739  1.0000
  C   C1430     1.0  0.20043  0.50155  0.89224  1.0000
  C   C1431     1.0  0.12878  0.60149  0.97400  1.0000
  C   C1432     1.0  0.28961  0.70804  0.93325  1.0000
  C   C1433     1.0  0.28924  0.73006  0.93338  1.0000
  H   H1139     1.0  0.03195  0.58225  0.74290  1.0000
  P   P48       1.0  0.29587  0.74937  0.90889  1.0000
  C   C1434     1.0  0.27126  0.76095  0.89697  1.0000
  C   C1435     1.0  0.30711  0.77134  0.91398  1.0000
  C   C1436     1.0  0.29309  0.78860  0.92127  1.0000
  C   C1437     1.0  0.30140  0.80627  0.92420  1.0000
  C   C1438     1.0  0.32372  0.80690  0.91984  1.0000
  C   C1439     1.0  0.33782  0.78969  0.91291  1.0000
  C   C1440     1.0  0.32960  0.77192  0.91007  1.0000
  C   C1441     1.0  0.27020  0.78106  0.88221  1.0000
  C   C1442     1.0  0.25117  0.79020  0.87299  1.0000
  C   C1443     1.0  0.23312  0.77928  0.87834  1.0000
  C   C1444     1.0  0.23412  0.75915  0.89286  1.0000
  C   C1445     1.0  0.25313  0.74997  0.90212  1.0000
  C   C1446     1.0  0.31514  0.73515  0.89121  1.0000
  C   C1447     1.0  0.31176  0.73740  0.87009  1.0000
  C   C1448     1.0  0.32593  0.72500  0.85712  1.0000
  C   C1449     1.0  0.34360  0.71037  0.86508  1.0000
  C   C1450     1.0  0.34731  0.70838  0.88590  1.0000
  C   C1451     1.0  0.33309  0.72062  0.89894  1.0000
  H   H1140     1.0  0.43646  0.94509  0.77425  1.0000
  H   H1141     1.0  0.45172  0.78274  0.94023  1.0000
  C   C1452     1.0  0.45736  0.83277  0.81839  1.0000
  H   H1142     1.0  0.29461  0.70223  0.91874  1.0000
  S   S205      1.0  0.47515  0.91775  0.80086  1.0000
  H   H1143     1.0  0.27572  0.78841  0.92477  1.0000
  C   C1453     1.0  0.44448  0.97376  0.96510  1.0000
  H   H1144     1.0  0.33004  0.82062  0.92218  1.0000
  H   H1145     1.0  0.35517  0.78994  0.91015  1.0000
  H   H1146     1.0  0.34093  0.75867  0.90505  1.0000
  H   H1147     1.0  0.28407  0.78972  0.87788  1.0000
  H   H1148     1.0  0.25039  0.80581  0.86175  1.0000
  H   H1149     1.0  0.21834  0.78643  0.87127  1.0000
  H   H1150     1.0  0.22013  0.75068  0.89703  1.0000
  H   H1151     1.0  0.25355  0.73437  0.91332  1.0000
  H   H1152     1.0  0.29795  0.74824  0.86369  1.0000
  H   H1153     1.0  0.32296  0.72627  0.84104  1.0000
  H   H1154     1.0  0.35420  0.70027  0.85526  1.0000
  H   H1155     1.0  0.36085  0.69685  0.89219  1.0000
  H   H1156     1.0  0.33577  0.71833  0.91526  1.0000
  C   C1454     1.0  0.39410  0.75910  0.86753  1.0000
  C   C1455     1.0  0.37304  0.75971  0.86324  1.0000
  C   C1456     1.0  0.35895  0.77953  0.85967  1.0000
  C   C1457     1.0  0.36582  0.79879  0.86061  1.0000
  C   C1458     1.0  0.38689  0.79828  0.86523  1.0000
  C   C1459     1.0  0.40108  0.77834  0.86829  1.0000
  P   P49       1.0  0.39621  0.82270  0.86722  1.0000
  C   C1460     1.0  0.37622  0.84671  0.86064  1.0000
  C   C1461     1.0  0.40071  0.82114  0.89409  1.0000
  C   C1462     1.0  0.40497  0.83968  0.89955  1.0000
  C   C1463     1.0  0.40890  0.83872  0.92013  1.0000
  C   C1464     1.0  0.40822  0.81937  0.93556  1.0000
  C   C1465     1.0  0.40349  0.80097  0.93039  1.0000
  C   C1466     1.0  0.39962  0.80184  0.90983  1.0000
  C   C1467     1.0  0.35599  0.84849  0.87336  1.0000
  C   C1468     1.0  0.42066  0.82566  0.84859  1.0000
  C   C1469     1.0  0.43852  0.83247  0.85381  1.0000
  H   H1157     1.0  0.37760  0.51535  0.82481  1.0000
  H   H1158     1.0  0.41012  0.56372  0.85201  1.0000
  C   C1470     1.0  0.44898  0.58475  0.94573  1.0000
  C   C1471     1.0  0.42143  0.82227  0.82810  1.0000
  C   C1472     1.0  0.11005  0.61550  0.96723  1.0000
  H   H1159     1.0  0.36766  0.74482  0.86263  1.0000
  H   H1160     1.0  0.34262  0.77995  0.85632  1.0000
  H   H1161     1.0  0.35462  0.81390  0.85769  1.0000
  H   H1162     1.0  0.41744  0.77764  0.87162  1.0000
  H   H1163     1.0  0.40566  0.85485  0.88779  1.0000
  H   H1164     1.0  0.41273  0.85297  0.92402  1.0000
  H   H1165     1.0  0.41131  0.81867  0.95152  1.0000
  H   H1166     1.0  0.40299  0.78593  0.94230  1.0000
  H   H1167     1.0  0.39598  0.78732  0.90648  1.0000
  H   H1168     1.0  0.35241  0.83575  0.88717  1.0000
  C   C1473     1.0  0.36073  0.55790  0.84932  1.0000
  C   C1474     1.0  0.45678  0.83601  0.83878  1.0000
  H   H1169     1.0  0.40767  0.81740  0.82357  1.0000
  C   C1475     1.0  0.40619  0.77994  0.98735  1.0000
  H   H1170     1.0  0.38301  0.58414  0.89490  1.0000
  H   H1171     1.0  0.47680  0.97540  0.92931  1.0000
  H   H1172     1.0  0.39517  0.62496  0.83304  1.0000
  H   H1173     1.0  0.45875  0.74313  0.94546  1.0000
  S   S206      1.0  0.37675  0.69364  0.93421  1.0000
  H   H1174     1.0  0.35393  0.53297  0.89116  1.0000
  H   H1175     1.0  0.18839  0.61807  0.96786  1.0000
  H   H1176     1.0  0.32652  0.56973  0.81178  1.0000
  H   H1177     1.0  0.46191  0.51757  0.90101  1.0000
  C   C1476     1.0  0.33963  0.56103  0.82085  1.0000
  C   C1477     1.0  0.40697  0.53136  0.89688  1.0000
  C   C1478     1.0  0.35177  0.54164  0.81641  1.0000
  H   H1178     1.0  0.28757  0.54920  0.95244  1.0000
  H   H1179     1.0  0.39509  0.89143  0.94881  1.0000
  C   C1479     1.0  0.19552  0.61576  0.81764  1.0000
  H   H1180     1.0  0.42336  0.52708  0.88954  1.0000
  H   H1181     1.0  0.34834  0.54610  0.92403  1.0000
  C   C1480     1.0  0.36477  0.54188  0.91662  1.0000
  C   C1481     1.0  0.14081  0.51699  0.79286  1.0000
  C   C1482     1.0  0.34029  0.86689  0.86852  1.0000
  C   C1483     1.0  0.40131  0.61452  0.84718  1.0000
  H   H1182     1.0  0.26648  0.59277  0.97489  1.0000
  H   H1183     1.0  0.12505  0.52657  0.78993  1.0000
  H   H1184     1.0  0.34956  0.55334  0.96810  1.0000
  H   H1185     1.0  0.99756  0.54558  0.95473  1.0000
  H   H1186     1.0  0.31593  0.57097  0.95282  1.0000
  H   H1187     1.0  0.44337  0.57592  0.83024  1.0000
  H   H1188     1.0  0.18847  0.59102  0.80374  1.0000
  C   C1484     1.0  0.36799  0.53462  0.89777  1.0000
  C   C1485     1.0  0.38908  0.53036  0.88721  1.0000
  H   H1189     1.0  0.34459  0.94395  0.93670  1.0000
  Fe  Fe100     1.0  0.41750  0.91762  0.86443  1.0000
  H   H1190     1.0  0.41390  0.91092  0.81448  1.0000
  C   C1486     1.0  0.31847  0.55349  0.95922  1.0000
  C   C1487     1.0  0.46913  0.98163  0.87158  1.0000
  H   H1191     1.0  0.44007  0.82369  0.79711  1.0000
  C   C1488     1.0  0.42190  0.55232  0.84456  1.0000
  C   C1489     1.0  0.39438  0.59147  0.88205  1.0000
  C   C1490     1.0  0.20106  0.59908  0.80645  1.0000
  C   C1491     1.0  0.44828  0.87879  0.77512  1.0000
  H   H1192     1.0  0.39397  0.96158  0.88496  1.0000
  H   H1193     1.0  0.39668  0.86380  0.83406  1.0000
  H   H1194     1.0  0.31025  0.96737  0.83139  1.0000
  C   C1492     1.0  0.33759  0.54335  0.96790  1.0000
  C   C1493     1.0  0.47977  0.84099  0.91401  1.0000
  C   C1494     1.0  0.42539  0.69994  0.97148  1.0000
  C   C1495     1.0  0.47061  0.90005  0.74700  1.0000
  C   C1496     1.0  0.42436  0.69202  0.88768  1.0000
  C   C1497     1.0  0.28185  0.73711  0.95236  1.0000
  C   C1498     1.0  0.23356  0.61937  0.81398  1.0000
  H   H1195     1.0  0.24632  0.62716  0.81661  1.0000
  S   S207      1.0  0.03618  0.54506  0.97908  1.0000
  H   H1196     1.0  0.47943  0.99149  0.74540  1.0000
  H   H1197     1.0  0.40804  0.68783  0.89179  1.0000
  C   C1499     1.0  0.46091  0.55217  0.88827  1.0000
  C   C1500     1.0  0.45458  0.70469  0.89721  1.0000
  C   C1501     1.0  0.45197  0.52362  0.82406  1.0000
  C   C1502     1.0  0.41637  0.58887  0.88446  1.0000
  H   H1198     1.0  0.43113  0.64529  0.92269  1.0000
  C   C1503     1.0  0.36057  0.71298  0.94752  1.0000
  C   C1504     1.0  0.00660  0.51873  0.88986  1.0000
  C   C1505     1.0  0.22286  0.59220  0.79947  1.0000
  C   C1506     1.0  0.48540  0.98264  0.85414  1.0000
  H   H1199     1.0  0.40706  0.62027  0.96378  1.0000
  C   C1507     1.0  0.47637  0.90982  0.76175  1.0000
  C   C1508     1.0  0.45493  0.70097  0.94233  1.0000
  C   C1509     1.0  0.20091  0.69561  0.78395  1.0000
  C   C1510     1.0  0.43107  0.59908  0.86827  1.0000
  C   C1511     1.0  0.23908  0.60260  0.80294  1.0000
  C   C1512     1.0  0.41808  0.53090  0.84688  1.0000
  C   C1513     1.0  0.36535  0.88281  0.83918  1.0000
  C   C1514     1.0  0.39998  0.94482  0.80648  1.0000
  C   C1515     1.0  0.46797  0.90432  0.78322  1.0000
  H   H1200     1.0  0.48122  0.67372  0.94683  1.0000
  H   H1201     1.0  0.40355  0.90207  0.78310  1.0000
  C   C1516     1.0  0.38889  0.96138  0.79192  1.0000
  H   H1202     1.0  0.43840  0.83539  0.86932  1.0000
  S   S208      1.0  0.46516  0.95660  0.88906  1.0000
  C   C1517     1.0  0.01862  0.51120  0.77325  1.0000
  H   H1203     1.0  0.11051  0.62555  0.95129  1.0000
  S   S209      1.0  0.30342  0.82611  0.97777  1.0000
  C   C1518     1.0  0.45764  0.69458  0.86332  1.0000
  H   H1204     1.0  0.16994  0.55445  0.97627  1.0000
  H   H1205     1.0  0.48245  0.58219  0.95035  1.0000
  C   C1519     1.0  0.27535  0.72230  0.97093  1.0000
  C   C1520     1.0  0.40514  0.92351  0.80334  1.0000
  P   P50       1.0  0.39313  0.52271  0.86193  1.0000
  H   H1206     1.0  0.42543  0.72477  0.94295  1.0000
  C   C1521     1.0  0.09049  0.61649  0.98093  1.0000
  H   H1207     1.0  0.30917  0.89483  0.95762  1.0000
  H   H1208     1.0  0.12778  0.50856  0.88545  1.0000
  H   H1209     1.0  0.36007  0.49888  0.94537  1.0000
  C   C1522     1.0  0.18124  0.49174  0.80013  1.0000
  C   C1523     1.0  0.31561  0.90095  0.96894  1.0000
  H   H1210     1.0  0.25452  0.52449  0.98453  1.0000
  C   C1524     1.0  0.34475  0.91511  0.97859  1.0000
  H   H1211     1.0  0.15850  0.53706  0.76683  1.0000
  H   H1212     1.0  0.45011  0.92119  0.95953  1.0000
  H   H1213     1.0  0.46957  0.63647  0.84106  1.0000
  C   C1525     1.0  0.49283  0.54915  0.91411  1.0000
  C   C1526     1.0  0.00440  0.49447  0.86744  1.0000
  H   H1214     1.0  0.21220  0.50349  0.87804  1.0000
  C   C1527     1.0  0.01177  0.49816  0.88502  1.0000
  C   C1528     1.0  0.34102  0.97694  0.81613  1.0000
  H   H1215     1.0  0.12735  0.49422  0.81937  1.0000
  C   C1529     1.0  0.18053  0.49885  0.97708  1.0000
  C   C1530     1.0  0.39995  0.53160  0.97971  1.0000
  H   H1216     1.0  0.01063  0.67269  0.74732  1.0000
  C   C1531     1.0  0.39465  0.49338  0.86780  1.0000
  C   C1532     1.0  0.31829  0.97941  0.81952  1.0000
  H   H1217     1.0  0.27193  0.68874  0.98528  1.0000
  H   H1218     1.0  0.35121  0.49214  0.90484  1.0000
  H   H1219     1.0  0.17378  0.52071  0.87618  1.0000
  C   C1533     1.0  0.44716  0.96933  0.98670  1.0000
  C   C1534     1.0  0.39192  0.99146  0.81918  1.0000
  P   P51       1.0  0.38092  0.98869  0.79645  1.0000
  H   H1220     1.0  0.42529  0.98713  0.80420  1.0000
  C   C1535     1.0  0.49367  0.81395  0.94354  1.0000
  H   H1221     1.0  0.99496  0.49184  0.79180  1.0000
  H   H1222     1.0  0.49204  0.79919  0.95545  1.0000
  C   C1536     1.0  0.41447  0.99083  0.81799  1.0000
  C   C1537     1.0  0.38314  0.49188  0.96817  1.0000
  C   C1538     1.0  0.37127  0.94531  0.98592  1.0000
  Fe  Fe101     1.0  0.36255  0.81972  0.98752  1.0000
  H   H1223     1.0  0.59811  0.22491  0.05369  1.0000
  Fe  Fe102     1.0  0.68601  0.45538  0.02484  1.0000
  S   S210      1.0  0.64976  0.46446  0.02940  1.0000
  Fe  Fe103     1.0  0.68979  0.45306  0.07067  1.0000
  S   S211      1.0  0.65373  0.46185  0.07919  1.0000
  S   S212      1.0  0.71427  0.44434  0.09402  1.0000
  Fe  Fe104     1.0  0.65068  0.43871  0.05934  1.0000
  S   S213      1.0  0.62524  0.41630  0.06785  1.0000
  C   C1539     1.0  0.58143  0.22912  0.05024  1.0000
  S   S214      1.0  0.68664  0.42771  0.05339  1.0000
  S   S215      1.0  0.69234  0.47989  0.04140  1.0000
  C   C1540     1.0  0.74393  0.41448  0.02260  1.0000
  H   H1224     1.0  0.84042  0.43433  0.14313  1.0000
  S   S216      1.0  0.85189  0.43835  0.08767  1.0000
  C   C1541     1.0  0.57811  0.03087  0.19133  1.0000
  Fe  Fe105     1.0  0.65587  0.48692  0.04840  1.0000
  Fe  Fe106     1.0  0.96390  0.39912  0.20822  1.0000
  H   H1225     1.0  0.87060  0.47168  0.21270  1.0000
  C   C1542     1.0  0.59201  0.46224  0.00017  1.0000
  S   S217      1.0  0.94633  0.44779  0.16233  1.0000
  S   S218      1.0  0.92278  0.39760  0.15062  1.0000
  H   H1226     1.0  0.50514  0.34050  0.00293  1.0000
  C   C1543     1.0  0.74572  0.39856  0.18084  1.0000
  H   H1227     1.0  0.78508  0.39251  0.14081  1.0000
  H   H1228     1.0  0.59833  0.02220  0.14206  1.0000
  C   C1544     1.0  0.59445  0.99689  0.17036  1.0000
  C   C1545     1.0  0.81870  0.42386  0.00110  1.0000
  H   H1229     1.0  0.56017  0.06670  0.01638  1.0000
  H   H1230     1.0  0.49599  0.20656  0.05392  1.0000
  Fe  Fe107     1.0  0.93736  0.44409  0.19748  1.0000
  H   H1231     1.0  0.71309  0.36151  0.02724  1.0000
  C   C1546     1.0  0.72924  0.46528  0.09277  1.0000
  H   H1232     1.0  0.70046  0.40119  0.01502  1.0000
  H   H1233     1.0  0.58610  0.11227  0.10113  1.0000
  H   H1234     1.0  0.55116  0.26280  0.01360  1.0000
  C   C1547     1.0  0.76358  0.47632  0.09454  1.0000
  C   C1548     1.0  0.75132  0.45991  0.09550  1.0000
  C   C1549     1.0  0.71167  0.35407  0.99719  1.0000
  H   H1235     1.0  0.51518  0.02644  0.12891  1.0000
  H   H1236     1.0  0.78069  0.47212  0.09629  1.0000
  H   H1237     1.0  0.75902  0.44307  0.09846  1.0000
  C   C1550     1.0  0.62614  0.39993  0.04958  1.0000
  C   C1551     1.0  0.64556  0.39446  0.03690  1.0000
  H   H1238     1.0  0.54763  0.15404  0.99687  1.0000
  C   C1552     1.0  0.62716  0.37454  0.01978  1.0000
  C   C1553     1.0  0.60761  0.38018  0.03227  1.0000
  C   C1554     1.0  0.60718  0.39257  0.04740  1.0000
  H   H1239     1.0  0.66022  0.40001  0.03848  1.0000
  C   C1555     1.0  0.50211  0.17154  0.03040  1.0000
  H   H1240     1.0  0.59304  0.37443  0.03073  1.0000
  H   H1241     1.0  0.59211  0.39676  0.05718  1.0000
  C   C1556     1.0  0.73361  0.46747  0.15999  1.0000
  C   C1557     1.0  0.90349  0.41049  0.13298  1.0000
  C   C1558     1.0  0.89921  0.43318  0.12522  1.0000
  C   C1559     1.0  0.88334  0.44217  0.11125  1.0000
  C   C1560     1.0  0.87192  0.42845  0.10502  1.0000
  C   C1561     1.0  0.87625  0.40592  0.11290  1.0000
  C   C1562     1.0  0.89191  0.39704  0.12672  1.0000
  H   H1242     1.0  0.90818  0.44369  0.12990  1.0000
  H   H1243     1.0  0.88011  0.45960  0.10513  1.0000
  H   H1244     1.0  0.86757  0.39521  0.10819  1.0000
  H   H1245     1.0  0.89515  0.37954  0.13256  1.0000
  C   C1563     1.0  0.53192  0.44087  0.03083  1.0000
  C   C1564     1.0  0.76273  0.32077  0.05775  1.0000
  C   C1565     1.0  0.78461  0.31136  0.05772  1.0000
  C   C1566     1.0  0.79920  0.32169  0.06409  1.0000
  C   C1567     1.0  0.79194  0.34140  0.07054  1.0000
  C   C1568     1.0  0.76998  0.35099  0.07059  1.0000
  C   C1569     1.0  0.75543  0.34048  0.06416  1.0000
  P   P52       1.0  0.75984  0.37594  0.07970  1.0000
  C   C1570     1.0  0.73496  0.37148  0.09727  1.0000
  C   C1571     1.0  0.77933  0.38304  0.09318  1.0000
  C   C1572     1.0  0.77456  0.38405  0.11465  1.0000
  C   C1573     1.0  0.78898  0.39146  0.12432  1.0000
  C   C1574     1.0  0.80830  0.39780  0.11266  1.0000
  C   C1575     1.0  0.81317  0.39687  0.09130  1.0000
  C   C1576     1.0  0.79871  0.38963  0.08156  1.0000
  C   C1577     1.0  0.71604  0.38700  0.09521  1.0000
  C   C1578     1.0  0.69650  0.38278  0.10791  1.0000
  C   C1579     1.0  0.69569  0.36306  0.12282  1.0000
  C   C1580     1.0  0.71451  0.34757  0.12513  1.0000
  C   C1581     1.0  0.73411  0.35178  0.11245  1.0000
  C   C1582     1.0  0.75409  0.39886  0.05794  1.0000
  C   C1583     1.0  0.75324  0.42000  0.06082  1.0000
  H   H1246     1.0  0.73984  0.41250  0.00787  1.0000
  C   C1584     1.0  0.51585  0.31310  0.02743  1.0000
  C   C1585     1.0  0.87054  0.45966  0.20369  1.0000
  C   C1586     1.0  0.74914  0.39619  0.03875  1.0000
  H   H1247     1.0  0.75136  0.31262  0.05308  1.0000
  H   H1248     1.0  0.79023  0.29596  0.05297  1.0000
  H   H1249     1.0  0.81612  0.31425  0.06430  1.0000
  H   H1250     1.0  0.80349  0.34872  0.07585  1.0000
  H   H1251     1.0  0.73833  0.34738  0.06441  1.0000
  H   H1252     1.0  0.75959  0.37954  0.12387  1.0000
  H   H1253     1.0  0.82808  0.40209  0.08230  1.0000
  H   H1254     1.0  0.80253  0.38942  0.06489  1.0000
  H   H1255     1.0  0.71619  0.40236  0.08378  1.0000
  H   H1256     1.0  0.68193  0.39486  0.10602  1.0000
  H   H1257     1.0  0.68044  0.35979  0.13248  1.0000
  H   H1258     1.0  0.71383  0.33223  0.13663  1.0000
  H   H1259     1.0  0.74851  0.33955  0.11427  1.0000
  H   H1260     1.0  0.75612  0.42247  0.07575  1.0000
  H   H1261     1.0  0.53106  0.21650  0.07040  1.0000
  C   C1587     1.0  0.55668  0.08184  0.02177  1.0000
  H   H1262     1.0  0.75827  0.46749  0.23599  1.0000
  H   H1263     1.0  0.74889  0.38020  0.03627  1.0000
  H   H1264     1.0  0.72818  0.43692  0.13836  1.0000
  H   H1265     1.0  0.57163  0.04430  0.19902  1.0000
  C   C1588     1.0  0.73876  0.38053  0.17702  1.0000
  Fe  Fe108     1.0  0.84232  0.47460  0.07613  1.0000
  H   H1266     1.0  0.72194  0.36914  0.15688  1.0000
  H   H1267     1.0  0.66121  0.37700  0.01282  1.0000
  C   C1589     1.0  0.79381  0.43149  0.17806  1.0000
  C   C1590     1.0  0.74762  0.43820  0.04491  1.0000
  H   H1268     1.0  0.51137  0.17841  0.01561  1.0000
  C   C1591     1.0  0.73094  0.42138  0.14955  1.0000
  P   P53       1.0  0.56559  0.46516  0.01549  1.0000
  C   C1592     1.0  0.55588  0.16553  0.00094  1.0000
  C   C1593     1.0  0.56353  0.42272  0.01181  1.0000
  C   C1594     1.0  0.56502  0.21886  0.06387  1.0000
  H   H1269     1.0  0.52325  0.07851  0.03347  1.0000
  H   H1270     1.0  0.80619  0.38258  0.01530  1.0000
  S   S219      1.0  0.97365  0.37061  0.23467  1.0000
  H   H1271     1.0  0.57523  0.44210  0.09147  1.0000
  H   H1272     1.0  0.81952  0.40361  0.12004  1.0000
  C   C1595     1.0  0.57394  0.12582  0.09521  1.0000
  C   C1596     1.0  0.77842  0.44065  0.16385  1.0000
  C   C1597     1.0  0.86933  0.46580  0.18182  1.0000
  C   C1598     1.0  0.81610  0.42932  0.17062  1.0000
  Fe  Fe109     1.0  0.98012  0.43384  0.17046  1.0000
  C   C1599     1.0  0.72384  0.40341  0.14588  1.0000
  C   C1600     1.0  0.59310  0.01856  0.15899  1.0000
  C   C1601     1.0  0.57159  0.46912  0.04010  1.0000
  C   C1602     1.0  0.57809  0.19486  0.01075  1.0000
  C   C1603     1.0  0.54230  0.16058  0.08018  1.0000
  C   C1604     1.0  0.70974  0.36802  0.01104  1.0000
  C   C1605     1.0  0.50264  0.03725  0.09889  1.0000
  C   C1606     1.0  0.55106  0.14500  0.06798  1.0000
  C   C1607     1.0  0.80790  0.44436  0.13473  1.0000
  Fe  Fe110     1.0  0.94081  0.41305  0.16866  1.0000
  C   C1608     1.0  0.58204  0.48675  0.03984  1.0000
  H   H1273     1.0  0.59279  0.47382  0.09091  1.0000
  C   C1609     1.0  0.54747  0.48741  0.00160  1.0000
  H   H1274     1.0  0.74193  0.36465  0.18757  1.0000
  C   C1610     1.0  0.54924  0.15869  0.09979  1.0000
  C   C1611     1.0  0.77651  0.48428  0.02589  1.0000
  C   C1612     1.0  0.72756  0.38302  0.15971  1.0000
  H   H1275     1.0  0.53208  0.00290  0.21153  1.0000
  H   H1276     1.0  0.82796  0.42242  0.18161  1.0000
  P   P54       1.0  0.51041  0.24873  0.03541  1.0000
  S   S220      1.0  0.62921  0.35767  0.00175  1.0000
  C   C1613     1.0  0.87304  0.43760  0.21403  1.0000
  C   C1614     1.0  0.87446  0.42153  0.20257  1.0000
  C   C1615     1.0  0.87350  0.42751  0.18076  1.0000
  C   C1616     1.0  0.87085  0.44954  0.17044  1.0000
  C   C1617     1.0  0.49967  0.14697  0.06505  1.0000
  H   H1277     1.0  0.73916  0.44974  0.01335  1.0000
  C   C1618     1.0  0.72787  0.43215  0.21399  1.0000
  C   C1619     1.0  0.60826  0.44557  0.00831  1.0000
  C   C1620     1.0  0.74128  0.41924  0.16746  1.0000
  H   H1278     1.0  0.71548  0.40544  0.13222  1.0000
  C   C1621     1.0  0.54345  0.22448  0.05947  1.0000
  H   H1279     1.0  0.78871  0.42583  0.19481  1.0000
  H   H1280     1.0  0.79899  0.43206  0.05075  1.0000
  C   C1622     1.0  0.57631  0.24492  0.03214  1.0000
  H   H1281     1.0  0.54091  0.22759  0.00443  1.0000
  C   C1623     1.0  0.53585  0.08851  0.03143  1.0000
  H   H1282     1.0  0.51137  0.05109  0.09356  1.0000
  H   H1283     1.0  0.52426  0.32255  0.03417  1.0000
  H   H1284     1.0  0.87481  0.43298  0.23075  1.0000
  H   H1285     1.0  0.87551  0.41503  0.17171  1.0000
  H   H1286     1.0  0.87029  0.45396  0.15350  1.0000
  H   H1287     1.0  0.75438  0.39643  0.19431  1.0000
  C   C1624     1.0  0.50520  0.32323  0.00974  1.0000
  C   C1625     1.0  0.82316  0.43594  0.14897  1.0000
  S   S221      1.0  0.97133  0.43246  0.20537  1.0000
  C   C1626     1.0  0.71092  0.46877  0.16160  1.0000
  H   H1288     1.0  0.50710  0.13458  0.07741  1.0000
  C   C1627     1.0  0.74329  0.43548  0.02568  1.0000
  H   H1289     1.0  0.64180  0.43070  0.00380  1.0000
  C   C1628     1.0  0.75460  0.45632  0.20854  1.0000
  H   H1290     1.0  0.58683  0.20619  0.01444  1.0000
  S   S222      1.0  0.97564  0.39902  0.17387  1.0000
  C   C1629     1.0  0.78566  0.44628  0.14214  1.0000
  C   C1630     1.0  0.74396  0.44325  0.20056  1.0000
  H   H1291     1.0  0.77397  0.45212  0.13104  1.0000
  H   H1292     1.0  0.95749  0.47671  0.18486  1.0000
  P   P55       1.0  0.74956  0.44262  0.17281  1.0000
  H   H1293     1.0  0.49530  0.10928  0.00149  1.0000
  C   C1631     1.0  0.56504  0.14130  0.10732  1.0000
  H   H1294     1.0  0.56236  0.43861  0.05935  1.0000
  C   C1632     1.0  0.81054  0.43031  0.03680  1.0000
  C   C1633     1.0  0.83203  0.43321  0.03618  1.0000
  S   S223      1.0  0.92897  0.41050  0.20337  1.0000
  C   C1634     1.0  0.84692  0.43137  0.01814  1.0000
  H   H1295     1.0  0.84953  0.48175  0.00684  1.0000
  H   H1296     1.0  0.78713  0.42402  0.01974  1.0000
  C   C1635     1.0  0.71936  0.48713  0.08961  1.0000
  C   C1636     1.0  0.56610  0.18148  0.02699  1.0000
  H   H1297     1.0  0.52523  0.28309  0.04927  1.0000
  H   H1298     1.0  0.74604  0.45442  0.04776  1.0000
  H   H1299     1.0  0.60465  0.43433  0.02322  1.0000
  H   H1300     1.0  0.58902  0.08972  0.01126  1.0000
  H   H1301     1.0  0.83711  0.43720  0.04955  1.0000
  C   C1637     1.0  0.80386  0.42578  0.01928  1.0000
  H   H1302     1.0  0.82825  0.47160  0.17305  1.0000
  H   H1303     1.0  0.56594  0.18252  0.04320  1.0000
  H   H1304     1.0  0.49492  0.99533  0.14126  1.0000
  H   H1305     1.0  0.81337  0.44923  0.11789  1.0000
  H   H1306     1.0  0.71866  0.42283  0.20799  1.0000
  C   C1638     1.0  0.51632  0.29072  0.03592  1.0000
  H   H1307     1.0  0.78416  0.46950  0.03551  1.0000
  S   S224      1.0  0.57172  0.34050  0.99819  1.0000
  C   C1639     1.0  0.84031  0.42681  0.00060  1.0000
  H   H1308     1.0  0.76640  0.46576  0.19822  1.0000
  C   C1640     1.0  0.58491  0.03553  0.16947  1.0000
  C   C1641     1.0  0.78481  0.36337  0.00881  1.0000
  C   C1642     1.0  0.50651  0.23636  0.01464  1.0000
  C   C1643     1.0  0.53112  0.10823  0.03810  1.0000
  C   C1644     1.0  0.57948  0.00912  0.20286  1.0000
  C   C1645     1.0  0.82526  0.48744  0.16253  1.0000
  H   H1309     1.0  0.56902  0.20667  0.07795  1.0000
  C   C1646     1.0  0.77173  0.36104  0.99456  1.0000
  H   H1310     1.0  0.58104  0.12438  0.02313  1.0000
  H   H1311     1.0  0.52992  0.17405  0.07462  1.0000
  C   C1647     1.0  0.57291  0.09479  0.01892  1.0000
  C   C1648     1.0  0.55501  0.16657  0.02219  1.0000
  C   C1649     1.0  0.50639  0.27819  0.02653  1.0000
  C   C1650     1.0  0.56830  0.11446  0.02565  1.0000
  H   H1312     1.0  0.70305  0.45486  0.16991  1.0000
  H   H1313     1.0  0.58892  0.25302  0.02146  1.0000
  C   C1651     1.0  0.55303  0.44102  0.01981  1.0000
  H   H1314     1.0  0.58372  0.05234  0.16068  1.0000
  H   H1315     1.0  0.57025  0.13971  0.12263  1.0000
  H   H1316     1.0  0.54217  0.17053  0.10932  1.0000
  C   C1652     1.0  0.58648  0.47272  0.07691  1.0000
  H   H1317     1.0  0.86352  0.43399  0.01761  1.0000
  C   C1653     1.0  0.53818  0.24044  0.04132  1.0000
  C   C1654     1.0  0.52152  0.42266  0.03395  1.0000
  P   P56       1.0  0.54145  0.14737  0.04297  1.0000
  C   C1655     1.0  0.74322  0.48595  0.14948  1.0000
  C   C1656     1.0  0.56699  0.12762  0.07561  1.0000
  C   C1657     1.0  0.64609  0.38156  0.02230  1.0000
  H   H1318     1.0  0.76054  0.48560  0.14791  1.0000
  C   C1658     1.0  0.55482  0.25050  0.02770  1.0000
  H   H1319     1.0  0.57393  0.11531  0.06664  1.0000
  C   C1659     1.0  0.50024  0.12471  0.99302  1.0000
  P   P57       1.0  0.57056  0.00252  0.23103  1.0000
  C   C1660     1.0  0.54729  0.12146  0.03512  1.0000
  C   C1661     1.0  0.52446  0.22775  0.00180  1.0000
  H   H1320     1.0  0.78631  0.35133  0.02350  1.0000
  H   H1321     1.0  0.71649  0.33667  0.00268  1.0000
  C   C1662     1.0  0.51237  0.15617  0.04638  1.0000
  C   C1663     1.0  0.53214  0.40447  0.02611  1.0000
  H   H1322     1.0  0.51475  0.11315  0.04519  1.0000
  C   C1664     1.0  0.56905  0.45309  0.05893  1.0000
  S   S225      1.0  0.91699  0.47113  0.21150  1.0000
  H   H1323     1.0  0.52406  0.39041  0.02829  1.0000
  C   C1665     1.0  0.55312  0.40449  0.01512  1.0000
  H   H1324     1.0  0.52350  0.45491  0.03693  1.0000
  H   H1325     1.0  0.57958  0.42237  0.00287  1.0000
  S   S226      1.0  0.70405  0.45020  0.99339  1.0000
  C   C1666     1.0  0.62933  0.44367  0.99757  1.0000
  C   C1667     1.0  0.74993  0.45746  0.22989  1.0000
  H   H1326     1.0  0.56120  0.39041  0.00887  1.0000
  C   C1668     1.0  0.57642  0.45495  0.07725  1.0000
  C   C1669     1.0  0.70261  0.39033  0.00421  1.0000
  C   C1670     1.0  0.79602  0.38121  0.00411  1.0000
  H   H1327     1.0  0.79338  0.48305  0.15888  1.0000
  C   C1671     1.0  0.50465  0.02346  0.11884  1.0000
  C   C1672     1.0  0.57908  0.19346  0.98967  1.0000
  H   H1328     1.0  0.87724  0.40442  0.21040  1.0000
  H   H1329     1.0  0.50520  0.42266  0.04237  1.0000
  S   S227      1.0  0.81252  0.48653  0.05944  1.0000
  H   H1330     1.0  0.79879  0.48129  0.99768  1.0000
  H   H1331     1.0  0.95431  0.46257  0.23350  1.0000
  H   H1332     1.0  0.76290  0.34731  0.99832  1.0000
  H   H1333     1.0  0.99292  0.47813  0.20058  1.0000
  C   C1673     1.0  0.72323  0.43333  0.23534  1.0000
  C   C1674     1.0  0.84736  0.48900  0.99045  1.0000
  C   C1675     1.0  0.58918  0.48865  0.05824  1.0000
  C   C1676     1.0  0.49532  0.28865  0.00899  1.0000
  H   H1334     1.0  0.89436  0.49058  0.99061  1.0000
  C   C1677     1.0  0.69820  0.48795  0.15217  1.0000
  H   H1335     1.0  0.68080  0.48866  0.15290  1.0000
  C   C1678     1.0  0.49478  0.31107  0.00066  1.0000
  H   H1336     1.0  0.70229  0.49140  0.08759  1.0000
  H   H1337     1.0  0.61818  0.99305  0.21818  1.0000
  C   C1679     1.0  0.58764  0.99217  0.19220  1.0000
  C   C1680     1.0  0.78460  0.49089  0.00456  1.0000
  H   H1338     1.0  0.67617  0.49134  0.99262  1.0000
  H   H1339     1.0  0.91926  0.24090  0.45136  1.0000
  S   S228      1.0  0.88978  0.30942  0.43943  1.0000
  C   C1681     1.0  0.90813  0.44640  0.43216  1.0000
  H   H1340     1.0  0.85097  0.19763  0.47304  1.0000
  S   S229      1.0  0.85891  0.36886  0.41777  1.0000
  H   H1341     1.0  0.68988  0.99842  0.35734  1.0000
  S   S230      1.0  0.95123  0.30699  0.43900  1.0000
  Fe  Fe111     1.0  0.85047  0.16921  0.43762  1.0000
  S   S231      1.0  0.87480  0.14683  0.45737  1.0000
  S   S232      1.0  0.85031  0.20586  0.42720  1.0000
  Fe  Fe112     1.0  0.83203  0.13109  0.42985  1.0000
  S   S233      1.0  0.85535  0.10591  0.44870  1.0000
  S   S234      1.0  0.80473  0.11935  0.41956  1.0000
  H   H1342     1.0  0.91513  0.26092  0.41461  1.0000
  C   C1682     1.0  0.95501  0.38220  0.43004  1.0000
  Fe  Fe113     1.0  0.88034  0.12725  0.43244  1.0000
  S   S235      1.0  0.91394  0.11417  0.41847  1.0000
  S   S236      1.0  0.82255  0.15160  0.45440  1.0000
  S   S237      1.0  0.85770  0.15076  0.41139  1.0000
  C   C1683     1.0  0.95721  0.24499  0.48460  1.0000
  H   H1343     1.0  0.65825  0.11634  0.45836  1.0000
  H   H1344     1.0  0.98253  0.13598  0.39216  1.0000
  C   C1684     1.0  0.94821  0.21932  0.44234  1.0000
  C   C1685     1.0  0.97813  0.23537  0.35807  1.0000
  H   H1345     1.0  0.66653  0.18090  0.41721  1.0000
  S   S238      1.0  0.52971  0.04545  0.46204  1.0000
  C   C1686     1.0  0.73433  0.44588  0.24332  1.0000
  Fe  Fe114     1.0  0.73181  0.04464  0.33687  1.0000
  S   S239      1.0  0.69838  0.05896  0.32697  1.0000
  Fe  Fe115     1.0  0.77233  0.05923  0.34605  1.0000
  S   S240      1.0  0.78593  0.02545  0.36232  1.0000
  S   S241      1.0  0.79008  0.08818  0.34023  1.0000
  Fe  Fe116     1.0  0.75167  0.02279  0.37713  1.0000
  S   S242      1.0  0.74392  0.00469  0.41060  1.0000
  S   S243      1.0  0.73868  0.05767  0.36350  1.0000
  C   C1687     1.0  0.69090  0.08981  0.41364  1.0000
  H   H1346     1.0  0.57231  0.07212  0.24975  1.0000
  C   C1688     1.0  0.50573  0.12158  0.27629  1.0000
  Fe  Fe117     1.0  0.59680  0.01095  0.32273  1.0000
  H   H1347     1.0  0.92369  0.28747  0.31385  1.0000
  S   S244      1.0  0.52902  0.00165  0.29476  1.0000
  Fe  Fe118     1.0  0.55951  0.04768  0.32850  1.0000
  S   S245      1.0  0.53504  0.02518  0.34174  1.0000
  S   S246      1.0  0.54975  0.08372  0.32641  1.0000
  C   C1689     1.0  0.89280  0.00813  0.34964  1.0000
  C   C1690     1.0  0.52613  0.05412  0.24593  1.0000
  Fe  Fe119     1.0  0.55091  0.00808  0.31568  1.0000
  H   H1348     1.0  0.84615  0.41107  0.39258  1.0000
  S   S247      1.0  0.58454  0.02814  0.34924  1.0000
  S   S248      1.0  0.57366  0.03245  0.30090  1.0000
  C   C1691     1.0  0.62471  0.00296  0.39197  1.0000
  S   S249      1.0  0.96799  0.44339  0.32456  1.0000
  C   C1692     1.0  0.88651  0.03947  0.39699  1.0000
  H   H1349     1.0  0.66618  0.21874  0.42062  1.0000
  H   H1350     1.0  0.90762  0.04754  0.41560  1.0000
  C   C1693     1.0  0.89335  0.05313  0.40742  1.0000
  Fe  Fe120     1.0  0.94889  0.43476  0.35680  1.0000
  S   S250      1.0  0.91236  0.44157  0.36049  1.0000
  C   C1694     1.0  0.88172  0.07398  0.40745  1.0000
  S   S251      1.0  0.96750  0.45168  0.37224  1.0000
  H   H1351     1.0  0.88696  0.08451  0.41561  1.0000
  C   C1695     1.0  0.72018  0.19951  0.42207  1.0000
  H   H1352     1.0  0.68650  0.04550  0.47159  1.0000
  C   C1696     1.0  0.53281  0.09779  0.30698  1.0000
  H   H1353     1.0  0.54037  0.12900  0.30761  1.0000
  C   C1697     1.0  0.98549  0.45958  0.27182  1.0000
  C   C1698     1.0  0.68050  0.04241  0.32331  1.0000
  C   C1699     1.0  0.65800  0.04978  0.32580  1.0000
  C   C1700     1.0  0.64326  0.03726  0.32266  1.0000
  C   C1701     1.0  0.65094  0.01744  0.31656  1.0000
  C   C1702     1.0  0.67348  0.01013  0.31390  1.0000
  C   C1703     1.0  0.68822  0.02250  0.31738  1.0000
  H   H1354     1.0  0.65192  0.06529  0.33012  1.0000
  H   H1355     1.0  0.62597  0.04314  0.32461  1.0000
  H   H1356     1.0  0.97758  0.26285  0.37186  1.0000
  H   H1357     1.0  0.70555  0.01682  0.31519  1.0000
  C   C1704     1.0  0.74160  0.02136  0.42849  1.0000
  C   C1705     1.0  0.74382  0.04340  0.42128  1.0000
  C   C1706     1.0  0.73871  0.05730  0.43545  1.0000
  C   C1707     1.0  0.73216  0.04899  0.45685  1.0000
  C   C1708     1.0  0.73199  0.02663  0.46433  1.0000
  C   C1709     1.0  0.73629  0.01283  0.45011  1.0000
  H   H1358     1.0  0.74910  0.04977  0.40478  1.0000
  H   H1359     1.0  0.73997  0.07440  0.43001  1.0000
  H   H1360     1.0  0.71084  0.42469  0.24567  1.0000
  C   C1710     1.0  0.95326  0.48803  0.24994  1.0000
  C   C1711     1.0  0.53545  0.02838  0.44379  1.0000
  C   C1712     1.0  0.53342  0.03772  0.42237  1.0000
  C   C1713     1.0  0.53870  0.02480  0.40720  1.0000
  H   H1361     1.0  0.90015  0.07057  0.46130  1.0000
  C   C1714     1.0  0.93107  0.23655  0.43842  1.0000
  C   C1715     1.0  0.54214  0.00589  0.45010  1.0000
  H   H1362     1.0  0.52811  0.05508  0.41739  1.0000
  H   H1363     1.0  0.53732  0.03217  0.39066  1.0000
  Fe  Fe121     1.0  0.98933  0.41159  0.33488  1.0000
  C   C1716     1.0  0.55782  0.02729  0.23950  1.0000
  Fe  Fe122     1.0  0.87494  0.29881  0.47319  1.0000
  H   H1364     1.0  0.90778  0.34058  0.37276  1.0000
  H   H1365     1.0  0.68688  0.10488  0.38109  1.0000
  P   P58       1.0  0.85823  0.02839  0.37419  1.0000
  C   C1717     1.0  0.86802  0.04667  0.38633  1.0000
  C   C1718     1.0  0.80626  0.10781  0.39751  1.0000
  C   C1719     1.0  0.81252  0.11936  0.37699  1.0000
  C   C1720     1.0  0.80845  0.11258  0.35938  1.0000
  C   C1721     1.0  0.79839  0.09410  0.36222  1.0000
  C   C1722     1.0  0.79376  0.08159  0.38266  1.0000
  C   C1723     1.0  0.79733  0.08866  0.40028  1.0000
  H   H1366     1.0  0.81917  0.13427  0.37472  1.0000
  H   H1367     1.0  0.81218  0.12222  0.34355  1.0000
  H   H1368     1.0  0.78622  0.06718  0.38497  1.0000
  H   H1369     1.0  0.79223  0.07977  0.41610  1.0000
  H   H1370     1.0  0.69228  0.02329  0.43538  1.0000
  C   C1724     1.0  0.85615  0.37192  0.35928  1.0000
  C   C1725     1.0  0.85329  0.35428  0.33144  1.0000
  H   H1371     1.0  0.84183  0.07346  0.37886  1.0000
  P   P59       1.0  0.97880  0.21557  0.38296  1.0000
  H   H1372     1.0  0.67956  0.99483  0.30916  1.0000
  Fe  Fe123     1.0  0.91716  0.31513  0.45395  1.0000
  C   C1726     1.0  0.85645  0.06769  0.38649  1.0000
  H   H1373     1.0  0.76942  0.07547  0.45655  1.0000
  C   C1727     1.0  0.93346  0.11035  0.43570  1.0000
  C   C1728     1.0  0.95559  0.10879  0.42765  1.0000
  C   C1729     1.0  0.92712  0.10907  0.45738  1.0000
  H   H1374     1.0  0.96058  0.10890  0.41105  1.0000
  Fe  Fe124     1.0  0.56107  0.00420  0.36025  1.0000
  H   H1375     1.0  0.82634  0.06851  0.29526  1.0000
  C   C1730     1.0  0.83750  0.02986  0.33957  1.0000
  H   H1376     1.0  0.91012  0.10986  0.46376  1.0000
  C   C1731     1.0  0.85475  0.22197  0.44402  1.0000
  C   C1732     1.0  0.85875  0.24340  0.43506  1.0000
  C   C1733     1.0  0.86160  0.25706  0.44791  1.0000
  S   S252      1.0  0.74254  0.00958  0.35184  1.0000
  C   C1734     1.0  0.78515  0.04265  0.46813  1.0000
  H   H1377     1.0  0.85932  0.24959  0.41810  1.0000
  C   C1735     1.0  0.88905  0.46604  0.40221  1.0000
  C   C1736     1.0  0.96997  0.30497  0.45644  1.0000
  C   C1737     1.0  0.84852  0.04137  0.34900  1.0000
  C   C1738     1.0  0.87446  0.38894  0.40286  1.0000
  C   C1739     1.0  0.89722  0.38563  0.40144  1.0000
  C   C1740     1.0  0.90911  0.40174  0.38864  1.0000
  C   C1741     1.0  0.89828  0.42111  0.37716  1.0000
  C   C1742     1.0  0.87556  0.42440  0.37878  1.0000
  C   C1743     1.0  0.86372  0.40842  0.39158  1.0000
  H   H1378     1.0  0.90572  0.37051  0.40980  1.0000
  H   H1379     1.0  0.92660  0.39903  0.38763  1.0000
  H   H1380     1.0  0.86708  0.43928  0.36994  1.0000
  C   C1744     1.0  0.74635  0.10888  0.39062  1.0000
  C   C1745     1.0  0.74201  0.12003  0.37027  1.0000
  H   H1381     1.0  0.53260  0.08405  0.25130  1.0000
  H   H1382     1.0  0.77144  0.03504  0.46780  1.0000
  H   H1383     1.0  0.74204  0.11095  0.35829  1.0000
  H   H1384     1.0  0.78083  0.16025  0.38393  1.0000
  H   H1385     1.0  0.81357  0.17779  0.37477  1.0000
  H   H1386     1.0  0.84715  0.08854  0.31084  1.0000
  H   H1387     1.0  0.76455  0.18527  0.44098  1.0000
  H   H1388     1.0  0.93984  0.05963  0.46905  1.0000
  C   C1746     1.0  0.98935  0.44975  0.43668  1.0000
  C   C1747     1.0  0.64557  0.09401  0.42105  1.0000
  H   H1389     1.0  0.77894  0.14356  0.44955  1.0000
  C   C1748     1.0  0.65775  0.08351  0.43784  1.0000
  C   C1749     1.0  0.98083  0.26581  0.31908  1.0000
  C   C1750     1.0  0.89000  0.45027  0.42119  1.0000
  H   H1390     1.0  0.98485  0.48497  0.28814  1.0000
  H   H1391     1.0  0.93027  0.33021  0.40181  1.0000
  H   H1392     1.0  0.94895  0.41885  0.47905  1.0000
  C   C1751     1.0  0.92508  0.45876  0.42397  1.0000
  H   H1393     1.0  0.89557  0.02326  0.39751  1.0000
  C   C1752     1.0  0.94067  0.40113  0.43275  1.0000
  C   C1753     1.0  0.60381  0.07314  0.45331  1.0000
  C   C1754     1.0  0.51792  0.13229  0.28526  1.0000
  C   C1755     1.0  0.76431  0.13696  0.45702  1.0000
  H   H1394     1.0  0.93927  0.45586  0.43209  1.0000
  C   C1756     1.0  0.86326  0.08125  0.39704  1.0000
  H   H1395     1.0  0.82640  0.36323  0.35434  1.0000
  H   H1396     1.0  0.93811  0.41426  0.41899  1.0000
  C   C1757     1.0  0.80725  0.19203  0.40209  1.0000
  H   H1397     1.0  0.88991  0.02238  0.33694  1.0000
  H   H1398     1.0  0.94572  0.13914  0.38167  1.0000
  H   H1399     1.0  0.51707  0.14981  0.28027  1.0000
  H   H1400     1.0  0.93937  0.48878  0.30680  1.0000
  C   C1758     1.0  0.90964  0.18520  0.44732  1.0000
  C   C1759     1.0  0.97821  0.25744  0.35739  1.0000
  H   H1401     1.0  0.50059  0.04079  0.28747  1.0000
  C   C1760     1.0  0.96314  0.30405  0.47800  1.0000
  H   H1402     1.0  0.58863  0.03653  0.24157  1.0000
  C   C1761     1.0  0.64135  0.00034  0.37525  1.0000
  H   H1403     1.0  0.73525  0.99565  0.45583  1.0000
  C   C1762     1.0  0.83547  0.01762  0.39164  1.0000
  H   H1404     1.0  0.96871  0.33625  0.39516  1.0000
  C   C1763     1.0  0.85269  0.06232  0.33808  1.0000
  C   C1764     1.0  0.79906  0.00185  0.41735  1.0000
  C   C1765     1.0  0.80361  0.02219  0.41776  1.0000
  S   S253      1.0  0.85775  0.33255  0.47581  1.0000
  S   S254      1.0  0.63282  0.00114  0.31279  1.0000
  H   H1405     1.0  0.98151  0.22230  0.47043  1.0000
  C   C1766     1.0  0.84475  0.07203  0.31873  1.0000
  H   H1406     1.0  0.98208  0.23851  0.30491  1.0000
  C   C1767     1.0  0.83065  0.99714  0.39132  1.0000
  H   H1407     1.0  0.70847  0.08827  0.41080  1.0000
  C   C1768     1.0  0.53956  0.06809  0.24842  1.0000
  C   C1769     1.0  0.58789  0.01150  0.46589  1.0000
  C   C1770     1.0  0.79338  0.19413  0.42069  1.0000
  C   C1771     1.0  0.82969  0.03955  0.32018  1.0000
  H   H1408     1.0  0.94886  0.25134  0.47071  1.0000
  C   C1772     1.0  0.68304  0.02886  0.42204  1.0000
  C   C1773     1.0  0.69209  0.04142  0.40319  1.0000
  C   C1774     1.0  0.68065  0.04830  0.38570  1.0000
  C   C1775     1.0  0.66015  0.04254  0.38697  1.0000
  C   C1776     1.0  0.65079  0.02996  0.40590  1.0000
  C   C1777     1.0  0.66240  0.02322  0.42350  1.0000
  P   P60       1.0  0.62396  0.02312  0.40731  1.0000
  C   C1778     1.0  0.60563  0.04762  0.39762  1.0000
  C   C1779     1.0  0.82078  0.06175  0.47004  1.0000
  H   H1409     1.0  0.98764  0.48396  0.42199  1.0000
  H   H1410     1.0  0.96850  0.28207  0.40309  1.0000
  C   C1780     1.0  0.97934  0.39829  0.28291  1.0000
  C   C1781     1.0  0.56961  0.09092  0.46866  1.0000
  C   C1782     1.0  0.85663  0.22789  0.47888  1.0000
  C   C1783     1.0  0.58586  0.04607  0.39156  1.0000
  C   C1784     1.0  0.57213  0.06490  0.38293  1.0000
  C   C1785     1.0  0.57777  0.08545  0.38085  1.0000
  C   C1786     1.0  0.59701  0.08721  0.38771  1.0000
  C   C1787     1.0  0.61086  0.06838  0.39613  1.0000
  C   C1788     1.0  0.61382  0.01080  0.43414  1.0000
  C   C1789     1.0  0.59590  0.02152  0.44535  1.0000
  C   C1790     1.0  0.98154  0.37596  0.25715  1.0000
  P   P61       1.0  0.64455  0.07363  0.46447  1.0000
  H   H1411     1.0  0.61256  0.06309  0.44256  1.0000
  C   C1791     1.0  0.64236  0.00803  0.48696  1.0000
  H   H1412     1.0  0.70810  0.04562  0.40206  1.0000
  H   H1413     1.0  0.68781  0.05793  0.37104  1.0000
  H   H1414     1.0  0.65158  0.04799  0.37313  1.0000
  H   H1415     1.0  0.65575  0.01366  0.43836  1.0000
  H   H1416     1.0  0.73065  0.44686  0.25984  1.0000
  H   H1417     1.0  0.57420  0.02008  0.47445  1.0000
  C   C1792     1.0  0.94745  0.36610  0.46741  1.0000
  H   H1418     1.0  0.87549  0.46826  0.39331  1.0000
  C   C1793     1.0  0.95638  0.05399  0.46284  1.0000
  H   H1419     1.0  0.58132  0.03027  0.39301  1.0000
  H   H1420     1.0  0.55736  0.06360  0.37725  1.0000
  H   H1421     1.0  0.56732  0.09993  0.37363  1.0000
  H   H1422     1.0  0.60140  0.10317  0.38604  1.0000
  H   H1423     1.0  0.62576  0.07009  0.40110  1.0000
  H   H1424     1.0  0.58778  0.03742  0.43822  1.0000
  H   H1425     1.0  0.79763  0.20288  0.43126  1.0000
  C   C1794     1.0  0.87726  0.04797  0.47375  1.0000
  H   H1426     1.0  0.98342  0.43774  0.25221  1.0000
  H   H1427     1.0  0.69676  0.00579  0.48367  1.0000
  C   C1795     1.0  0.96291  0.21333  0.42553  1.0000
  C   C1796     1.0  0.98449  0.27559  0.40791  1.0000
  H   H1428     1.0  0.87776  0.04387  0.45859  1.0000
  C   C1797     1.0  0.96482  0.10653  0.46263  1.0000
  C   C1798     1.0  0.97332  0.05214  0.47471  1.0000
  S   S255      1.0  0.96881  0.40197  0.36603  1.0000
  H   H1429     1.0  0.83408  0.06958  0.47125  1.0000
  H   H1430     1.0  0.88499  0.40130  0.44079  1.0000
  H   H1431     1.0  0.73688  0.17207  0.37619  1.0000
  C   C1799     1.0  0.90457  0.45875  0.47942  1.0000
  C   C1800     1.0  0.97122  0.10754  0.44098  1.0000
  H   H1432     1.0  0.57235  0.07261  0.44469  1.0000
  C   C1801     1.0  0.96093  0.04946  0.44265  1.0000
  H   H1433     1.0  0.65347  0.01101  0.37030  1.0000
  H   H1434     1.0  0.97270  0.41297  0.28860  1.0000
  C   C1802     1.0  0.96095  0.22489  0.40461  1.0000
  H   H1435     1.0  0.92620  0.17540  0.41892  1.0000
  H   H1436     1.0  0.86192  0.07129  0.34440  1.0000
  H   H1437     1.0  0.89559  0.19426  0.43986  1.0000
  C   C1803     1.0  0.97702  0.45329  0.25633  1.0000
  C   C1804     1.0  0.94846  0.19308  0.37523  1.0000
  C   C1805     1.0  0.80189  0.07478  0.46297  1.0000
  C   C1806     1.0  0.87560  0.35383  0.32469  1.0000
  C   C1807     1.0  0.88848  0.36176  0.33569  1.0000
  C   C1808     1.0  0.87842  0.37165  0.35247  1.0000
  P   P62       1.0  0.91726  0.36133  0.32706  1.0000
  C   C1809     1.0  0.93294  0.35434  0.34906  1.0000
  C   C1810     1.0  0.92791  0.34018  0.31257  1.0000
  C   C1811     1.0  0.92138  0.31952  0.31985  1.0000
  H   H1438     1.0  0.98548  0.48900  0.37044  1.0000
  C   C1812     1.0  0.70098  0.17145  0.41857  1.0000
  C   C1813     1.0  0.95094  0.32758  0.28297  1.0000
  C   C1814     1.0  0.94341  0.34378  0.29453  1.0000
  C   C1815     1.0  0.95479  0.35752  0.34536  1.0000
  H   H1439     1.0  0.98209  0.27754  0.30404  1.0000
  H   H1440     1.0  0.61912  0.03673  0.47995  1.0000
  C   C1816     1.0  0.93717  0.33771  0.38600  1.0000
  C   C1817     1.0  0.92433  0.34398  0.36945  1.0000
  C   C1818     1.0  0.91983  0.38829  0.31101  1.0000
  C   C1819     1.0  0.91662  0.39354  0.28953  1.0000
  C   C1820     1.0  0.91784  0.41464  0.27729  1.0000
  C   C1821     1.0  0.92154  0.43084  0.28657  1.0000
  C   C1822     1.0  0.92382  0.42597  0.30813  1.0000
  C   C1823     1.0  0.92313  0.40476  0.32032  1.0000
  H   H1441     1.0  0.88271  0.34732  0.31089  1.0000
  H   H1442     1.0  0.88781  0.37891  0.36049  1.0000
  H   H1443     1.0  0.95792  0.15374  0.43600  1.0000
  C   C1824     1.0  0.94013  0.17430  0.37523  1.0000
  C   C1825     1.0  0.78409  0.06527  0.46189  1.0000
  H   H1444     1.0  0.96234  0.33085  0.26861  1.0000
  H   H1445     1.0  0.94962  0.35912  0.28925  1.0000
  H   H1446     1.0  0.86413  0.27367  0.44083  1.0000
  H   H1447     1.0  0.98819  0.10725  0.43457  1.0000
  C   C1826     1.0  0.97783  0.48012  0.27638  1.0000
  H   H1448     1.0  0.91325  0.38135  0.28215  1.0000
  H   H1449     1.0  0.91597  0.41846  0.26057  1.0000
  H   H1450     1.0  0.92243  0.44720  0.27709  1.0000
  H   H1451     1.0  0.92589  0.43871  0.31550  1.0000
  H   H1452     1.0  0.92476  0.40141  0.33705  1.0000
  C   C1827     1.0  0.95236  0.15371  0.38131  1.0000
  H   H1453     1.0  0.94785  0.05164  0.43319  1.0000
  C   C1828     1.0  0.95885  0.34110  0.38223  1.0000
  H   H1454     1.0  0.97937  0.28969  0.33758  1.0000
  C   C1829     1.0  0.97339  0.39532  0.26411  1.0000
  H   H1455     1.0  0.70081  0.15508  0.41684  1.0000
  C   C1830     1.0  0.68053  0.08202  0.43397  1.0000
  H   H1456     1.0  0.96348  0.38101  0.41446  1.0000
  C   C1831     1.0  0.68129  0.20739  0.42056  1.0000
  Fe  Fe125     1.0  0.87516  0.34335  0.44300  1.0000
  C   C1832     1.0  0.87977  0.00647  0.36942  1.0000
  H   H1457     1.0  0.87671  0.44100  0.42685  1.0000
  C   C1833     1.0  0.74778  0.12037  0.40581  1.0000
  P   P63       1.0  0.74558  0.15868  0.42011  1.0000
  H   H1458     1.0  0.80088  0.09232  0.45881  1.0000
  S   S256      1.0  0.76459  0.04912  0.31799  1.0000
  H   H1459     1.0  0.94954  0.35224  0.48064  1.0000
  C   C1834     1.0  0.87655  0.40389  0.45600  1.0000
  H   H1460     1.0  0.94983  0.21008  0.45832  1.0000
  C   C1835     1.0  0.58114  0.07840  0.45451  1.0000
  C   C1836     1.0  0.85402  0.21413  0.46598  1.0000
  H   H1461     1.0  0.74956  0.09124  0.39425  1.0000
  Fe  Fe126     1.0  0.98861  0.45746  0.34096  1.0000
  H   H1462     1.0  0.62803  0.09670  0.42348  1.0000
  H   H1463     1.0  0.97840  0.44681  0.42698  1.0000
  H   H1464     1.0  0.49963  0.01990  0.38145  1.0000
  H   H1465     1.0  0.97170  0.25916  0.43883  1.0000
  C   C1837     1.0  0.67995  0.01275  0.48215  1.0000
  C   C1838     1.0  0.97960  0.22862  0.33900  1.0000
  C   C1839     1.0  0.96914  0.19133  0.38131  1.0000
  H   H1466     1.0  0.50411  0.99891  0.34119  1.0000
  C   C1840     1.0  0.84925  0.99822  0.45663  1.0000
  H   H1467     1.0  0.96214  0.40772  0.25528  1.0000
  H   H1468     1.0  0.78508  0.99568  0.42725  1.0000
  C   C1841     1.0  0.95860  0.36482  0.44735  1.0000
  C   C1842     1.0  0.85923  0.00345  0.47192  1.0000
  H   H1469     1.0  0.95877  0.15004  0.47409  1.0000
  H   H1470     1.0  0.69040  0.07524  0.44666  1.0000
  C   C1843     1.0  0.74414  0.14326  0.40084  1.0000
  C   C1844     1.0  0.61519  0.08066  0.46605  1.0000
  H   H1471     1.0  0.82061  0.03074  0.31339  1.0000
  C   C1845     1.0  0.96772  0.35078  0.36185  1.0000
  Fe  Fe127     1.0  0.77594  0.01499  0.33572  1.0000
  H   H1472     1.0  0.70054  0.23067  0.42352  1.0000
  H   H1473     1.0  0.89603  0.19090  0.47803  1.0000
  C   C1846     1.0  0.97294  0.15189  0.38738  1.0000
  C   C1847     1.0  0.94346  0.24195  0.40073  1.0000
  H   H1474     1.0  0.98015  0.21157  0.33905  1.0000
  C   C1848     1.0  0.73941  0.15440  0.38042  1.0000
  H   H1475     1.0  0.52230  0.06931  0.30250  1.0000
  C   C1849     1.0  0.94360  0.30741  0.28974  1.0000
  C   C1850     1.0  0.52081  0.08690  0.29794  1.0000
  C   C1851     1.0  0.94285  0.10663  0.47088  1.0000
  C   C1852     1.0  0.50687  0.09885  0.28295  1.0000
  C   C1853     1.0  0.98086  0.24383  0.31959  1.0000
  H   H1476     1.0  0.92399  0.17561  0.37094  1.0000
  C   C1854     1.0  0.93295  0.38490  0.47020  1.0000
  C   C1855     1.0  0.67871  0.09928  0.39692  1.0000
  H   H1477     1.0  0.94926  0.29501  0.28058  1.0000
  C   C1856     1.0  0.92910  0.30324  0.30838  1.0000
  C   C1857     1.0  0.92800  0.17121  0.47879  1.0000
  C   C1858     1.0  0.72053  0.17796  0.42042  1.0000
  C   C1859     1.0  0.65969  0.10762  0.47456  1.0000
  H   H1478     1.0  0.73485  0.20530  0.42310  1.0000
  C   C1860     1.0  0.98116  0.17057  0.38770  1.0000
  H   H1479     1.0  0.85139  0.38561  0.45541  1.0000
  H   H1480     1.0  0.82207  0.19924  0.39827  1.0000
  C   C1861     1.0  0.99396  0.38217  0.29425  1.0000
  C   C1862     1.0  0.92873  0.24787  0.41762  1.0000
  C   C1863     1.0  0.65604  0.10154  0.40066  1.0000
  C   C1864     1.0  0.77464  0.18420  0.42607  1.0000
  C   C1865     1.0  0.91003  0.18333  0.46895  1.0000
  C   C1866     1.0  0.85755  0.39487  0.46428  1.0000
  C   C1867     1.0  0.70063  0.21410  0.42221  1.0000
  H   H1481     1.0  0.88934  0.46462  0.47285  1.0000
  H   H1482     1.0  0.91014  0.31610  0.33427  1.0000
  C   C1868     1.0  0.94527  0.16050  0.46675  1.0000
  C   C1869     1.0  0.92404  0.47457  0.40501  1.0000
  H   H1483     1.0  0.96188  0.36511  0.32968  1.0000
  C   C1870     1.0  0.91799  0.43991  0.47470  1.0000
  H   H1484     1.0  0.50816  0.08721  0.47401  1.0000
  H   H1485     1.0  0.71364  0.13295  0.44840  1.0000
  S   S257      1.0  0.90404  0.34989  0.45442  1.0000
  Fe  Fe128     1.0  0.98937  0.41957  0.37855  1.0000
  C   C1871     1.0  0.93797  0.43294  0.48287  1.0000
  H   H1486     1.0  0.49750  0.09044  0.27617  1.0000
  H   H1487     1.0  0.93860  0.20890  0.37091  1.0000
  H   H1488     1.0  0.82481  0.04582  0.40579  1.0000
  H   H1489     1.0  0.93746  0.48359  0.39843  1.0000
  H   H1490     1.0  0.84862  0.37885  0.37276  1.0000
  C   C1872     1.0  0.54625  0.00251  0.41336  1.0000
  C   C1873     1.0  0.82181  0.03000  0.40510  1.0000
  C   C1874     1.0  0.80242  0.18003  0.38882  1.0000
  H   H1491     1.0  0.84349  0.34777  0.32316  1.0000
  C   C1875     1.0  0.72773  0.13095  0.45640  1.0000
  H   H1492     1.0  0.79291  0.03197  0.42777  1.0000
  C   C1876     1.0  0.94479  0.16239  0.44512  1.0000
  C   C1877     1.0  0.53112  0.12051  0.30073  1.0000
  C   C1878     1.0  0.90607  0.47810  0.39407  1.0000
  H   H1493     1.0  0.97553  0.19932  0.42885  1.0000
  H   H1494     1.0  0.75228  0.11136  0.42115  1.0000
  C   C1879     1.0  0.63627  0.03047  0.47970  1.0000
  H   H1495     1.0  0.55201  0.09461  0.46983  1.0000
  C   C1880     1.0  0.73849  0.14281  0.36517  1.0000
  C   C1881     1.0  0.78362  0.17021  0.39405  1.0000
  H   H1496     1.0  0.73550  0.15141  0.34925  1.0000
  H   H1497     1.0  0.94070  0.25033  0.38473  1.0000
  C   C1882     1.0  0.99203  0.30425  0.44866  1.0000
  Fe  Fe129     1.0  0.84754  0.12745  0.47196  1.0000
  H   H1498     1.0  0.64659  0.10913  0.38768  1.0000
  C   C1883     1.0  0.92693  0.17462  0.43545  1.0000
  C   C1884     1.0  0.83308  0.06074  0.30989  1.0000
  C   C1885     1.0  0.84362  0.36309  0.34889  1.0000
  H   H1499     1.0  0.85408  0.09734  0.39735  1.0000
  H   H1500     1.0  0.94615  0.30552  0.48399  1.0000
  H   H1501     1.0  0.96976  0.35024  0.44511  1.0000
  C   C1886     1.0  0.92965  0.40268  0.45294  1.0000
  C   C1887     1.0  0.88481  0.41573  0.46744  1.0000
  P   P64       1.0  0.90999  0.42628  0.45680  1.0000
  H   H1502     1.0  0.92394  0.38539  0.48571  1.0000
  H   H1503     1.0  0.98452  0.35347  0.35881  1.0000
  C   C1888     1.0  0.57113  0.04120  0.24274  1.0000
  C   C1889     1.0  0.98240  0.04272  0.43446  1.0000
  C   C1890     1.0  0.98627  0.26273  0.42824  1.0000
  C   C1891     1.0  0.76945  0.17227  0.41270  1.0000
  C   C1892     1.0  0.97551  0.22882  0.48446  1.0000
  C   C1893     1.0  0.74589  0.14104  0.44639  1.0000
  S   S258      1.0  0.72446  0.06659  0.47419  1.0000
  C   C1894     1.0  0.97939  0.27264  0.33799  1.0000
  C   C1895     1.0  0.68148  0.18608  0.41868  1.0000
  C   C1896     1.0  0.53515  0.03372  0.24155  1.0000
  H   H1504     1.0  0.78321  0.99171  0.46485  1.0000
  H   H1505     1.0  0.98575  0.03959  0.41864  1.0000
  C   C1897     1.0  0.86020  0.24948  0.46992  1.0000
  C   C1898     1.0  0.56201  0.06149  0.24720  1.0000
  S   S259      1.0  0.98400  0.10569  0.47944  1.0000
  H   H1506     1.0  0.52434  0.02320  0.23982  1.0000
  C   C1899     1.0  0.88994  0.06313  0.47521  1.0000
  H   H1507     1.0  0.50867  0.05919  0.24739  1.0000
  H   H1508     1.0  0.83286  0.00546  0.45368  1.0000
  C   C1900     1.0  0.96074  0.46739  0.24561  1.0000
  H   H1509     1.0  0.83463  0.01343  0.34721  1.0000
  H   H1510     1.0  0.54350  0.99849  0.46660  1.0000
  H   H1511     1.0  0.80385  0.01230  0.48143  1.0000
  H   H1512     1.0  0.93229  0.48786  0.34498  1.0000
  C   C1901     1.0  0.84690  0.39713  0.48425  1.0000
  C   C1902     1.0  0.65215  0.04434  0.47319  1.0000
  C   C1903     1.0  0.67402  0.03527  0.47502  1.0000
  H   H1513     1.0  0.69968  0.00175  0.39114  1.0000
  C   C1904     1.0  0.82184  0.03905  0.47639  1.0000
  C   C1905     1.0  0.80374  0.02967  0.47567  1.0000
  H   H1514     1.0  0.90558  0.48968  0.37895  1.0000
  H   H1515     1.0  0.72832  0.02000  0.48103  1.0000
  C   C1906     1.0  0.76431  0.12369  0.47742  1.0000
  C   C1907     1.0  0.60341  0.09309  0.48038  1.0000
  C   C1908     1.0  0.58072  0.09816  0.48166  1.0000
  H   H1516     1.0  0.67174  0.13373  0.48224  1.0000
  C   C1909     1.0  0.72790  0.11750  0.47675  1.0000
  C   C1910     1.0  0.65435  0.08645  0.48192  1.0000
  S   S260      1.0  0.90367  0.30209  0.48761  1.0000
  S   S261      1.0  0.86201  0.26676  0.48670  1.0000
  Fe  Fe130     1.0  0.88818  0.33673  0.48706  1.0000
  C   C1911     1.0  0.54755  0.99299  0.43489  1.0000
  C   C1912     1.0  0.88050  0.99321  0.47529  1.0000
  H   H1517     1.0  0.77856  0.12081  0.48547  1.0000
  H   H1518     1.0  0.71417  0.10924  0.48419  1.0000
  C   C1913     1.0  0.59348  0.99168  0.24569  1.0000
  H   H1519     1.0  0.91940  0.99246  0.33065  1.0000
  C   C1914     1.0  0.74617  0.11385  0.48727  1.0000
  H   H1520     1.0  0.92273  0.21408  0.48667  1.0000
  H   H1521     1.0  0.88839  0.99674  0.48721  1.0000
  H   H1522     1.0  0.93791  0.10531  0.48762  1.0000
  C   C1915     1.0  0.87820  0.43380  0.66816  1.0000
  H   H1523     1.0  0.83259  0.38947  0.49087  1.0000
  S   S262      1.0  0.88755  0.35720  0.51096  1.0000
  H   H1524     1.0  0.98054  0.12720  0.55609  1.0000
  C   C1916     1.0  0.97817  0.13882  0.54126  1.0000
  C   C1917     1.0  0.89010  0.45827  0.73019  1.0000
  C   C1918     1.0  0.88166  0.36605  0.59239  1.0000
  S   S263      1.0  0.54346  0.01686  0.55621  1.0000
  Fe  Fe131     1.0  0.74687  0.04656  0.54627  1.0000
  S   S264      1.0  0.73066  0.01825  0.56573  1.0000
  S   S265      1.0  0.76918  0.06107  0.56042  1.0000
  S   S266      1.0  0.70962  0.01914  0.52281  1.0000
  Fe  Fe132     1.0  0.70098  0.03540  0.55028  1.0000
  S   S267      1.0  0.66605  0.03980  0.56581  1.0000
  H   H1525     1.0  0.49855  0.02584  0.63795  1.0000
  H   H1526     1.0  0.96730  0.48852  0.63842  1.0000
  S   S268      1.0  0.75903  0.03138  0.51849  1.0000
  C   C1919     1.0  0.95090  0.46535  0.69957  1.0000
  H   H1527     1.0  0.53865  0.10721  0.65575  1.0000
  C   C1920     1.0  0.94956  0.25316  0.50276  1.0000
  C   C1921     1.0  0.91074  0.47011  0.49259  1.0000
  C   C1922     1.0  0.95934  0.46995  0.55703  1.0000
  H   H1528     1.0  0.88533  0.24372  0.53575  1.0000
  H   H1529     1.0  0.60042  0.09641  0.67841  1.0000
  H   H1530     1.0  0.97078  0.43515  0.66691  1.0000
  H   H1531     1.0  0.50454  0.03991  0.57415  1.0000
  C   C1923     1.0  0.51974  0.04996  0.63191  1.0000
  C   C1924     1.0  0.78990  0.07504  0.54443  1.0000
  H   H1532     1.0  0.51228  0.02051  0.69487  1.0000
  Fe  Fe133     1.0  0.97923  0.41807  0.56193  1.0000
  H   H1533     1.0  0.95562  0.38150  0.69812  1.0000
  H   H1534     1.0  0.59311  0.03702  0.59460  1.0000
  H   H1535     1.0  0.61160  0.09875  0.49073  1.0000
  Fe  Fe134     1.0  0.56817  0.01357  0.52785  1.0000
  H   H1536     1.0  0.79352  0.01552  0.55428  1.0000
  H   H1537     1.0  0.79540  0.41252  0.64104  1.0000
  H   H1538     1.0  0.90025  0.48452  0.49631  1.0000
  S   S269      1.0  0.60214  0.99577  0.53097  1.0000
  C   C1925     1.0  0.89159  0.37994  0.64819  1.0000
  H   H1539     1.0  0.56479  0.00127  0.64864  1.0000
  C   C1926     1.0  0.66719  0.11761  0.48808  1.0000
  C   C1927     1.0  0.54076  0.05401  0.63226  1.0000
  C   C1928     1.0  0.80525  0.00661  0.54412  1.0000
  C   C1929     1.0  0.90447  0.23097  0.50988  1.0000
  P   P65       1.0  0.99275  0.21978  0.54389  1.0000
  H   H1540     1.0  0.97571  0.34612  0.50692  1.0000
  H   H1541     1.0  0.52731  0.99464  0.64842  1.0000
  C   C1930     1.0  0.64886  0.02838  0.55454  1.0000
  C   C1931     1.0  0.62737  0.03868  0.55275  1.0000
  H   H1542     1.0  0.55826  0.05620  0.68787  1.0000
  H   H1543     1.0  0.62187  0.05389  0.55771  1.0000
  H   H1544     1.0  0.80248  0.07813  0.57186  1.0000
  S   S270      1.0  0.71620  0.06517  0.53374  1.0000
  C   C1932     1.0  0.90986  0.35396  0.52501  1.0000
  C   C1933     1.0  0.91300  0.37150  0.53289  1.0000
  C   C1934     1.0  0.92860  0.36867  0.54671  1.0000
  C   C1935     1.0  0.94082  0.34812  0.55306  1.0000
  C   C1936     1.0  0.93828  0.33078  0.54455  1.0000
  C   C1937     1.0  0.92307  0.33376  0.53029  1.0000
  H   H1545     1.0  0.90292  0.38717  0.52864  1.0000
  H   H1546     1.0  0.93053  0.38210  0.55317  1.0000
  Fe  Fe135     1.0  0.52231  0.00401  0.53958  1.0000
  H   H1547     1.0  0.92073  0.32015  0.52432  1.0000
  H   H1548     1.0  0.88080  0.42550  0.49745  1.0000
  H   H1549     1.0  0.98760  0.29657  0.54752  1.0000
  H   H1550     1.0  0.87462  0.38599  0.65233  1.0000
  H   H1551     1.0  0.85591  0.43020  0.60679  1.0000
  C   C1938     1.0  0.59925  0.08053  0.65331  1.0000
  Fe  Fe136     1.0  0.74069  0.00430  0.53669  1.0000
  C   C1939     1.0  0.92612  0.42427  0.71798  1.0000
  C   C1940     1.0  0.99334  0.18128  0.57515  1.0000
  H   H1552     1.0  0.86850  0.42135  0.66874  1.0000
  H   H1553     1.0  0.63010  0.99754  0.49259  1.0000
  C   C1941     1.0  0.90555  0.37519  0.66375  1.0000
  C   C1942     1.0  0.93590  0.36524  0.63826  1.0000
  C   C1943     1.0  0.65616  0.07565  0.50310  1.0000
  C   C1944     1.0  0.98596  0.35874  0.50138  1.0000
  C   C1945     1.0  0.87471  0.06071  0.51198  1.0000
  C   C1946     1.0  0.51760  0.04189  0.72737  1.0000
  H   H1554     1.0  0.87306  0.06629  0.52655  1.0000
  H   H1555     1.0  0.96506  0.38129  0.51826  1.0000
  C   C1947     1.0  0.91504  0.21232  0.50284  1.0000
  C   C1948     1.0  0.51489  0.02869  0.63812  1.0000
  H   H1556     1.0  0.50373  0.10166  0.50655  1.0000
  C   C1949     1.0  0.58631  0.07695  0.63957  1.0000
  H   H1557     1.0  0.95806  0.44845  0.70107  1.0000
  H   H1558     1.0  0.89932  0.37746  0.67961  1.0000
  H   H1559     1.0  0.91570  0.45436  0.59035  1.0000
  C   C1950     1.0  0.86208  0.04548  0.51061  1.0000
  C   C1951     1.0  0.98438  0.16342  0.58821  1.0000
  H   H1560     1.0  0.57167  0.10752  0.49291  1.0000
  H   H1561     1.0  0.98941  0.44614  0.61849  1.0000
  C   C1952     1.0  0.95284  0.38413  0.73054  1.0000
  C   C1953     1.0  0.56273  0.08256  0.59634  1.0000
  Fe  Fe137     1.0  0.53131  0.04955  0.53639  1.0000
  Fe  Fe138     1.0  0.53595  0.03254  0.49615  1.0000
  C   C1954     1.0  0.82292  0.09871  0.52087  1.0000
  C   C1955     1.0  0.86322  0.03900  0.49146  1.0000
  C   C1956     1.0  0.62005  0.00900  0.53932  1.0000
  C   C1957     1.0  0.55210  0.01493  0.64439  1.0000
  S   S271      1.0  0.50837  0.03688  0.52182  1.0000
  C   C1958     1.0  0.55042  0.04886  0.70331  1.0000
  C   C1959     1.0  0.99036  0.26288  0.54645  1.0000
  H   H1562     1.0  0.94366  0.13935  0.54576  1.0000
  P   P66       1.0  0.88285  0.38691  0.60632  1.0000
  C   C1960     1.0  0.88856  0.06961  0.49430  1.0000
  H   H1563     1.0  0.85397  0.35773  0.55531  1.0000
  C   C1961     1.0  0.66416  0.99914  0.48800  1.0000
  C   C1962     1.0  0.49812  0.07468  0.57106  1.0000
  H   H1564     1.0  0.88338  0.42258  0.70091  1.0000
  C   C1963     1.0  0.89527  0.46484  0.64835  1.0000
  C   C1964     1.0  0.96019  0.24537  0.52075  1.0000
  H   H1565     1.0  0.98871  0.40973  0.50613  1.0000
  C   C1965     1.0  0.98243  0.40367  0.65949  1.0000
  H   H1566     1.0  0.97465  0.25213  0.60741  1.0000
  H   H1567     1.0  0.90584  0.31520  0.58619  1.0000
  H   H1568     1.0  0.90143  0.42237  0.61408  1.0000
  C   C1966     1.0  0.97926  0.25504  0.59039  1.0000
  C   C1967     1.0  0.85518  0.39537  0.61723  1.0000
  C   C1968     1.0  0.59330  0.01966  0.59675  1.0000
  C   C1969     1.0  0.96321  0.16081  0.58683  1.0000
  C   C1970     1.0  0.84639  0.41756  0.61516  1.0000
  S   S272      1.0  0.55836  0.04765  0.50947  1.0000
  H   H1569     1.0  0.97305  0.29996  0.50873  1.0000
  H   H1570     1.0  0.74645  0.10305  0.50286  1.0000
  C   C1971     1.0  0.50140  0.13262  0.60007  1.0000
  H   H1571     1.0  0.95942  0.43899  0.50239  1.0000
  H   H1572     1.0  0.95023  0.20527  0.54790  1.0000
  C   C1972     1.0  0.55693  0.03624  0.63855  1.0000
  H   H1573     1.0  0.51794  0.06095  0.69529  1.0000
  H   H1574     1.0  0.86241  0.45623  0.71557  1.0000
  C   C1973     1.0  0.89449  0.33032  0.58429  1.0000
  H   H1575     1.0  0.49926  0.14458  0.58538  1.0000
  C   C1974     1.0  0.57945  0.09539  0.58921  1.0000
  C   C1975     1.0  0.99295  0.16173  0.50888  1.0000
  C   C1976     1.0  0.98123  0.19654  0.56042  1.0000
  H   H1576     1.0  0.81814  0.44082  0.62204  1.0000
  C   C1977     1.0  0.85524  0.40848  0.49597  1.0000
  H   H1577     1.0  0.75987  0.99650  0.49795  1.0000
  C   C1978     1.0  0.50647  0.10115  0.63764  1.0000
  H   H1578     1.0  0.87913  0.32284  0.56055  1.0000
  C   C1979     1.0  0.99320  0.41562  0.68826  1.0000
  H   H1579     1.0  0.98200  0.47643  0.69401  1.0000
  C   C1980     1.0  0.88254  0.44893  0.64918  1.0000
  H   H1580     1.0  0.89769  0.08200  0.49525  1.0000
  H   H1581     1.0  0.88628  0.20735  0.56059  1.0000
  Fe  Fe139     1.0  0.97304  0.37081  0.57740  1.0000
  H   H1582     1.0  0.81077  0.09571  0.49330  1.0000
  H   H1583     1.0  0.50707  0.06307  0.62644  1.0000
  C   C1981     1.0  0.61300  0.02910  0.54498  1.0000
  C   C1982     1.0  0.89356  0.41015  0.58868  1.0000
  S   S273      1.0  0.51757  0.07995  0.54861  1.0000
  C   C1983     1.0  0.81749  0.01801  0.52656  1.0000
  C   C1984     1.0  0.98648  0.22124  0.50232  1.0000
  H   H1584     1.0  0.91577  0.09041  0.53206  1.0000
  Fe  Fe140     1.0  0.97843  0.39727  0.60882  1.0000
  C   C1985     1.0  0.53714  0.99268  0.69444  1.0000
  C   C1986     1.0  0.65602  0.00857  0.54833  1.0000
  H   H1585     1.0  0.58362  0.10473  0.59924  1.0000
  H   H1586     1.0  0.93834  0.11955  0.51743  1.0000
  C   C1987     1.0  0.66360  0.08576  0.51656  1.0000
  C   C1988     1.0  0.59081  0.09651  0.56880  1.0000
  C   C1989     1.0  0.84221  0.37947  0.62805  1.0000
  C   C1990     1.0  0.58527  0.08523  0.55525  1.0000
  C   C1991     1.0  0.86618  0.36992  0.57825  1.0000
  H   H1587     1.0  0.50813  0.08892  0.65219  1.0000
  C   C1992     1.0  0.92772  0.36799  0.65874  1.0000
  H   H1588     1.0  0.90492  0.17418  0.54828  1.0000
  C   C1993     1.0  0.55541  0.09938  0.65495  1.0000
  H   H1589     1.0  0.95371  0.25179  0.53472  1.0000
  C   C1994     1.0  0.90276  0.43172  0.55321  1.0000
  H   H1590     1.0  0.93870  0.36489  0.67057  1.0000
  C   C1995     1.0  0.90822  0.10735  0.52977  1.0000
  C   C1996     1.0  0.82074  0.38565  0.63662  1.0000
  H   H1591     1.0  0.93541  0.26567  0.50289  1.0000
  S   S274      1.0  0.95778  0.34313  0.57308  1.0000
  C   C1997     1.0  0.59031  0.09346  0.66790  1.0000
  C   C1998     1.0  0.56300  0.03672  0.71909  1.0000
  C   C1999     1.0  0.88653  0.43462  0.68637  1.0000
  C   C2000     1.0  0.56420  0.08624  0.64030  1.0000
  H   H1592     1.0  0.60389  0.10618  0.56343  1.0000
  C   C2001     1.0  0.52041  0.11728  0.60159  1.0000
  C   C2002     1.0  0.88849  0.15106  0.52231  1.0000
  H   H1593     1.0  0.67248  0.00036  0.54995  1.0000
  H   H1594     1.0  0.85111  0.03935  0.52439  1.0000
  C   C2003     1.0  0.88569  0.11263  0.53448  1.0000
  H   H1595     1.0  0.61635  0.07350  0.65244  1.0000
  C   C2004     1.0  0.91500  0.19165  0.51644  1.0000
  C   C2005     1.0  0.92203  0.37003  0.62268  1.0000
  C   C2006     1.0  0.95100  0.17602  0.57234  1.0000
  C   C2007     1.0  0.95528  0.47987  0.59105  1.0000
  H   H1596     1.0  0.87616  0.44829  0.63506  1.0000
  H   H1597     1.0  0.56154  0.11318  0.67983  1.0000
  C   C2008     1.0  0.81209  0.40775  0.63450  1.0000
  C   C2009     1.0  0.56841  0.10290  0.66869  1.0000
  H   H1598     1.0  0.90379  0.24681  0.49903  1.0000
  C   C2010     1.0  0.93502  0.41116  0.70333  1.0000
  C   C2011     1.0  0.97214  0.16841  0.50270  1.0000
  H   H1599     1.0  0.91711  0.46023  0.55144  1.0000
  H   H1600     1.0  0.95315  0.36001  0.63431  1.0000
  H   H1601     1.0  0.89896  0.47641  0.63357  1.0000
  H   H1602     1.0  0.54353  0.06245  0.58722  1.0000
  C   C2012     1.0  0.94410  0.44442  0.49596  1.0000
  C   C2013     1.0  0.52314  0.10141  0.62044  1.0000
  H   H1603     1.0  0.81462  0.03569  0.52317  1.0000
  H   H1604     1.0  0.87566  0.09986  0.54035  1.0000
  H   H1605     1.0  0.94765  0.31484  0.54942  1.0000
  S   S275      1.0  0.96739  0.45047  0.54134  1.0000
  H   H1606     1.0  0.90757  0.34212  0.60640  1.0000
  C   C2014     1.0  0.86523  0.35432  0.56693  1.0000
  H   H1607     1.0  0.97016  0.17992  0.48773  1.0000
  C   C2015     1.0  0.89456  0.20873  0.54455  1.0000
  C   C2016     1.0  0.83231  0.00677  0.51287  1.0000
  H   H1608     1.0  0.90388  0.43399  0.53616  1.0000
  H   H1609     1.0  0.55029  0.00206  0.69215  1.0000
  C   C2017     1.0  0.91122  0.14593  0.51817  1.0000
  C   C2018     1.0  0.90127  0.42501  0.59715  1.0000
  C   C2019     1.0  0.90351  0.46580  0.66654  1.0000
  P   P67       1.0  0.92748  0.16736  0.50709  1.0000
  C   C2020     1.0  0.98002  0.37852  0.50778  1.0000
  C   C2021     1.0  0.89431  0.41371  0.56659  1.0000
  H   H1610     1.0  0.59403  0.08609  0.53942  1.0000
  H   H1611     1.0  0.91357  0.47811  0.66534  1.0000
  C   C2022     1.0  0.87586  0.13446  0.53072  1.0000
  H   H1612     1.0  0.99384  0.15159  0.59943  1.0000
  C   C2023     1.0  0.56843  0.07277  0.56212  1.0000
  C   C2024     1.0  0.49546  0.05320  0.58086  1.0000
  H   H1613     1.0  0.84868  0.36226  0.62977  1.0000
  H   H1614     1.0  0.59373  0.06721  0.62810  1.0000
  C   C2025     1.0  0.96450  0.48120  0.69519  1.0000
  C   C2026     1.0  0.94818  0.39113  0.70966  1.0000
  H   H1615     1.0  0.66536  0.07722  0.53277  1.0000
  H   H1616     1.0  0.98161  0.22141  0.58934  1.0000
  H   H1617     1.0  0.53269  0.11777  0.58787  1.0000
  C   C2027     1.0  0.89560  0.34593  0.59556  1.0000
  H   H1618     1.0  0.85515  0.38521  0.57559  1.0000
  H   H1619     1.0  0.49503  0.01800  0.48985  1.0000
  C   C2028     1.0  0.55705  0.07158  0.58250  1.0000
  S   S276      1.0  0.84358  0.11402  0.50730  1.0000
  C   C2029     1.0  0.89408  0.22920  0.53065  1.0000
  S   S277      1.0  0.96565  0.40857  0.63935  1.0000
  C   C2030     1.0  0.97909  0.22973  0.52051  1.0000
  H   H1620     1.0  0.88883  0.40247  0.55953  1.0000
  C   C2031     1.0  0.82492  0.42368  0.62379  1.0000
  H   H1621     1.0  0.92878  0.36836  0.60672  1.0000
  H   H1622     1.0  0.65206  0.05937  0.50928  1.0000
  H   H1623     1.0  0.88042  0.16780  0.51867  1.0000
  H   H1624     1.0  0.85827  0.13843  0.53354  1.0000
  H   H1625     1.0  0.56389  0.06432  0.55149  1.0000
  H   H1626     1.0  0.57347  0.03859  0.63829  1.0000
  C   C2032     1.0  0.90506  0.18999  0.53750  1.0000
  C   C2033     1.0  0.87941  0.33456  0.56991  1.0000
  C   C2034     1.0  0.91022  0.44648  0.56179  1.0000
  P   P68       1.0  0.91058  0.45096  0.70915  1.0000
  P   P69       1.0  0.54760  0.08130  0.62247  1.0000
  H   H1627     1.0  0.78149  0.07453  0.51402  1.0000
  H   H1628     1.0  0.67554  0.11410  0.51945  1.0000
  C   C2035     1.0  0.95997  0.19378  0.55909  1.0000
  C   C2036     1.0  0.52773  0.05154  0.70749  1.0000
  C   C2037     1.0  0.89905  0.45078  0.68577  1.0000
  C   C2038     1.0  0.95428  0.15965  0.51541  1.0000
  S   S278      1.0  0.95452  0.40165  0.58578  1.0000
  H   H1629     1.0  0.93264  0.41667  0.68677  1.0000
  P   P70       1.0  0.84473  0.02202  0.48817  1.0000
  H   H1630     1.0  0.59638  0.03693  0.54385  1.0000
  C   C2039     1.0  0.80422  0.08180  0.55471  1.0000
  C   C2040     1.0  0.66927  0.10662  0.50904  1.0000
  H   H1631     1.0  0.93461  0.17397  0.57126  1.0000
  H   H1632     1.0  0.96990  0.05660  0.48997  1.0000
  Fe  Fe141     1.0  0.72703  0.04758  0.50741  1.0000
  C   C2041     1.0  0.95731  0.14556  0.53520  1.0000
  C   C2042     1.0  0.92095  0.12394  0.52155  1.0000
  H   H1633     1.0  0.83144  0.09871  0.55127  1.0000
  C   C2043     1.0  0.89976  0.37744  0.62746  1.0000
  C   C2044     1.0  0.90940  0.44318  0.58375  1.0000
  C   C2045     1.0  0.98083  0.27629  0.57870  1.0000
  C   C2046     1.0  0.53109  0.01114  0.64408  1.0000
  H   H1634     1.0  0.97742  0.28987  0.58654  1.0000
  C   C2047     1.0  0.80888  0.09175  0.51039  1.0000
  C   C2048     1.0  0.98877  0.24153  0.55795  1.0000
  H   H1635     1.0  0.81076  0.37329  0.64482  1.0000
  H   H1636     1.0  0.96384  0.36909  0.73521  1.0000
  C   C2049     1.0  0.82065  0.09345  0.54304  1.0000
  C   C2050     1.0  0.79234  0.07984  0.52214  1.0000
  C   C2051     1.0  0.95974  0.46391  0.57896  1.0000
  C   C2052     1.0  0.92828  0.47132  0.70276  1.0000
  S   S279      1.0  0.54771  0.99827  0.51244  1.0000
  H   H1637     1.0  0.96358  0.44697  0.58671  1.0000
  C   C2053     1.0  0.98323  0.23767  0.58007  1.0000
  H   H1638     1.0  0.95600  0.47508  0.60797  1.0000
  H   H1639     1.0  0.55886  0.02254  0.59594  1.0000
  H   H1640     1.0  0.93538  0.47165  0.51110  1.0000
  C   C2054     1.0  0.98121  0.41967  0.67109  1.0000
  H   H1641     1.0  0.95626  0.14697  0.59696  1.0000
  H   H1642     1.0  0.58061  0.03471  0.71589  1.0000
  C   C2055     1.0  0.86783  0.45989  0.72887  1.0000
  H   H1643     1.0  0.84743  0.40944  0.51179  1.0000
  C   C2056     1.0  0.97844  0.30097  0.49201  1.0000
  C   C2057     1.0  0.57412  0.01153  0.59727  1.0000
  H   H1644     1.0  0.85554  0.22189  0.49589  1.0000
  C   C2058     1.0  0.64163  0.99889  0.54080  1.0000
  C   C2059     1.0  0.98648  0.28015  0.55674  1.0000
  H   H1645     1.0  0.50002  0.04379  0.73011  1.0000
  H   H1646     1.0  0.62789  0.01174  0.59791  1.0000
  C   C2060     1.0  0.93051  0.46294  0.50085  1.0000
  C   C2061     1.0  0.99352  0.39460  0.50090  1.0000
  C   C2062     1.0  0.51553  0.00313  0.69621  1.0000
  H   H1647     1.0  0.99245  0.42805  0.69699  1.0000
  C   C2063     1.0  0.61292  0.00541  0.59859  1.0000
  C   C2064     1.0  0.87420  0.41765  0.48769  1.0000
  C   C2065     1.0  0.91112  0.43680  0.82030  1.0000
  C   C2066     1.0  0.52619  0.30163  0.95430  1.0000
  Fe  Fe142     1.0  0.66542  0.47004  0.86424  1.0000
  H   H1648     1.0  0.55377  0.09435  0.93366  1.0000
  S   S280      1.0  0.67460  0.43468  0.86262  1.0000
  C   C2067     1.0  0.54427  0.05663  0.92280  1.0000
  H   H1649     1.0  0.61597  0.40562  0.97670  1.0000
  H   H1650     1.0  0.52236  0.05060  0.85300  1.0000
  C   C2068     1.0  0.55006  0.00154  0.79552  1.0000
  C   C2069     1.0  0.80250  0.46370  0.95936  1.0000
  H   H1651     1.0  0.59807  0.13772  0.89922  1.0000
  H   H1652     1.0  0.53121  0.11022  0.97865  1.0000
  H   H1653     1.0  0.51068  0.46670  0.89038  1.0000
  S   S281      1.0  0.55020  0.14666  0.95042  1.0000
  H   H1654     1.0  0.52003  0.05232  0.79173  1.0000
  C   C2070     1.0  0.51498  0.27207  0.94388  1.0000
  C   C2071     1.0  0.85861  0.47239  0.76171  1.0000
  H   H1655     1.0  0.82872  0.44008  0.93453  1.0000
  C   C2072     1.0  0.78994  0.48354  0.95124  1.0000
  H   H1656     1.0  0.85965  0.38508  0.90037  1.0000
  C   C2073     1.0  0.88069  0.47094  0.76314  1.0000
  Fe  Fe143     1.0  0.55519  0.36691  0.97390  1.0000
  C   C2074     1.0  0.50757  0.06774  0.93870  1.0000
  C   C2075     1.0  0.87280  0.40042  0.93548  1.0000
  Fe  Fe144     1.0  0.56216  0.22050  0.90302  1.0000
  S   S282      1.0  0.57051  0.18643  0.89743  1.0000
  S   S283      1.0  0.58508  0.24443  0.90041  1.0000
  Fe  Fe145     1.0  0.54180  0.19546  0.87909  1.0000
  S   S284      1.0  0.54443  0.18742  0.84715  1.0000
  Fe  Fe146     1.0  0.59301  0.36208  0.93935  1.0000
  S   S285      1.0  0.61212  0.33492  0.96060  1.0000
  S   S286      1.0  0.60706  0.36990  0.90497  1.0000
  H   H1657     1.0  0.52752  0.33132  0.93057  1.0000
  H   H1658     1.0  0.54486  0.05435  0.81596  1.0000
  H   H1659     1.0  0.84646  0.47812  0.77366  1.0000
  C   C2076     1.0  0.85891  0.41966  0.92839  1.0000
  S   S287      1.0  0.58455  0.38409  0.96237  1.0000
  S   S288      1.0  0.56202  0.34748  0.94880  1.0000
  H   H1660     1.0  0.87765  0.37156  0.96032  1.0000
  C   C2077     1.0  0.95828  0.44942  0.84132  1.0000
  H   H1661     1.0  0.58322  0.48548  0.87045  1.0000
  H   H1662     1.0  0.88707  0.45305  0.84134  1.0000
  H   H1663     1.0  0.77809  0.37389  0.81524  1.0000
  H   H1664     1.0  0.58854  0.20368  0.97711  1.0000
  C   C2078     1.0  0.56647  0.45904  0.88935  1.0000
  C   C2079     1.0  0.58273  0.25605  0.92260  1.0000
  C   C2080     1.0  0.57520  0.24490  0.94294  1.0000
  C   C2081     1.0  0.57353  0.25436  0.96042  1.0000
  C   C2082     1.0  0.57906  0.27517  0.95764  1.0000
  C   C2083     1.0  0.69113  0.46865  0.97317  1.0000
  C   C2084     1.0  0.58885  0.27660  0.91993  1.0000
  H   H1665     1.0  0.57125  0.22875  0.94526  1.0000
  H   H1666     1.0  0.83502  0.46828  0.74348  1.0000
  H   H1667     1.0  0.74004  0.46760  0.96215  1.0000
  H   H1668     1.0  0.59507  0.28511  0.90431  1.0000
  C   C2085     1.0  0.52449  0.18083  0.81634  1.0000
  Fe  Fe147     1.0  0.51382  0.21913  0.91128  1.0000
  H   H1669     1.0  0.53778  0.18766  0.80570  1.0000
  H   H1670     1.0  0.54616  0.12949  0.86931  1.0000
  C   C2086     1.0  0.53222  0.03837  0.79640  1.0000
  C   C2087     1.0  0.52134  0.09207  0.87761  1.0000
  C   C2088     1.0  0.83327  0.41151  0.96031  1.0000
  H   H1671     1.0  0.59116  0.30233  0.93512  1.0000
  C   C2089     1.0  0.55291  0.02739  0.73910  1.0000
  H   H1672     1.0  0.52732  0.05673  0.88739  1.0000
  C   C2090     1.0  0.98009  0.47846  0.83505  1.0000
  S   S289      1.0  0.86245  0.47121  0.93401  1.0000
  C   C2091     1.0  0.51632  0.10959  0.86068  1.0000
  C   C2092     1.0  0.59732  0.47760  0.98154  1.0000
  C   C2093     1.0  0.91514  0.47640  0.90248  1.0000
  C   C2094     1.0  0.57909  0.42400  0.87988  1.0000
  C   C2095     1.0  0.53010  0.03006  0.74348  1.0000
  H   H1673     1.0  0.75625  0.46286  0.85552  1.0000
  H   H1674     1.0  0.51382  0.08200  0.82331  1.0000
  S   S290      1.0  0.99307  0.44885  0.78058  1.0000
  C   C2096     1.0  0.69342  0.46394  0.95315  1.0000
  C   C2097     1.0  0.55481  0.12470  0.88295  1.0000
  C   C2098     1.0  0.51271  0.28520  0.92369  1.0000
  C   C2099     1.0  0.58439  0.12956  0.89964  1.0000
  C   C2100     1.0  0.76751  0.48485  0.95189  1.0000
  H   H1675     1.0  0.70381  0.44943  0.95003  1.0000
  C   C2101     1.0  0.50342  0.45384  0.95502  1.0000
  Fe  Fe148     1.0  0.54547  0.17800  0.92557  1.0000
  C   C2102     1.0  0.65601  0.41677  0.87564  1.0000
  C   C2103     1.0  0.65777  0.39698  0.86959  1.0000
  C   C2104     1.0  0.64284  0.38265  0.87904  1.0000
  C   C2105     1.0  0.62667  0.38741  0.89540  1.0000
  C   C2106     1.0  0.62530  0.40684  0.90211  1.0000
  C   C2107     1.0  0.63962  0.42178  0.89177  1.0000
  H   H1676     1.0  0.67033  0.39301  0.85710  1.0000
  H   H1677     1.0  0.64385  0.36778  0.87365  1.0000
  H   H1678     1.0  0.61256  0.41087  0.91443  1.0000
  H   H1679     1.0  0.63784  0.43727  0.89601  1.0000
  C   C2108     1.0  0.93319  0.46009  0.79393  1.0000
  C   C2109     1.0  0.50152  0.12795  0.92572  1.0000
  S   S291      1.0  0.53954  0.21133  0.93266  1.0000
  C   C2110     1.0  0.94400  0.39695  0.74523  1.0000
  H   H1680     1.0  0.76051  0.37422  0.96405  1.0000
  H   H1681     1.0  0.55192  0.38732  0.85574  1.0000
  C   C2111     1.0  0.89971  0.45505  0.82796  1.0000
  H   H1682     1.0  0.91340  0.46382  0.74844  1.0000
  H   H1683     1.0  0.56295  0.01816  0.75114  1.0000
  H   H1684     1.0  0.86500  0.46109  0.97872  1.0000
  C   C2112     1.0  0.52043  0.12525  0.98001  1.0000
  C   C2113     1.0  0.77012  0.44653  0.96909  1.0000
  H   H1685     1.0  0.50988  0.17544  0.79115  1.0000
  H   H1686     1.0  0.57240  0.02262  0.82823  1.0000
  C   C2114     1.0  0.52798  0.03292  0.95388  1.0000
  H   H1687     1.0  0.97605  0.41739  0.84023  1.0000
  C   C2115     1.0  0.53818  0.33847  0.88461  1.0000
  C   C2116     1.0  0.54792  0.10955  0.90125  1.0000
  C   C2117     1.0  0.56179  0.02169  0.81722  1.0000
  C   C2118     1.0  0.53592  0.35963  0.87167  1.0000
  H   H1688     1.0  0.68265  0.47340  0.92229  1.0000
  H   H1689     1.0  0.78127  0.40509  0.95503  1.0000
  H   H1690     1.0  0.70766  0.35133  0.96615  1.0000
  C   C2119     1.0  0.52387  0.07068  0.87463  1.0000
  C   C2120     1.0  0.55370  0.37097  0.86562  1.0000
  C   C2121     1.0  0.57382  0.36128  0.87241  1.0000
  C   C2122     1.0  0.57615  0.34032  0.88539  1.0000
  C   C2123     1.0  0.55845  0.32894  0.89141  1.0000
  P   P71       1.0  0.51715  0.01818  0.76950  1.0000
  Fe  Fe149     1.0  0.97537  0.42368  0.77551  1.0000
  C   C2124     1.0  0.85218  0.46689  0.74461  1.0000
  H   H1691     1.0  0.55808  0.05974  0.91079  1.0000
  C   C2125     1.0  0.92805  0.43932  0.80340  1.0000
  H   H1692     1.0  0.50262  0.47771  0.92583  1.0000
  S   S292      1.0  0.53594  0.23036  0.88188  1.0000
  C   C2126     1.0  0.51632  0.43780  0.96819  1.0000
  H   H1693     1.0  0.76182  0.43279  0.97663  1.0000
  H   H1694     1.0  0.55259  0.29982  0.86875  1.0000
  H   H1695     1.0  0.52105  0.26576  0.83702  1.0000
  H   H1696     1.0  0.53213  0.30775  0.96594  1.0000
  H   H1697     1.0  0.86382  0.43084  0.91374  1.0000
  C   C2127     1.0  0.85320  0.48669  0.95336  1.0000
  H   H1698     1.0  0.57824  0.40676  0.88261  1.0000
  C   C2128     1.0  0.95966  0.47141  0.83925  1.0000
  H   H1699     1.0  0.65555  0.34653  0.91836  1.0000
  H   H1700     1.0  0.65372  0.38693  0.97306  1.0000
  H   H1701     1.0  0.58761  0.37006  0.86784  1.0000
  H   H1702     1.0  0.59168  0.33300  0.89098  1.0000
  H   H1703     1.0  0.56060  0.31266  0.90137  1.0000
  C   C2129     1.0  0.51239  0.16460  0.97005  1.0000
  C   C2130     1.0  0.49963  0.28591  0.85629  1.0000
  C   C2131     1.0  0.55933  0.10491  0.91889  1.0000
  C   C2132     1.0  0.93564  0.46794  0.89347  1.0000
  C   C2133     1.0  0.95370  0.47772  0.89327  1.0000
  S   S293      1.0  0.79290  0.47379  0.86849  1.0000
  H   H1704     1.0  0.94250  0.44420  0.84406  1.0000
  S   S294      1.0  0.51734  0.18479  0.90679  1.0000
  H   H1705     1.0  0.93749  0.45392  0.88648  1.0000
  H   H1706     1.0  0.65091  0.45757  0.97098  1.0000
  C   C2134     1.0  0.59493  0.43314  0.86440  1.0000
  H   H1707     1.0  0.52905  0.01785  0.96592  1.0000
  S   S295      1.0  0.63474  0.48439  0.88179  1.0000
  C   C2135     1.0  0.57293  0.13464  0.88219  1.0000
  H   H1708     1.0  0.94611  0.46220  0.78088  1.0000
  H   H1709     1.0  0.49527  0.40543  0.91576  1.0000
  S   S296      1.0  0.85196  0.47062  0.87686  1.0000
  C   C2136     1.0  0.52322  0.17914  0.83815  1.0000
  C   C2137     1.0  0.50144  0.39035  0.96830  1.0000
  C   C2138     1.0  0.79287  0.44483  0.96764  1.0000
  H   H1710     1.0  0.56551  0.44026  0.93790  1.0000
  H   H1711     1.0  0.51027  0.11969  0.82806  1.0000
  S   S297      1.0  0.97942  0.43486  0.74007  1.0000
  H   H1712     1.0  0.88833  0.39655  0.92616  1.0000
  H   H1713     1.0  0.54840  0.42000  0.97185  1.0000
  C   C2139     1.0  0.86679  0.38641  0.95474  1.0000
  C   C2140     1.0  0.52615  0.14527  0.96809  1.0000
  C   C2141     1.0  0.49831  0.30016  0.86971  1.0000
  C   C2142     1.0  0.58670  0.28633  0.93736  1.0000
  H   H1714     1.0  0.50492  0.16870  0.86875  1.0000
  C   C2143     1.0  0.52381  0.31485  0.93416  1.0000
  H   H1715     1.0  0.90732  0.42068  0.82786  1.0000
  C   C2144     1.0  0.90507  0.47581  0.81845  1.0000
  S   S298      1.0  0.94304  0.41647  0.79444  1.0000
  C   C2145     1.0  0.52524  0.07211  0.92291  1.0000
  H   H1716     1.0  0.53536  0.21346  0.97484  1.0000
  C   C2146     1.0  0.51436  0.10599  0.84098  1.0000
  H   H1717     1.0  0.51350  0.12606  0.86289  1.0000
  C   C2147     1.0  0.57760  0.11470  0.91796  1.0000
  C   C2148     1.0  0.53763  0.29665  0.86497  1.0000
  H   H1718     1.0  0.50027  0.06498  0.76115  1.0000
  C   C2149     1.0  0.58197  0.46828  0.87332  1.0000
  C   C2150     1.0  0.79426  0.39685  0.98501  1.0000
  C   C2151     1.0  0.83902  0.42503  0.94051  1.0000
  C   C2152     1.0  0.54619  0.03955  0.81038  1.0000
  H   H1719     1.0  0.51194  0.25540  0.94735  1.0000
  H   H1720     1.0  0.50785  0.27833  0.91201  1.0000
  H   H1721     1.0  0.51692  0.17998  0.96118  1.0000
  C   C2153     1.0  0.51654  0.08473  0.83825  1.0000
  H   H1722     1.0  0.60871  0.46237  0.84921  1.0000
  H   H1723     1.0  0.52450  0.26983  0.97447  1.0000
  C   C2154     1.0  0.85355  0.41114  0.76302  1.0000
  C   C2155     1.0  0.87595  0.40797  0.76393  1.0000
  C   C2156     1.0  0.88359  0.40958  0.78218  1.0000
  C   C2157     1.0  0.86886  0.41387  0.79967  1.0000
  C   C2158     1.0  0.84634  0.41616  0.79923  1.0000
  C   C2159     1.0  0.83877  0.41560  0.78047  1.0000
  P   P72       1.0  0.82754  0.42317  0.82140  1.0000
  C   C2160     1.0  0.83882  0.41151  0.84591  1.0000
  C   C2161     1.0  0.82371  0.45251  0.81651  1.0000
  C   C2162     1.0  0.84081  0.46281  0.81832  1.0000
  C   C2163     1.0  0.78196  0.39379  0.97031  1.0000
  H   H1724     1.0  0.52399  0.39099  0.93963  1.0000
  P   P73       1.0  0.54827  0.47602  0.90512  1.0000
  H   H1725     1.0  0.55470  0.27503  0.84502  1.0000
  C   C2164     1.0  0.83361  0.42252  0.86252  1.0000
  C   C2165     1.0  0.84100  0.41299  0.88209  1.0000
  C   C2166     1.0  0.85387  0.39242  0.88519  1.0000
  C   C2167     1.0  0.85907  0.38125  0.86873  1.0000
  C   C2168     1.0  0.85135  0.39064  0.84921  1.0000
  C   C2169     1.0  0.80196  0.41296  0.82586  1.0000
  C   C2170     1.0  0.79975  0.39525  0.81773  1.0000
  C   C2171     1.0  0.77983  0.38742  0.82170  1.0000
  C   C2172     1.0  0.76217  0.39692  0.83412  1.0000
  C   C2173     1.0  0.76452  0.41399  0.84294  1.0000
  C   C2174     1.0  0.78441  0.42178  0.83907  1.0000
  C   C2175     1.0  0.50710  0.39412  0.94626  1.0000
  H   H1726     1.0  0.49809  0.21461  0.96671  1.0000
  H   H1727     1.0  0.90095  0.40776  0.78278  1.0000
  H   H1728     1.0  0.87515  0.41562  0.81342  1.0000
  H   H1729     1.0  0.82150  0.41879  0.77927  1.0000
  H   H1730     1.0  0.85610  0.45332  0.82274  1.0000
  H   H1731     1.0  0.92499  0.42683  0.75059  1.0000
  C   C2176     1.0  0.93079  0.41697  0.73900  1.0000
  C   C2177     1.0  0.52187  0.28022  0.95913  1.0000
  C   C2178     1.0  0.53891  0.28251  0.85145  1.0000
  H   H1732     1.0  0.82358  0.43839  0.86049  1.0000
  H   H1733     1.0  0.83652  0.42165  0.89480  1.0000
  P   P74       1.0  0.51557  0.32331  0.89225  1.0000
  H   H1734     1.0  0.86895  0.36525  0.87115  1.0000
  H   H1735     1.0  0.85507  0.38157  0.83679  1.0000
  H   H1736     1.0  0.81339  0.38728  0.80859  1.0000
  C   C2179     1.0  0.97717  0.43431  0.83923  1.0000
  C   C2180     1.0  0.75755  0.46643  0.96105  1.0000
  H   H1737     1.0  0.75090  0.42117  0.85279  1.0000
  H   H1738     1.0  0.78611  0.43475  0.84639  1.0000
  C   C2181     1.0  0.50904  0.04828  0.95418  1.0000
  H   H1739     1.0  0.52055  0.36749  0.86622  1.0000
  C   C2182     1.0  0.50023  0.11569  0.91107  1.0000
  H   H1740     1.0  0.59415  0.47134  0.91116  1.0000
  H   H1741     1.0  0.79094  0.45786  0.80814  1.0000
  H   H1742     1.0  0.88741  0.40465  0.75040  1.0000
  C   C2183     1.0  0.67095  0.35152  0.91883  1.0000
  C   C2184     1.0  0.69023  0.34177  0.90876  1.0000
  C   C2185     1.0  0.70998  0.34843  0.90922  1.0000
  C   C2186     1.0  0.71044  0.36490  0.91970  1.0000
  C   C2187     1.0  0.69108  0.37496  0.92966  1.0000
  C   C2188     1.0  0.67132  0.36804  0.92922  1.0000
  P   P75       1.0  0.69201  0.39614  0.94322  1.0000
  C   C2189     1.0  0.85600  0.47732  0.97459  1.0000
  C   C2190     1.0  0.71159  0.41296  0.92743  1.0000
  C   C2191     1.0  0.72887  0.41695  0.93625  1.0000
  C   C2192     1.0  0.74332  0.43070  0.92397  1.0000
  C   C2193     1.0  0.74093  0.44018  0.90274  1.0000
  C   C2194     1.0  0.72431  0.43563  0.89365  1.0000
  C   C2195     1.0  0.70989  0.42185  0.90587  1.0000
  C   C2196     1.0  0.50591  0.17025  0.85183  1.0000
  H   H1743     1.0  0.60644  0.42293  0.85530  1.0000
  C   C2197     1.0  0.66500  0.41156  0.94658  1.0000
  C   C2198     1.0  0.64937  0.40249  0.96249  1.0000
  C   C2199     1.0  0.62783  0.41294  0.96438  1.0000
  C   C2200     1.0  0.62177  0.43280  0.95059  1.0000
  C   C2201     1.0  0.63749  0.44253  0.93546  1.0000
  C   C2202     1.0  0.65899  0.43191  0.93327  1.0000
  C   C2203     1.0  0.51287  0.46519  0.93560  1.0000
  H   H1744     1.0  0.68977  0.32915  0.90052  1.0000
  H   H1745     1.0  0.72490  0.34089  0.90134  1.0000
  H   H1746     1.0  0.72584  0.36992  0.91986  1.0000
  H   H1747     1.0  0.65601  0.37539  0.93655  1.0000
  H   H1748     1.0  0.73082  0.41020  0.95274  1.0000
  H   H1749     1.0  0.75614  0.43441  0.93095  1.0000
  H   H1750     1.0  0.75192  0.45116  0.89344  1.0000
  H   H1751     1.0  0.72225  0.44306  0.87721  1.0000
  H   H1752     1.0  0.69705  0.41848  0.89863  1.0000
  H   H1753     1.0  0.94469  0.48279  0.84054  1.0000
  C   C2204     1.0  0.50872  0.17381  0.80810  1.0000
  C   C2205     1.0  0.84716  0.39196  0.96714  1.0000
  P   P76       1.0  0.80953  0.41935  0.97811  1.0000
  H   H1754     1.0  0.60512  0.44103  0.95216  1.0000
  H   H1755     1.0  0.63305  0.45827  0.92528  1.0000
  H   H1756     1.0  0.67056  0.43957  0.92100  1.0000
  C   C2206     1.0  0.53402  0.01934  0.78882  1.0000
  C   C2207     1.0  0.69942  0.38484  0.96955  1.0000
  Fe  Fe150     1.0  0.58059  0.32217  0.97214  1.0000
  C   C2208     1.0  0.83831  0.48552  0.81442  1.0000
  C   C2209     1.0  0.80424  0.46528  0.81019  1.0000
  C   C2210     1.0  0.77037  0.37621  0.97527  1.0000
  P   P77       1.0  0.52381  0.09734  0.90292  1.0000
  C   C2211     1.0  0.52126  0.06707  0.85507  1.0000
  C   C2212     1.0  0.56487  0.43688  0.89233  1.0000
  C   C2213     1.0  0.53530  0.46034  0.92913  1.0000
  H   H1757     1.0  0.56030  0.02521  0.93802  1.0000
  H   H1758     1.0  0.95709  0.47885  0.74328  1.0000
  C   C2214     1.0  0.59632  0.45529  0.86108  1.0000
  H   H1759     1.0  0.84764  0.41045  0.74867  1.0000
  C   C2215     1.0  0.51727  0.30663  0.91863  1.0000
  H   H1760     1.0  0.51685  0.12765  0.93124  1.0000
  C   C2216     1.0  0.51728  0.30597  0.87386  1.0000
  H   H1761     1.0  0.58586  0.11159  0.93185  1.0000
  C   C2217     1.0  0.54558  0.03708  0.93818  1.0000
  C   C2218     1.0  0.53860  0.43285  0.96182  1.0000
  C   C2219     1.0  0.54813  0.44416  0.94247  1.0000
  H   H1762     1.0  0.55280  0.42941  0.90426  1.0000
  S   S299      1.0  0.68733  0.48636  0.87682  1.0000
  H   H1763     1.0  0.57767  0.14679  0.86821  1.0000
  C   C2220     1.0  0.92171  0.47827  0.80139  1.0000
  C   C2221     1.0  0.51993  0.27722  0.84702  1.0000
  Fe  Fe151     1.0  0.85178  0.48855  0.90234  1.0000
  H   H1764     1.0  0.50897  0.02464  0.88577  1.0000
  H   H1765     1.0  0.94806  0.39176  0.76132  1.0000
  C   C2222     1.0  0.89637  0.46412  0.74736  1.0000
  H   H1766     1.0  0.81976  0.46310  0.95924  1.0000
  H   H1767     1.0  0.69111  0.41589  0.97877  1.0000
  C   C2223     1.0  0.53935  0.48468  0.98393  1.0000
  C   C2224     1.0  0.61862  0.47596  0.97117  1.0000
  C   C2225     1.0  0.68132  0.47745  0.93751  1.0000
  S   S300      1.0  0.52124  0.38133  0.98588  1.0000
  H   H1768     1.0  0.74669  0.39096  0.83711  1.0000
  C   C2226     1.0  0.63455  0.45902  0.97916  1.0000
  H   H1769     1.0  0.90108  0.46895  0.90249  1.0000
  H   H1770     1.0  0.54432  0.46964  0.97845  1.0000
  C   C2227     1.0  0.49482  0.99833  0.90747  1.0000
  C   C2228     1.0  0.70658  0.36243  0.97647  1.0000
  C   C2229     1.0  0.50043  0.22023  0.98034  1.0000
  S   S301      1.0  0.57624  0.28680  0.97980  1.0000
  C   C2230     1.0  0.75482  0.48042  0.85197  1.0000
  H   H1771     1.0  0.85202  0.42619  0.98657  1.0000
  H   H1772     1.0  0.88573  0.47543  0.77631  1.0000
  H   H1773     1.0  0.56878  0.17757  0.96844  1.0000
  H   H1774     1.0  0.62297  0.48821  0.95727  1.0000
  H   H1775     1.0  0.50902  0.42884  0.98318  1.0000
  H   H1776     1.0  0.56786  0.24561  0.97610  1.0000
  H   H1777     1.0  0.84313  0.38132  0.98239  1.0000
  H   H1778     1.0  0.96953  0.47120  0.88611  1.0000
  C   C2231     1.0  0.58546  0.48607  0.91578  1.0000
  H   H1779     1.0  0.50333  0.00391  0.82920  1.0000
  C   C2232     1.0  0.51262  0.48349  0.88307  1.0000
  C   C2233     1.0  0.80160  0.48801  0.80679  1.0000
  H   H1780     1.0  0.72360  0.48537  0.84097  1.0000
  C   C2234     1.0  0.56370  0.00267  0.80981  1.0000
  C   C2235     1.0  0.52138  0.21970  0.98481  1.0000
  Fe  Fe152     1.0  0.60168  0.35577  0.98461  1.0000
  C   C2236     1.0  0.69727  0.39866  0.98363  1.0000
  H   H1781     1.0  0.49555  0.04520  0.96657  1.0000
  C   C2237     1.0  0.77110  0.49033  0.85612  1.0000
  C   C2238     1.0  0.67764  0.48750  0.97727  1.0000
  C   C2239     1.0  0.56798  0.17879  0.98478  1.0000
  C   C2240     1.0  0.49636  0.02029  0.89872  1.0000
  Fe  Fe153     1.0  0.81933  0.49117  0.87234  1.0000
  H   H1782     1.0  0.58546  0.49135  0.97545  1.0000
  C   C2241     1.0  0.51598  0.67583  0.04722  1.0000
  Fe  Fe154     1.0  0.92604  0.62584  0.17372  1.0000
  S   S302      1.0  0.91174  0.63525  0.14285  1.0000
  S   S303      1.0  0.92216  0.64637  0.19799  1.0000
  Fe  Fe155     1.0  0.94634  0.58148  0.16733  1.0000
  S   S304      1.0  0.93407  0.58616  0.13632  1.0000
  S   S305      1.0  0.96805  0.55096  0.17990  1.0000
  Fe  Fe156     1.0  0.94413  0.61912  0.12931  1.0000
  S   S306      1.0  0.96229  0.62987  0.09678  1.0000
  Fe  Fe157     1.0  0.90270  0.60147  0.15187  1.0000
  S   S307      1.0  0.86989  0.59535  0.14684  1.0000
  S   S308      1.0  0.95925  0.61306  0.15920  1.0000
  S   S309      1.0  0.91408  0.59354  0.18398  1.0000
  H   H1783     1.0  0.91202  0.49716  0.16714  1.0000
  H   H1784     1.0  0.53190  0.69775  0.05728  1.0000
  C   C2242     1.0  0.81614  0.52871  0.13608  1.0000
  C   C2243     1.0  0.96313  0.60427  0.23618  1.0000
  C   C2244     1.0  0.62716  0.51895  0.00815  1.0000
  C   C2245     1.0  0.93740  0.53720  0.00960  1.0000
  C   C2246     1.0  0.98680  0.50983  0.09114  1.0000
  H   H1785     1.0  0.56631  0.60009  0.02679  1.0000
  C   C2247     1.0  0.75191  0.56924  0.99963  1.0000
  C   C2248     1.0  0.80068  0.51458  0.14134  1.0000
  C   C2249     1.0  0.84103  0.50136  0.15687  1.0000
  C   C2250     1.0  0.51897  0.68781  0.06138  1.0000
  C   C2251     1.0  0.73038  0.50527  0.14050  1.0000
  H   H1786     1.0  0.50758  0.69662  0.09140  1.0000
  H   H1787     1.0  0.51441  0.56988  0.06742  1.0000
  H   H1788     1.0  0.57622  0.56362  0.00925  1.0000
  C   C2252     1.0  0.52663  0.52393  0.99729  1.0000
  H   H1789     1.0  0.78533  0.51954  0.13483  1.0000
  C   C2253     1.0  0.61361  0.52377  0.99234  1.0000
  C   C2254     1.0  0.93589  0.64399  0.23623  1.0000
  H   H1790     1.0  0.59751  0.50210  0.05784  1.0000
  H   H1791     1.0  0.90301  0.49290  0.09487  1.0000
  C   C2255     1.0  0.60420  0.54641  0.02488  1.0000
  C   C2256     1.0  0.62221  0.52970  0.02481  1.0000
  H   H1792     1.0  0.89092  0.63787  0.23539  1.0000
  H   H1793     1.0  0.58533  0.49864  0.02522  1.0000
  H   H1794     1.0  0.60040  0.55493  0.03769  1.0000
  H   H1795     1.0  0.75316  0.49232  0.05175  1.0000
  C   C2257     1.0  0.87087  0.57795  0.12941  1.0000
  C   C2258     1.0  0.88997  0.56395  0.12478  1.0000
  C   C2259     1.0  0.89108  0.55103  0.11013  1.0000
  C   C2260     1.0  0.87291  0.55147  0.10031  1.0000
  C   C2261     1.0  0.85349  0.56506  0.10522  1.0000
  C   C2262     1.0  0.85247  0.57823  0.11984  1.0000
  H   H1796     1.0  0.90395  0.56287  0.13254  1.0000
  H   H1797     1.0  0.90625  0.54091  0.10617  1.0000
  H   H1798     1.0  0.83953  0.56583  0.09736  1.0000
  H   H1799     1.0  0.83760  0.58900  0.12336  1.0000
  C   C2263     1.0  0.54948  0.60113  0.03405  1.0000
  C   C2264     1.0  0.92087  0.51410  0.20649  1.0000
  C   C2265     1.0  0.93226  0.53193  0.19947  1.0000
  C   C2266     1.0  0.95285  0.52955  0.18757  1.0000
  C   C2267     1.0  0.96170  0.50971  0.18211  1.0000
  H   H1800     1.0  0.58199  0.74991  0.99048  1.0000
  H   H1801     1.0  0.90512  0.51574  0.21597  1.0000
  H   H1802     1.0  0.92539  0.54728  0.20377  1.0000
  H   H1803     1.0  0.97726  0.50802  0.17234  1.0000
  C   C2268     1.0  0.52329  0.97080  0.22254  1.0000
  C   C2269     1.0  0.70527  0.53479  0.99804  1.0000
  C   C2270     1.0  0.77236  0.56611  0.00665  1.0000
  C   C2271     1.0  0.95060  0.61371  0.21954  1.0000
  C   C2272     1.0  0.93724  0.63382  0.21930  1.0000
  C   C2273     1.0  0.94471  0.55017  0.02049  1.0000
  C   C2274     1.0  0.56619  0.66900  0.99630  1.0000
  S   S310      1.0  0.87603  0.53658  0.08045  1.0000
  H   H1804     1.0  0.95151  0.60552  0.20677  1.0000
  C   C2275     1.0  0.50208  0.66264  0.00662  1.0000
  C   C2276     1.0  0.98671  0.58975  0.10752  1.0000
  C   C2277     1.0  0.98963  0.56766  0.03206  1.0000
  C   C2278     1.0  0.51085  0.65118  0.99070  1.0000
  C   C2279     1.0  0.93019  0.49398  0.20167  1.0000
  C   C2280     1.0  0.98216  0.60800  0.09128  1.0000
  H   H1805     1.0  0.99123  0.50227  0.12412  1.0000
  C   C2281     1.0  0.49907  0.66325  0.05202  1.0000
  C   C2282     1.0  0.99368  0.60871  0.07090  1.0000
  H   H1806     1.0  0.97837  0.58914  0.12337  1.0000
  H   H1807     1.0  0.99378  0.55021  0.03688  1.0000
  C   C2283     1.0  0.52791  0.95008  0.23552  1.0000
  H   H1808     1.0  0.91988  0.51058  0.01242  1.0000
  C   C2284     1.0  0.73141  0.50343  0.08989  1.0000
  H   H1809     1.0  0.88240  0.56054  0.18394  1.0000
  C   C2285     1.0  0.59507  0.53951  0.99288  1.0000
  C   C2286     1.0  0.49825  0.68554  0.00131  1.0000
  C   C2287     1.0  0.87075  0.62674  0.21834  1.0000
  C   C2288     1.0  0.85064  0.62056  0.21855  1.0000
  H   H1810     1.0  0.76518  0.60880  0.03066  1.0000
  C   C2289     1.0  0.77506  0.51045  0.99237  1.0000
  H   H1811     1.0  0.88294  0.62660  0.20455  1.0000
  H   H1812     1.0  0.84732  0.61556  0.20490  1.0000
  C   C2290     1.0  0.90495  0.49395  0.11066  1.0000
  C   C2291     1.0  0.97921  0.61280  0.01811  1.0000
  H   H1813     1.0  0.71328  0.51997  0.00733  1.0000
  H   H1814     1.0  0.92567  0.65957  0.23604  1.0000
  H   H1815     1.0  0.87400  0.52440  0.00074  1.0000
  Fe  Fe158     1.0  0.53532  0.73802  0.00690  1.0000
  C   C2292     1.0  0.56218  0.69190  0.99132  1.0000
  C   C2293     1.0  0.84592  0.52876  0.21399  1.0000
  H   H1816     1.0  0.94084  0.54008  0.99247  1.0000
  C   C2294     1.0  0.98326  0.51375  0.11155  1.0000
  C   C2295     1.0  0.96931  0.53236  0.11574  1.0000
  C   C2296     1.0  0.95894  0.54710  0.09950  1.0000
  C   C2297     1.0  0.96261  0.54353  0.07880  1.0000
  C   C2298     1.0  0.97647  0.52456  0.07487  1.0000
  P   P78       1.0  0.94981  0.56268  0.05726  1.0000
  C   C2299     1.0  0.94040  0.54641  0.04272  1.0000
  C   C2300     1.0  0.92702  0.58117  0.06691  1.0000
  C   C2301     1.0  0.90590  0.58181  0.06237  1.0000
  C   C2302     1.0  0.88858  0.59649  0.06962  1.0000
  C   C2303     1.0  0.89216  0.61062  0.08143  1.0000
  C   C2304     1.0  0.91320  0.61053  0.08548  1.0000
  C   C2305     1.0  0.93054  0.59601  0.07811  1.0000
  C   C2306     1.0  0.92853  0.52971  0.05381  1.0000
  C   C2307     1.0  0.92109  0.51691  0.04289  1.0000
  H   H1817     1.0  0.79291  0.57754  0.02322  1.0000
  C   C2308     1.0  0.92535  0.49555  0.11522  1.0000
  C   C2309     1.0  0.88685  0.49422  0.12630  1.0000
  C   C2310     1.0  0.96949  0.57836  0.03983  1.0000
  C   C2311     1.0  0.96429  0.60107  0.03251  1.0000
  C   C2312     1.0  0.84908  0.51262  0.20228  1.0000
  C   C2313     1.0  0.49608  0.92152  0.09741  1.0000
  Fe  Fe159     1.0  0.50376  0.77178  0.02840  1.0000
  H   H1818     1.0  0.52687  0.67652  0.03247  1.0000
  S   S311      1.0  0.50279  0.73731  0.02668  1.0000
  C   C2314     1.0  0.92770  0.49714  0.13553  1.0000
  H   H1819     1.0  0.96654  0.53547  0.13159  1.0000
  H   H1820     1.0  0.94806  0.56108  0.10337  1.0000
  H   H1821     1.0  0.51815  0.93758  0.23634  1.0000
  H   H1822     1.0  0.90251  0.57079  0.05364  1.0000
  H   H1823     1.0  0.87223  0.59631  0.06671  1.0000
  H   H1824     1.0  0.87863  0.62141  0.08771  1.0000
  H   H1825     1.0  0.91611  0.62156  0.09451  1.0000
  H   H1826     1.0  0.94676  0.59630  0.08118  1.0000
  H   H1827     1.0  0.92464  0.52690  0.07091  1.0000
  C   C2315     1.0  0.54188  0.58268  0.04738  1.0000
  H   H1828     1.0  0.52215  0.53937  0.00211  1.0000
  C   C2316     1.0  0.61489  0.98920  0.23528  1.0000
  H   H1829     1.0  0.64138  0.50679  0.00744  1.0000
  H   H1830     1.0  0.94873  0.60987  0.03767  1.0000
  H   H1831     1.0  0.49459  0.94509  0.13884  1.0000
  C   C2317     1.0  0.59057  0.55136  0.00883  1.0000
  H   H1832     1.0  0.54158  0.63508  0.01975  1.0000
  C   C2318     1.0  0.76151  0.59790  0.02190  1.0000
  H   H1833     1.0  0.91157  0.50434  0.05162  1.0000
  C   C2319     1.0  0.74106  0.60113  0.01510  1.0000
  C   C2320     1.0  0.73620  0.58682  0.00409  1.0000
  C   C2321     1.0  0.50080  0.92450  0.11647  1.0000
  C   C2322     1.0  0.53539  0.62093  0.02999  1.0000
  C   C2323     1.0  0.70794  0.50620  0.14160  1.0000
  C   C2324     1.0  0.75726  0.52346  0.00150  1.0000
  H   H1834     1.0  0.58866  0.97529  0.20083  1.0000
  H   H1835     1.0  0.84800  0.53322  0.14008  1.0000
  C   C2325     1.0  0.55253  0.98269  0.23459  1.0000
  Fe  Fe160     1.0  0.80378  0.50999  0.08085  1.0000
  H   H1836     1.0  0.99068  0.60801  0.19234  1.0000
  H   H1837     1.0  0.85516  0.55883  0.21609  1.0000
  H   H1838     1.0  0.73674  0.52720  0.03083  1.0000
  C   C2326     1.0  0.50529  0.68713  0.08056  1.0000
  Fe  Fe161     1.0  0.84985  0.52004  0.07479  1.0000
  H   H1839     1.0  0.88782  0.53262  0.16322  1.0000
  C   C2327     1.0  0.85800  0.54597  0.20746  1.0000
  C   C2328     1.0  0.80523  0.49401  0.15468  1.0000
  S   S312      1.0  0.76854  0.51804  0.09368  1.0000
  S   S313      1.0  0.63781  0.52136  0.04603  1.0000
  H   H1840     1.0  0.69818  0.52100  0.13402  1.0000
  H   H1841     1.0  0.60071  0.98371  0.16225  1.0000
  C   C2329     1.0  0.74971  0.51694  0.02313  1.0000
  C   C2330     1.0  0.87513  0.63339  0.23575  1.0000
  H   H1842     1.0  0.96708  0.54170  0.22584  1.0000
  S   S314      1.0  0.55887  0.70639  0.01167  1.0000
  S   S315      1.0  0.83202  0.49602  0.09942  1.0000
  H   H1843     1.0  0.51285  0.63356  0.99417  1.0000
  C   C2331     1.0  0.86474  0.51328  0.18424  1.0000
  H   H1844     1.0  0.87119  0.49320  0.12234  1.0000
  H   H1845     1.0  0.87866  0.57173  0.23474  1.0000
  Fe  Fe162     1.0  0.83127  0.51173  0.03814  1.0000
  C   C2332     1.0  0.75908  0.49726  0.03513  1.0000
  H   H1846     1.0  0.83898  0.49989  0.20699  1.0000
  H   H1847     1.0  0.81271  0.54466  0.12574  1.0000
  H   H1848     1.0  0.54695  0.50987  0.02171  1.0000
  H   H1849     1.0  0.81927  0.61616  0.23643  1.0000
  H   H1850     1.0  0.55283  0.56732  0.05041  1.0000
  H   H1851     1.0  0.93931  0.49555  0.10307  1.0000
  H   H1852     1.0  0.91047  0.58934  0.23450  1.0000
  C   C2333     1.0  0.97951  0.54256  0.23504  1.0000
  C   C2334     1.0  0.92561  0.52057  0.02081  1.0000
  S   S316      1.0  0.82065  0.53618  0.05855  1.0000
  H   H1853     1.0  0.72360  0.52025  0.08809  1.0000
  C   C2335     1.0  0.51342  0.62234  0.03882  1.0000
  C   C2336     1.0  0.77714  0.58036  0.01768  1.0000
  H   H1854     1.0  0.51227  0.91240  0.12542  1.0000
  S   S317      1.0  0.53819  0.77102  0.01183  1.0000
  C   C2337     1.0  0.87655  0.53084  0.17767  1.0000
  C   C2338     1.0  0.68282  0.53690  0.99792  1.0000
  C   C2339     1.0  0.52022  0.58413  0.05689  1.0000
  H   H1855     1.0  0.97925  0.52099  0.05927  1.0000
  C   C2340     1.0  0.53561  0.98703  0.22197  1.0000
  H   H1856     1.0  0.73794  0.51938  0.13208  1.0000
  H   H1857     1.0  0.67390  0.52419  0.00751  1.0000
  H   H1858     1.0  0.89024  0.70825  0.22754  1.0000
  S   S318      1.0  0.82627  0.52594  0.00395  1.0000
  C   C2341     1.0  0.87332  0.54697  0.18935  1.0000
  C   C2342     1.0  0.83620  0.52213  0.14392  1.0000
  H   H1859     1.0  0.72009  0.58938  0.99955  1.0000
  S   S319      1.0  0.86217  0.49747  0.05245  1.0000
  H   H1860     1.0  0.95367  0.56306  0.01150  1.0000
  H   H1861     1.0  0.56691  0.66042  0.01263  1.0000
  C   C2343     1.0  0.83487  0.62097  0.23628  1.0000
  H   H1862     1.0  0.72884  0.61455  0.01866  1.0000
  P   P79       1.0  0.49535  0.64803  0.03345  1.0000
  H   H1863     1.0  0.83377  0.52818  0.22782  1.0000
  H   H1864     1.0  0.97387  0.58904  0.23601  1.0000
  H   H1865     1.0  0.50379  0.90708  0.09159  1.0000
  H   H1866     1.0  0.51006  0.97431  0.21302  1.0000
  H   H1867     1.0  0.97516  0.63032  0.01278  1.0000
  C   C2344     1.0  0.90979  0.49675  0.15132  1.0000
  H   H1868     1.0  0.94352  0.49811  0.13927  1.0000
  C   C2345     1.0  0.54094  0.50715  0.00827  1.0000
  H   H1869     1.0  0.78460  0.55241  0.00389  1.0000
  C   C2346     1.0  0.50607  0.60394  0.05281  1.0000
  C   C2347     1.0  0.95038  0.49197  0.18912  1.0000
  C   C2348     1.0  0.75356  0.49800  0.09239  1.0000
  H   H1870     1.0  0.99019  0.62282  0.05827  1.0000
  C   C2349     1.0  0.88916  0.49569  0.14678  1.0000
  P   P80       1.0  0.86647  0.49404  0.16772  1.0000
  C   C2350     1.0  0.90354  0.79576  0.40941  1.0000
  H   H1871     1.0  0.91325  0.76637  0.45841  1.0000
  C   C2351     1.0  0.60759  0.98020  0.27959  1.0000
  S   S320      1.0  0.91865  0.92349  0.42837  1.0000
  C   C2352     1.0  0.90116  0.78049  0.42861  1.0000
  S   S321      1.0  0.87421  0.71812  0.42819  1.0000
  C   C2353     1.0  0.61478  0.97942  0.46390  1.0000
  Fe  Fe163     1.0  0.85181  0.69312  0.43851  1.0000
  S   S322      1.0  0.84448  0.67048  0.42016  1.0000
  C   C2354     1.0  0.96630  0.83430  0.45801  1.0000
  H   H1872     1.0  0.63685  0.98096  0.43495  1.0000
  S   S323      1.0  0.86336  0.90693  0.46532  1.0000
  C   C2355     1.0  0.97257  0.79134  0.33460  1.0000
  C   C2356     1.0  0.88137  0.97272  0.44857  1.0000
  C   C2357     1.0  0.91068  0.57208  0.24154  1.0000
  H   H1873     1.0  0.73865  0.87804  0.40750  1.0000
  C   C2358     1.0  0.60981  0.97280  0.38614  1.0000
  S   S324      1.0  0.85124  0.90745  0.37448  1.0000
  Fe  Fe164     1.0  0.93774  0.63516  0.33439  1.0000
  S   S325      1.0  0.96051  0.63038  0.35835  1.0000
  S   S326      1.0  0.90291  0.65150  0.33703  1.0000
  Fe  Fe165     1.0  0.97204  0.61477  0.30333  1.0000
  C   C2359     1.0  0.83917  0.62776  0.25370  1.0000
  S   S327      1.0  0.97813  0.60182  0.27344  1.0000
  Fe  Fe166     1.0  0.97223  0.59741  0.35066  1.0000
  S   S328      1.0  0.97628  0.56565  0.37523  1.0000
  Fe  Fe167     1.0  0.98419  0.64241  0.33022  1.0000
  C   C2360     1.0  0.50081  0.95614  0.28081  1.0000
  S   S329      1.0  0.94705  0.60115  0.32919  1.0000
  S   S330      1.0  0.96048  0.64923  0.30650  1.0000
  C   C2361     1.0  0.91470  0.77867  0.44389  1.0000
  P   P81       1.0  0.95392  0.52171  0.26996  1.0000
  H   H1874     1.0  0.99038  0.65718  0.43099  1.0000
  H   H1875     1.0  0.80892  0.97344  0.40431  1.0000
  C   C2362     1.0  0.76547  0.92427  0.37551  1.0000
  C   C2363     1.0  0.67929  0.89455  0.43211  1.0000
  S   S331      1.0  0.50550  0.91140  0.28937  1.0000
  H   H1876     1.0  0.49907  0.99107  0.27250  1.0000
  H   H1877     1.0  0.59559  0.99087  0.40985  1.0000
  C   C2364     1.0  0.96473  0.77993  0.35467  1.0000
  H   H1878     1.0  0.85757  0.67690  0.31686  1.0000
  C   C2365     1.0  0.98473  0.54386  0.36225  1.0000
  C   C2366     1.0  0.98217  0.52246  0.37303  1.0000
  H   H1879     1.0  0.88887  0.76994  0.43164  1.0000
  H   H1880     1.0  0.75576  0.93853  0.36707  1.0000
  H   H1881     1.0  0.92650  0.50294  0.44382  1.0000
  P   P82       1.0  0.73318  0.92437  0.41064  1.0000
  H   H1882     1.0  0.97556  0.51920  0.38960  1.0000
  H   H1883     1.0  0.71341  0.85123  0.41758  1.0000
  S   S332      1.0  0.57513  0.98508  0.33524  1.0000
  C   C2367     1.0  0.75340  0.94642  0.43136  1.0000
  H   H1884     1.0  0.89302  0.79680  0.39771  1.0000
  C   C2368     1.0  0.94970  0.79086  0.36826  1.0000
  H   H1885     1.0  0.80031  0.97687  0.36547  1.0000
  H   H1886     1.0  0.57362  0.98956  0.27625  1.0000
  C   C2369     1.0  0.99423  0.78674  0.44471  1.0000
  C   C2370     1.0  0.71212  0.94572  0.37554  1.0000
  C   C2371     1.0  0.94239  0.81333  0.36196  1.0000
  C   C2372     1.0  0.68644  0.87341  0.42895  1.0000
  H   H1887     1.0  0.98859  0.72144  0.45133  1.0000
  C   C2373     1.0  0.62651  0.97026  0.36964  1.0000
  H   H1888     1.0  0.89013  0.58567  0.44691  1.0000
  C   C2374     1.0  0.70789  0.86759  0.42016  1.0000
  C   C2375     1.0  0.99374  0.61049  0.41369  1.0000
  C   C2376     1.0  0.93049  0.84668  0.44706  1.0000
  H   H1889     1.0  0.98438  0.78286  0.32417  1.0000
  C   C2377     1.0  0.51352  0.94806  0.37257  1.0000
  C   C2378     1.0  0.50339  0.93977  0.44224  1.0000
  C   C2379     1.0  0.95296  0.84653  0.44296  1.0000
  C   C2380     1.0  0.93672  0.71306  0.45382  1.0000
  C   C2381     1.0  0.93134  0.72729  0.43491  1.0000
  C   C2382     1.0  0.94708  0.73860  0.42126  1.0000
  C   C2383     1.0  0.96796  0.73609  0.42689  1.0000
  C   C2384     1.0  0.97283  0.72279  0.44642  1.0000
  C   C2385     1.0  0.95734  0.71107  0.45976  1.0000
  H   H1890     1.0  0.91525  0.72921  0.43060  1.0000
  H   H1891     1.0  0.94320  0.74872  0.40622  1.0000
  C   C2386     1.0  0.70164  0.96392  0.36227  1.0000
  Fe  Fe168     1.0  0.85271  0.90724  0.40847  1.0000
  C   C2387     1.0  0.86308  0.66367  0.39880  1.0000
  C   C2388     1.0  0.85831  0.64852  0.38877  1.0000
  C   C2389     1.0  0.87136  0.64411  0.37039  1.0000
  C   C2390     1.0  0.88952  0.65452  0.36208  1.0000
  C   C2391     1.0  0.89484  0.66918  0.37248  1.0000
  C   C2392     1.0  0.88160  0.67372  0.39092  1.0000
  H   H1892     1.0  0.84395  0.64082  0.39477  1.0000
  H   H1893     1.0  0.86693  0.63313  0.36222  1.0000
  H   H1894     1.0  0.90878  0.67741  0.36603  1.0000
  H   H1895     1.0  0.88526  0.68548  0.39860  1.0000
  H   H1896     1.0  0.88105  0.84332  0.40074  1.0000
  C   C2393     1.0  0.98427  0.77003  0.45859  1.0000
  H   H1897     1.0  0.51031  0.98491  0.40330  1.0000
  C   C2394     1.0  0.69362  0.90985  0.42658  1.0000
  C   C2395     1.0  0.89417  0.54049  0.46920  1.0000
  C   C2396     1.0  0.51108  0.93645  0.29209  1.0000
  C   C2397     1.0  0.52679  0.93672  0.30483  1.0000
  C   C2398     1.0  0.90755  0.69758  0.25483  1.0000
  H   H1898     1.0  0.60487  0.97713  0.29674  1.0000
  C   C2399     1.0  0.92123  0.83529  0.46656  1.0000
  H   H1899     1.0  0.53489  0.92149  0.31346  1.0000
  H   H1900     1.0  0.92018  0.85616  0.43536  1.0000
  C   C2400     1.0  0.69720  0.98411  0.36791  1.0000
  C   C2401     1.0  0.82666  0.95229  0.32586  1.0000
  C   C2402     1.0  0.83845  0.93401  0.33793  1.0000
  C   C2403     1.0  0.83683  0.93121  0.35993  1.0000
  C   C2404     1.0  0.82316  0.94675  0.36988  1.0000
  C   C2405     1.0  0.64237  0.98385  0.36440  1.0000
  H   H1901     1.0  0.82809  0.95434  0.30883  1.0000
  H   H1902     1.0  0.84888  0.92202  0.33017  1.0000
  H   H1903     1.0  0.82152  0.94433  0.38693  1.0000
  S   S333      1.0  0.82446  0.71508  0.45302  1.0000
  C   C2406     1.0  0.88886  0.76900  0.26249  1.0000
  C   C2407     1.0  0.86715  0.77472  0.25868  1.0000
  C   C2408     1.0  0.85044  0.77053  0.27537  1.0000
  C   C2409     1.0  0.85541  0.76064  0.29587  1.0000
  C   C2410     1.0  0.87718  0.75497  0.29987  1.0000
  C   C2411     1.0  0.89390  0.75914  0.28299  1.0000
  P   P83       1.0  0.88312  0.74165  0.32641  1.0000
  C   C2412     1.0  0.86752  0.71937  0.33467  1.0000
  C   C2413     1.0  0.91204  0.73236  0.32598  1.0000
  C   C2414     1.0  0.92098  0.71044  0.32651  1.0000
  C   C2415     1.0  0.94354  0.70404  0.32488  1.0000
  C   C2416     1.0  0.95732  0.71940  0.32257  1.0000
  C   C2417     1.0  0.94855  0.74115  0.32247  1.0000
  C   C2418     1.0  0.92599  0.74761  0.32427  1.0000
  C   C2419     1.0  0.85299  0.71703  0.35359  1.0000
  C   C2420     1.0  0.83993  0.70061  0.35893  1.0000
  C   C2421     1.0  0.84125  0.68642  0.34550  1.0000
  C   C2422     1.0  0.85572  0.68855  0.32674  1.0000
  C   C2423     1.0  0.86863  0.70508  0.32121  1.0000
  C   C2424     1.0  0.87565  0.76008  0.34423  1.0000
  C   C2425     1.0  0.88147  0.75323  0.36486  1.0000
  C   C2426     1.0  0.87508  0.76692  0.37917  1.0000
  C   C2427     1.0  0.86305  0.78759  0.37294  1.0000
  C   C2428     1.0  0.85762  0.79472  0.35231  1.0000
  C   C2429     1.0  0.86393  0.78107  0.33794  1.0000
  S   S334      1.0  0.79825  0.99032  0.31962  1.0000
  C   C2430     1.0  0.54477  0.94559  0.24801  1.0000
  H   H1904     1.0  0.83360  0.77490  0.27241  1.0000
  H   H1905     1.0  0.84229  0.75733  0.30864  1.0000
  H   H1906     1.0  0.91084  0.75464  0.28542  1.0000
  H   H1907     1.0  0.91078  0.69816  0.32821  1.0000
  H   H1908     1.0  0.95045  0.68707  0.32560  1.0000
  H   H1909     1.0  0.97483  0.71430  0.32117  1.0000
  H   H1910     1.0  0.95928  0.75295  0.32094  1.0000
  H   H1911     1.0  0.91944  0.76459  0.32396  1.0000
  H   H1912     1.0  0.85160  0.72771  0.36436  1.0000
  H   H1913     1.0  0.82926  0.69847  0.37388  1.0000
  S   S335      1.0  0.84081  0.77437  0.42827  1.0000
  H   H1914     1.0  0.96627  0.51444  0.45794  1.0000
  H   H1915     1.0  0.87976  0.70646  0.30660  1.0000
  H   H1916     1.0  0.89041  0.73706  0.37008  1.0000
  H   H1917     1.0  0.87892  0.76134  0.39531  1.0000
  H   H1918     1.0  0.85762  0.79794  0.38426  1.0000
  H   H1919     1.0  0.84819  0.81072  0.34763  1.0000
  H   H1920     1.0  0.85943  0.78693  0.32212  1.0000
  H   H1921     1.0  0.84060  0.98725  0.38097  1.0000
  C   C2431     1.0  0.84907  0.80508  0.47301  1.0000
  C   C2432     1.0  0.88022  0.59361  0.45880  1.0000
  C   C2433     1.0  0.87501  0.54206  0.46034  1.0000
  C   C2434     1.0  0.98391  0.62858  0.42236  1.0000
  H   H1922     1.0  0.71574  0.93020  0.37087  1.0000
  P   P84       1.0  0.95464  0.63678  0.42521  1.0000
  C   C2435     1.0  0.94137  0.61707  0.41861  1.0000
  C   C2436     1.0  0.94297  0.63859  0.45203  1.0000
  C   C2437     1.0  0.71525  0.90408  0.41793  1.0000
  H   H1923     1.0  0.56989  0.95779  0.25752  1.0000
  C   C2438     1.0  0.93054  0.89256  0.46335  1.0000
  H   H1924     1.0  0.93705  0.51969  0.35831  1.0000
  C   C2439     1.0  0.95552  0.64167  0.46650  1.0000
  C   C2440     1.0  0.92683  0.62353  0.40346  1.0000
  C   C2441     1.0  0.91686  0.60807  0.39837  1.0000
  C   C2442     1.0  0.92093  0.58614  0.40872  1.0000
  C   C2443     1.0  0.93482  0.57968  0.42436  1.0000
  C   C2444     1.0  0.94508  0.59506  0.42921  1.0000
  C   C2445     1.0  0.94939  0.66310  0.40746  1.0000
  C   C2446     1.0  0.96344  0.66826  0.38853  1.0000
  C   C2447     1.0  0.95984  0.68869  0.37486  1.0000
  C   C2448     1.0  0.94212  0.70411  0.37975  1.0000
  C   C2449     1.0  0.92797  0.69907  0.39841  1.0000
  C   C2450     1.0  0.93159  0.67870  0.41235  1.0000
  S   S336      1.0  0.55417  0.98628  0.39442  1.0000
  C   C2451     1.0  0.94624  0.64276  0.48715  1.0000
  H   H1925     1.0  0.83165  0.67326  0.35004  1.0000
  H   H1926     1.0  0.98417  0.60114  0.40820  1.0000
  H   H1927     1.0  0.80103  0.63642  0.33080  1.0000
  H   H1928     1.0  0.87481  0.98662  0.40114  1.0000
  H   H1929     1.0  0.89251  0.50590  0.42840  1.0000
  C   C2452     1.0  0.73649  0.92624  0.47215  1.0000
  C   C2453     1.0  0.89299  0.51554  0.43974  1.0000
  H   H1930     1.0  0.97239  0.64334  0.46219  1.0000
  H   H1931     1.0  0.92364  0.64039  0.39518  1.0000
  H   H1932     1.0  0.90631  0.61307  0.38607  1.0000
  H   H1933     1.0  0.91349  0.57417  0.40445  1.0000
  H   H1934     1.0  0.93794  0.56273  0.43242  1.0000
  H   H1935     1.0  0.95640  0.58976  0.44079  1.0000
  H   H1936     1.0  0.97737  0.65664  0.38429  1.0000
  H   H1937     1.0  0.97095  0.69252  0.36050  1.0000
  H   H1938     1.0  0.93947  0.72000  0.36918  1.0000
  H   H1939     1.0  0.91437  0.71110  0.40218  1.0000
  H   H1940     1.0  0.92060  0.67538  0.42694  1.0000
  H   H1941     1.0  0.96145  0.89864  0.38882  1.0000
  S   S337      1.0  0.86533  0.67787  0.46900  1.0000
  H   H1942     1.0  0.94151  0.49906  0.24070  1.0000
  H   H1943     1.0  0.76878  0.96424  0.44686  1.0000
  C   C2454     1.0  0.93972  0.52024  0.34146  1.0000
  C   C2455     1.0  0.95837  0.91287  0.44224  1.0000
  H   H1944     1.0  0.97169  0.82264  0.31271  1.0000
  H   H1945     1.0  0.86771  0.67885  0.23867  1.0000
  C   C2456     1.0  0.89154  0.97795  0.46357  1.0000
  H   H1946     1.0  0.98950  0.79313  0.42895  1.0000
  C   C2457     1.0  0.96547  0.81374  0.32820  1.0000
  H   H1947     1.0  0.84653  0.64120  0.46235  1.0000
  C   C2458     1.0  0.93002  0.53725  0.25863  1.0000
  P   P85       1.0  0.86537  0.64242  0.27604  1.0000
  C   C2459     1.0  0.88232  0.66367  0.26743  1.0000
  C   C2460     1.0  0.84026  0.65311  0.29046  1.0000
  C   C2461     1.0  0.83201  0.67551  0.28576  1.0000
  C   C2462     1.0  0.81295  0.68374  0.29742  1.0000
  C   C2463     1.0  0.80185  0.66969  0.31371  1.0000
  C   C2464     1.0  0.80969  0.64733  0.31823  1.0000
  C   C2465     1.0  0.82874  0.63904  0.30659  1.0000
  C   C2466     1.0  0.89800  0.66492  0.27975  1.0000
  C   C2467     1.0  0.91046  0.68186  0.27354  1.0000
  H   H1948     1.0  0.68786  0.92624  0.42902  1.0000
  S   S338      1.0  0.82729  0.89999  0.43657  1.0000
  C   C2468     1.0  0.81112  0.96508  0.35775  1.0000
  C   C2469     1.0  0.87913  0.61907  0.29322  1.0000
  C   C2470     1.0  0.89014  0.60087  0.28538  1.0000
  C   C2471     1.0  0.90058  0.58281  0.29886  1.0000
  C   C2472     1.0  0.90025  0.58290  0.32019  1.0000
  C   C2473     1.0  0.88968  0.60110  0.32802  1.0000
  C   C2474     1.0  0.87911  0.61908  0.31462  1.0000
  C   C2475     1.0  0.84824  0.83175  0.43972  1.0000
  C   C2476     1.0  0.96767  0.88339  0.47207  1.0000
  H   H1949     1.0  0.84034  0.68673  0.27328  1.0000
  H   H1950     1.0  0.80683  0.70107  0.29389  1.0000
  H   H1951     1.0  0.78713  0.67612  0.32281  1.0000
  C   C2477     1.0  0.50302  0.97461  0.41735  1.0000
  S   S339      1.0  0.86100  0.72759  0.47664  1.0000
  H   H1952     1.0  0.90094  0.65274  0.29404  1.0000
  H   H1953     1.0  0.92266  0.68246  0.28312  1.0000
  Fe  Fe169     1.0  0.85534  0.87973  0.45303  1.0000
  H   H1954     1.0  0.97129  0.53854  0.42187  1.0000
  C   C2478     1.0  0.93719  0.50232  0.33400  1.0000
  H   H1955     1.0  0.86329  0.78234  0.24278  1.0000
  H   H1956     1.0  0.72103  0.90831  0.45691  1.0000
  H   H1957     1.0  0.90855  0.56908  0.33058  1.0000
  H   H1958     1.0  0.89015  0.60156  0.34434  1.0000
  H   H1959     1.0  0.87134  0.63321  0.32088  1.0000
  H   H1960     1.0  0.94562  0.84222  0.33697  1.0000
  H   H1961     1.0  0.82678  0.62790  0.26728  1.0000
  H   H1962     1.0  0.94877  0.55239  0.33302  1.0000
  Fe  Fe170     1.0  0.84809  0.73909  0.44527  1.0000
  C   C2479     1.0  0.91168  0.63772  0.47946  1.0000
  C   C2480     1.0  0.93691  0.90873  0.44601  1.0000
  C   C2481     1.0  0.84428  0.79421  0.44134  1.0000
  S   S340      1.0  0.87986  0.88441  0.42398  1.0000
  C   C2482     1.0  0.71862  0.94777  0.39432  1.0000
  H   H1963     1.0  0.81419  0.89213  0.36743  1.0000
  C   C2483     1.0  0.51709  0.96905  0.36171  1.0000
  H   H1964     1.0  0.85202  0.97844  0.43396  1.0000
  C   C2484     1.0  0.73127  0.92070  0.45443  1.0000
  H   H1965     1.0  0.86935  0.62245  0.43564  1.0000
  C   C2485     1.0  0.74994  0.94199  0.46945  1.0000
  C   C2486     1.0  0.75894  0.91453  0.39676  1.0000
  H   H1966     1.0  0.92169  0.90278  0.38896  1.0000
  H   H1967     1.0  0.98365  0.83467  0.45509  1.0000
  H   H1968     1.0  0.96147  0.70025  0.47451  1.0000
  C   C2487     1.0  0.81259  0.98929  0.40428  1.0000
  C   C2488     1.0  0.86025  0.98285  0.44514  1.0000
  H   H1969     1.0  0.76017  0.95445  0.41567  1.0000
  H   H1970     1.0  0.76889  0.89029  0.42428  1.0000
  C   C2489     1.0  0.99090  0.76097  0.47860  1.0000
  C   C2490     1.0  0.52222  0.97628  0.29455  1.0000
  H   H1971     1.0  0.90371  0.83590  0.46957  1.0000
  H   H1972     1.0  0.94244  0.56799  0.25060  1.0000
  C   C2491     1.0  0.78523  0.91600  0.36496  1.0000
  H   H1973     1.0  0.67534  0.86155  0.43320  1.0000
  C   C2492     1.0  0.62318  0.98961  0.44352  1.0000
  Fe  Fe171     1.0  0.88511  0.70485  0.46029  1.0000
  C   C2493     1.0  0.77310  0.89732  0.40760  1.0000
  Fe  Fe172     1.0  0.84001  0.70157  0.48290  1.0000
  H   H1974     1.0  0.96310  0.92584  0.42917  1.0000
  C   C2494     1.0  0.97956  0.52382  0.45350  1.0000
  H   H1975     1.0  0.95597  0.55363  0.29466  1.0000
  C   C2495     1.0  0.95066  0.82477  0.34193  1.0000
  H   H1976     1.0  0.49556  0.91818  0.34147  1.0000
  C   C2496     1.0  0.97381  0.90006  0.45509  1.0000
  C   C2497     1.0  0.51303  0.95319  0.42430  1.0000
  H   H1977     1.0  0.51115  0.92313  0.44757  1.0000
  C   C2498     1.0  0.98762  0.50537  0.36214  1.0000
  C   C2499     1.0  0.90108  0.97117  0.38201  1.0000
  C   C2500     1.0  0.79289  0.88914  0.39700  1.0000
  C   C2501     1.0  0.81294  0.96788  0.33566  1.0000
  H   H1978     1.0  0.52598  0.93727  0.38125  1.0000
  C   C2502     1.0  0.92902  0.55981  0.25035  1.0000
  C   C2503     1.0  0.96182  0.61435  0.25311  1.0000
  C   C2504     1.0  0.85033  0.82643  0.46135  1.0000
  H   H1979     1.0  0.92657  0.95951  0.35941  1.0000
  C   C2505     1.0  0.91214  0.51391  0.44843  1.0000
  H   H1980     1.0  0.59735  0.96240  0.39007  1.0000
  H   H1981     1.0  0.88971  0.96058  0.43981  1.0000
  C   C2506     1.0  0.84620  0.78896  0.46301  1.0000
  C   C2507     1.0  0.72225  0.88287  0.41456  1.0000
  H   H1982     1.0  0.79041  0.92382  0.34869  1.0000
  H   H1983     1.0  0.83450  0.62164  0.31024  1.0000
  C   C2508     1.0  0.94634  0.53869  0.32720  1.0000
  C   C2509     1.0  0.92082  0.63691  0.45865  1.0000
  C   C2510     1.0  0.59718  0.99039  0.47512  1.0000
  C   C2511     1.0  0.79875  0.89825  0.37560  1.0000
  H   H1984     1.0  0.62696  0.95808  0.36060  1.0000
  H   H1985     1.0  0.84885  0.84829  0.43072  1.0000
  H   H1986     1.0  0.80390  0.87605  0.40548  1.0000
  C   C2512     1.0  0.85577  0.62514  0.46739  1.0000
  H   H1987     1.0  0.97192  0.76354  0.45352  1.0000
  H   H1988     1.0  0.84328  0.81985  0.41311  1.0000
  C   C2513     1.0  0.87445  0.52965  0.44567  1.0000
  C   C2514     1.0  0.95066  0.53923  0.30547  1.0000
  C   C2515     1.0  0.94863  0.52109  0.29793  1.0000
  C   C2516     1.0  0.93013  0.57836  0.48227  1.0000
  C   C2517     1.0  0.91275  0.52632  0.46311  1.0000
  C   C2518     1.0  0.70273  0.98602  0.38700  1.0000
  C   C2519     1.0  0.89316  0.53988  0.25086  1.0000
  S   S341      1.0  0.86021  0.93637  0.41696  1.0000
  H   H1989     1.0  0.55317  0.97568  0.43975  1.0000
  H   H1990     1.0  0.50347  0.88226  0.33254  1.0000
  S   S342      1.0  0.98842  0.74872  0.40952  1.0000
  H   H1991     1.0  0.85961  0.53099  0.43886  1.0000
  C   C2520     1.0  0.50659  0.97595  0.28183  1.0000
  H   H1992     1.0  0.62207  0.96311  0.47110  1.0000
  H   H1993     1.0  0.91053  0.63514  0.44774  1.0000
  C   C2521     1.0  0.53221  0.95663  0.30625  1.0000
  C   C2522     1.0  0.94147  0.50280  0.31229  1.0000
  H   H1994     1.0  0.53226  0.97449  0.36201  1.0000
  H   H1995     1.0  0.97060  0.76264  0.35998  1.0000
  C   C2523     1.0  0.84510  0.81568  0.42978  1.0000
  H   H1996     1.0  0.71769  0.97010  0.41474  1.0000
  H   H1997     1.0  0.92771  0.52474  0.46963  1.0000
  C   C2524     1.0  0.91367  0.97270  0.36219  1.0000
  H   H1998     1.0  0.75399  0.94635  0.48312  1.0000
  H   H1999     1.0  0.54435  0.95677  0.31601  1.0000
  C   C2525     1.0  0.85922  0.85274  0.37721  1.0000
  C   C2526     1.0  0.85679  0.85463  0.35605  1.0000
  C   C2527     1.0  0.87446  0.84759  0.34208  1.0000
  C   C2528     1.0  0.89467  0.83891  0.34921  1.0000
  C   C2529     1.0  0.89735  0.83733  0.37040  1.0000
  C   C2530     1.0  0.87938  0.84414  0.38437  1.0000
  P   P86       1.0  0.92361  0.82777  0.37979  1.0000
  C   C2531     1.0  0.93558  0.85052  0.38207  1.0000
  C   C2532     1.0  0.92257  0.87045  0.38422  1.0000
  C   C2533     1.0  0.93194  0.88763  0.38674  1.0000
  C   C2534     1.0  0.95440  0.88527  0.38666  1.0000
  C   C2535     1.0  0.96757  0.86567  0.38406  1.0000
  C   C2536     1.0  0.95820  0.84828  0.38199  1.0000
  C   C2537     1.0  0.91958  0.80931  0.40534  1.0000
  C   C2538     1.0  0.93042  0.79234  0.44017  1.0000
  C   C2539     1.0  0.93311  0.80739  0.42082  1.0000
  H   H2000     1.0  0.84569  0.85870  0.38794  1.0000
  H   H2001     1.0  0.84130  0.86197  0.35043  1.0000
  H   H2002     1.0  0.87257  0.84925  0.32563  1.0000
  H   H2003     1.0  0.90804  0.83369  0.33806  1.0000
  H   H2004     1.0  0.90516  0.87294  0.38409  1.0000
  H   H2005     1.0  0.95995  0.85632  0.42839  1.0000
  Fe  Fe173     1.0  0.88555  0.91324  0.43464  1.0000
  H   H2006     1.0  0.69736  0.96255  0.34738  1.0000
  H   H2007     1.0  0.96856  0.83301  0.38059  1.0000
  H   H2008     1.0  0.94422  0.78173  0.38381  1.0000
  H   H2009     1.0  0.94058  0.79118  0.45224  1.0000
  H   H2010     1.0  0.94582  0.81732  0.41801  1.0000
  S   S343      1.0  0.91819  0.69725  0.47011  1.0000
  C   C2540     1.0  0.91164  0.52750  0.25952  1.0000
  H   H2011     1.0  0.65515  0.98197  0.35142  1.0000
  H   H2012     1.0  0.84491  0.77268  0.47218  1.0000
  H   H2013     1.0  0.90921  0.56888  0.29269  1.0000
  C   C2541     1.0  0.94794  0.63416  0.25326  1.0000
  H   H2014     1.0  0.91390  0.88947  0.46643  1.0000
  Fe  Fe174     1.0  0.83717  0.92754  0.44666  1.0000
  H   H2015     1.0  0.86045  0.55286  0.46483  1.0000
  C   C2542     1.0  0.71332  0.96795  0.40023  1.0000
  H   H2016     1.0  0.98499  0.86384  0.38404  1.0000
  C   C2543     1.0  0.50119  0.98291  0.35024  1.0000
  C   C2544     1.0  0.95717  0.82261  0.47738  1.0000
  C   C2545     1.0  0.73950  0.93101  0.43388  1.0000
  C   C2546     1.0  0.95144  0.57993  0.48422  1.0000
  H   H2017     1.0  0.90421  0.95684  0.39455  1.0000
  S   S344      1.0  0.85441  0.84617  0.47416  1.0000
  H   H2018     1.0  0.94686  0.64213  0.26622  1.0000
  C   C2547     1.0  0.75836  0.95202  0.44906  1.0000
  H   H2019     1.0  0.66261  0.89914  0.43876  1.0000
  C   C2548     1.0  0.86854  0.61445  0.45233  1.0000
  S   S345      1.0  0.81429  0.95700  0.45381  1.0000
  H   H2020     1.0  0.89091  0.60063  0.26887  1.0000
  C   C2549     1.0  0.58998  0.98724  0.26793  1.0000
  H   H2021     1.0  0.91166  0.51033  0.26669  1.0000
  H   H2022     1.0  0.52836  0.94719  0.41580  1.0000
  C   C2550     1.0  0.98236  0.53729  0.43324  1.0000
  H   H2023     1.0  0.87928  0.53211  0.25101  1.0000
  C   C2551     1.0  0.99350  0.54788  0.34087  1.0000
  C   C2552     1.0  0.85926  0.63434  0.25341  1.0000
  H   H2024     1.0  0.90182  0.77213  0.24951  1.0000
  H   H2025     1.0  0.64242  0.97310  0.27836  1.0000
  H   H2026     1.0  0.91758  0.71039  0.24979  1.0000
  C   C2553     1.0  0.97734  0.53430  0.25704  1.0000
  H   H2027     1.0  0.54798  0.92962  0.25841  1.0000
  H   H2028     1.0  0.99224  0.51081  0.48310  1.0000
  H   H2029     1.0  0.90784  0.96985  0.46636  1.0000
  C   C2554     1.0  0.62882  0.97786  0.26918  1.0000
  C   C2555     1.0  0.89212  0.69639  0.24233  1.0000
  C   C2556     1.0  0.79862  0.95930  0.47817  1.0000
  H   H2030     1.0  0.95756  0.59531  0.47821  1.0000
  C   C2557     1.0  0.90960  0.99122  0.34602  1.0000
  C   C2558     1.0  0.63248  0.98227  0.24704  1.0000
  C   C2559     1.0  0.60886  0.98907  0.39726  1.0000
  C   C2560     1.0  0.88431  0.98803  0.38568  1.0000
  C   C2561     1.0  0.96155  0.49444  0.26554  1.0000
  H   H2031     1.0  0.99048  0.90293  0.45165  1.0000
  C   C2562     1.0  0.89278  0.56212  0.24170  1.0000
  H   H2032     1.0  0.89463  0.63645  0.48456  1.0000
  C   C2563     1.0  0.87951  0.67955  0.24861  1.0000
  C   C2564     1.0  0.55697  0.96180  0.24766  1.0000
  H   H2033     1.0  0.92003  0.59262  0.47438  1.0000
  C   C2565     1.0  0.99404  0.53486  0.26842  1.0000
  C   C2566     1.0  0.93448  0.82390  0.48220  1.0000
  C   C2567     1.0  0.94588  0.88009  0.47649  1.0000
  C   C2568     1.0  0.78425  0.97873  0.47892  1.0000
  C   C2569     1.0  0.87904  0.58322  0.48043  1.0000
  H   H2034     1.0  0.99310  0.52768  0.28524  1.0000
  H   H2035     1.0  0.64900  0.98075  0.23902  1.0000
  H   H2036     1.0  0.99196  0.90717  0.40930  1.0000
  S   S346      1.0  0.98716  0.86589  0.48720  1.0000
  H   H2037     1.0  0.95971  0.74792  0.57244  1.0000
  C   C2570     1.0  0.93578  0.76679  0.50949  1.0000
  S   S347      1.0  0.82273  0.68809  0.51488  1.0000
  H   H2038     1.0  0.56870  0.91573  0.69167  1.0000
  H   H2039     1.0  0.93044  0.68324  0.50921  1.0000
  P   P87       1.0  0.89450  0.55636  0.48848  1.0000
  C   C2571     1.0  0.85586  0.75715  0.54627  1.0000
  C   C2572     1.0  0.88600  0.70029  0.59780  1.0000
  H   H2040     1.0  0.98630  0.59775  0.62782  1.0000
  C   C2573     1.0  0.57456  0.98915  0.59951  1.0000
  H   H2041     1.0  0.66875  0.98179  0.49403  1.0000
  C   C2574     1.0  0.88700  0.54843  0.53248  1.0000
  C   C2575     1.0  0.95891  0.81020  0.56368  1.0000
  H   H2042     1.0  0.95664  0.56951  0.62678  1.0000
  H   H2043     1.0  0.49988  0.90469  0.49886  1.0000
  H   H2044     1.0  0.88643  0.79496  0.49716  1.0000
  C   C2576     1.0  0.92441  0.64072  0.49363  1.0000
  C   C2577     1.0  0.97727  0.71199  0.54053  1.0000
  C   C2578     1.0  0.93299  0.50932  0.69586  1.0000
  H   H2045     1.0  0.98348  0.74745  0.48853  1.0000
  Fe  Fe175     1.0  0.90098  0.62547  0.72173  1.0000
  S   S348      1.0  0.88970  0.64246  0.68997  1.0000
  Fe  Fe176     1.0  0.90930  0.59413  0.56045  1.0000
  S   S349      1.0  0.93160  0.61929  0.55353  1.0000
  S   S350      1.0  0.87465  0.59649  0.55474  1.0000
  Fe  Fe177     1.0  0.94239  0.55728  0.58009  1.0000
  S   S351      1.0  0.96766  0.57888  0.57555  1.0000
  Fe  Fe178     1.0  0.94050  0.60363  0.58623  1.0000
  S   S352      1.0  0.94950  0.62323  0.60693  1.0000
  Fe  Fe179     1.0  0.95742  0.59316  0.54342  1.0000
  C   C2579     1.0  0.93540  0.54068  0.50161  1.0000
  S   S353      1.0  0.91611  0.58056  0.59410  1.0000
  S   S354      1.0  0.93422  0.56952  0.54696  1.0000
  H   H2046     1.0  0.87234  0.68792  0.65158  1.0000
  C   C2580     1.0  0.90649  0.68556  0.55938  1.0000
  H   H2047     1.0  0.86047  0.51257  0.57072  1.0000
  H   H2048     1.0  0.91039  0.72042  0.58152  1.0000
  H   H2049     1.0  0.95124  0.76906  0.51302  1.0000
  C   C2581     1.0  0.92410  0.67438  0.57034  1.0000
  H   H2050     1.0  0.98690  0.76787  0.54734  1.0000
  H   H2051     1.0  0.91157  0.72734  0.50014  1.0000
  H   H2052     1.0  0.91999  0.68124  0.66846  1.0000
  H   H2053     1.0  0.96675  0.81062  0.57702  1.0000
  H   H2054     1.0  0.99254  0.51916  0.56544  1.0000
  H   H2055     1.0  0.91809  0.58110  0.63921  1.0000
  H   H2056     1.0  0.97499  0.69628  0.53868  1.0000
  H   H2057     1.0  0.91735  0.64203  0.50950  1.0000
  C   C2582     1.0  0.96878  0.74115  0.55942  1.0000
  C   C2583     1.0  0.98067  0.49401  0.64300  1.0000
  C   C2584     1.0  0.90607  0.63482  0.66761  1.0000
  C   C2585     1.0  0.92846  0.62791  0.66762  1.0000
  C   C2586     1.0  0.94167  0.62443  0.64891  1.0000
  C   C2587     1.0  0.93240  0.62649  0.63042  1.0000
  C   C2588     1.0  0.90987  0.63231  0.63065  1.0000
  C   C2589     1.0  0.89679  0.63691  0.64909  1.0000
  H   H2058     1.0  0.93576  0.62609  0.68181  1.0000
  H   H2059     1.0  0.95906  0.61994  0.64889  1.0000
  H   H2060     1.0  0.90264  0.63392  0.61647  1.0000
  H   H2061     1.0  0.87946  0.64212  0.64901  1.0000
  C   C2590     1.0  0.90166  0.71363  0.59669  1.0000
  S   S355      1.0  0.94819  0.52163  0.59655  1.0000
  C   C2591     1.0  0.54174  0.97029  0.69515  1.0000
  H   H2062     1.0  0.97757  0.61007  0.69220  1.0000
  H   H2063     1.0  0.89611  0.56160  0.53100  1.0000
  C   C2592     1.0  0.93315  0.74622  0.50732  1.0000
  C   C2593     1.0  0.86324  0.63306  0.58991  1.0000
  H   H2064     1.0  0.94536  0.52484  0.55181  1.0000
  H   H2065     1.0  0.83361  0.69280  0.58227  1.0000
  H   H2066     1.0  0.84999  0.80109  0.48986  1.0000
  C   C2594     1.0  0.59497  0.92577  0.66767  1.0000
  C   C2595     1.0  0.80727  0.98392  0.54789  1.0000
  C   C2596     1.0  0.99262  0.72312  0.52631  1.0000
  H   H2067     1.0  0.95273  0.49647  0.53054  1.0000
  H   H2068     1.0  0.89296  0.64635  0.58098  1.0000
  C   C2597     1.0  0.84053  0.63744  0.59281  1.0000
  C   C2598     1.0  0.95374  0.67601  0.65501  1.0000
  H   H2069     1.0  0.52805  0.94095  0.69841  1.0000
  H   H2070     1.0  0.96567  0.52744  0.63701  1.0000
  H   H2071     1.0  0.90585  0.57993  0.67736  1.0000
  C   C2599     1.0  0.94055  0.66469  0.69224  1.0000
  C   C2600     1.0  0.83750  0.66298  0.52637  1.0000
  C   C2601     1.0  0.86025  0.66009  0.52505  1.0000
  C   C2602     1.0  0.87172  0.63991  0.53444  1.0000
  C   C2603     1.0  0.86066  0.62233  0.54413  1.0000
  C   C2604     1.0  0.83797  0.62520  0.54530  1.0000
  C   C2605     1.0  0.82638  0.64560  0.53683  1.0000
  H   H2072     1.0  0.86896  0.67347  0.51705  1.0000
  H   H2073     1.0  0.88907  0.63789  0.53422  1.0000
  H   H2074     1.0  0.82932  0.61168  0.55291  1.0000
  H   H2075     1.0  0.80883  0.64776  0.53788  1.0000
  H   H2076     1.0  0.94242  0.78332  0.58064  1.0000
  H   H2077     1.0  0.95727  0.65800  0.56774  1.0000
  H   H2078     1.0  0.90552  0.85825  0.49853  1.0000
  H   H2079     1.0  0.49798  0.88477  0.63468  1.0000
  C   C2606     1.0  0.87891  0.53761  0.55270  1.0000
  C   C2607     1.0  0.96192  0.82559  0.54466  1.0000
  C   C2608     1.0  0.91345  0.74312  0.50232  1.0000
  H   H2080     1.0  0.55320  0.89645  0.58554  1.0000
  C   C2609     1.0  0.85397  0.71501  0.54262  1.0000
  C   C2610     1.0  0.88021  0.69546  0.63619  1.0000
  H   H2081     1.0  0.95355  0.83803  0.51332  1.0000
  C   C2611     1.0  0.84209  0.67620  0.58421  1.0000
  C   C2612     1.0  0.92864  0.68111  0.52623  1.0000
  C   C2613     1.0  0.79963  0.94245  0.49638  1.0000
  C   C2614     1.0  0.93821  0.80966  0.52914  1.0000
  H   H2082     1.0  0.89534  0.69624  0.52838  1.0000
  H   H2083     1.0  0.92604  0.52628  0.69498  1.0000
  C   C2615     1.0  0.86494  0.67192  0.58079  1.0000
  C   C2616     1.0  0.78629  0.94529  0.51534  1.0000
  H   H2084     1.0  0.81234  0.66241  0.59186  1.0000
  C   C2617     1.0  0.92971  0.57519  0.65052  1.0000
  C   C2618     1.0  0.95150  0.82544  0.52754  1.0000
  C   C2619     1.0  0.87542  0.65020  0.58366  1.0000
  H   H2085     1.0  0.49676  0.96713  0.51351  1.0000
  C   C2620     1.0  0.94533  0.79472  0.56563  1.0000
  C   C2621     1.0  0.93507  0.79437  0.54841  1.0000
  C   C2622     1.0  0.89672  0.82703  0.51613  1.0000
  C   C2623     1.0  0.88062  0.81682  0.53054  1.0000
  C   C2624     1.0  0.86087  0.82910  0.53686  1.0000
  C   C2625     1.0  0.85727  0.85171  0.52926  1.0000
  C   C2626     1.0  0.87355  0.86209  0.51562  1.0000
  C   C2627     1.0  0.89323  0.84984  0.50914  1.0000
  H   H2086     1.0  0.97191  0.83807  0.54323  1.0000
  H   H2087     1.0  0.82287  0.95506  0.53690  1.0000
  C   C2628     1.0  0.90881  0.68853  0.53724  1.0000
  C   C2629     1.0  0.89529  0.70931  0.63486  1.0000
  H   H2088     1.0  0.97597  0.57505  0.71769  1.0000
  P   P88       1.0  0.92235  0.81120  0.50818  1.0000
  H   H2089     1.0  0.85296  0.69884  0.54090  1.0000
  H   H2090     1.0  0.83302  0.73058  0.51871  1.0000
  H   H2091     1.0  0.89864  0.71296  0.64916  1.0000
  H   H2092     1.0  0.59101  0.98265  0.49109  1.0000
  C   C2630     1.0  0.77210  0.96494  0.51602  1.0000
  H   H2093     1.0  0.96782  0.81333  0.48881  1.0000
  C   C2631     1.0  0.95678  0.54230  0.50333  1.0000
  H   H2094     1.0  0.92417  0.78263  0.55031  1.0000
  H   H2095     1.0  0.88328  0.79938  0.53678  1.0000
  H   H2096     1.0  0.84822  0.82113  0.54748  1.0000
  H   H2097     1.0  0.84183  0.86123  0.53378  1.0000
  C   C2632     1.0  0.50313  0.96857  0.70044  1.0000
  H   H2098     1.0  0.93224  0.56627  0.70332  1.0000
  S   S356      1.0  0.93056  0.60012  0.72538  1.0000
  H   H2099     1.0  0.87075  0.87962  0.50970  1.0000
  C   C2633     1.0  0.86278  0.51488  0.53706  1.0000
  H   H2100     1.0  0.87609  0.74197  0.57053  1.0000
  H   H2101     1.0  0.91803  0.72876  0.61420  1.0000
  C   C2634     1.0  0.84268  0.73304  0.52988  1.0000
  C   C2635     1.0  0.85506  0.61528  0.48895  1.0000
  H   H2102     1.0  0.87142  0.61633  0.59184  1.0000
  H   H2103     1.0  0.85642  0.77351  0.54771  1.0000
  C   C2636     1.0  0.82996  0.65901  0.58992  1.0000
  H   H2104     1.0  0.94093  0.86757  0.48975  1.0000
  C   C2637     1.0  0.93655  0.67487  0.67157  1.0000
  C   C2638     1.0  0.86705  0.73911  0.55920  1.0000
  H   H2105     1.0  0.73025  0.91827  0.48800  1.0000
  C   C2639     1.0  0.96161  0.65498  0.69635  1.0000
  C   C2640     1.0  0.92279  0.57458  0.67201  1.0000
  C   C2641     1.0  0.95064  0.50199  0.58127  1.0000
  H   H2106     1.0  0.96431  0.64690  0.71247  1.0000
  H   H2107     1.0  0.83500  0.76806  0.52158  1.0000
  C   C2642     1.0  0.89927  0.78130  0.50080  1.0000
  H   H2108     1.0  0.92920  0.52555  0.50892  1.0000
  H   H2109     1.0  0.92245  0.67076  0.58752  1.0000
  C   C2643     1.0  0.86622  0.71781  0.55747  1.0000
  H   H2110     1.0  0.60651  0.92321  0.67888  1.0000
  C   C2644     1.0  0.92204  0.55863  0.49070  1.0000
  H   H2111     1.0  0.88184  0.54258  0.56652  1.0000
  C   C2645     1.0  0.83439  0.98390  0.51691  1.0000
  H   H2112     1.0  0.95342  0.71220  0.56813  1.0000
  H   H2113     1.0  0.97081  0.55517  0.69144  1.0000
  S   S357      1.0  0.75554  0.96886  0.53958  1.0000
  H   H2114     1.0  0.64724  0.98345  0.53625  1.0000
  H   H2115     1.0  0.96704  0.52867  0.51199  1.0000
  C   C2646     1.0  0.94389  0.66700  0.55920  1.0000
  C   C2647     1.0  0.94914  0.50792  0.55949  1.0000
  H   H2116     1.0  0.94646  0.73272  0.50911  1.0000
  C   C2648     1.0  0.96485  0.56181  0.49434  1.0000
  C   C2649     1.0  0.87547  0.69104  0.61775  1.0000
  C   C2650     1.0  0.91866  0.78437  0.50664  1.0000
  C   C2651     1.0  0.49582  0.95340  0.62717  1.0000
  H   H2117     1.0  0.52525  0.96668  0.62503  1.0000
  C   C2652     1.0  0.87081  0.52576  0.51676  1.0000
  P   P89       1.0  0.88064  0.69409  0.57388  1.0000
  C   C2653     1.0  0.97976  0.51616  0.64234  1.0000
  C   C2654     1.0  0.90613  0.71828  0.61514  1.0000
  C   C2655     1.0  0.95166  0.56883  0.64354  1.0000
  C   C2656     1.0  0.65231  0.90385  0.59817  1.0000
  C   C2657     1.0  0.66361  0.91451  0.57945  1.0000
  C   C2658     1.0  0.65385  0.93432  0.56786  1.0000
  C   C2659     1.0  0.63293  0.94363  0.57512  1.0000
  C   C2660     1.0  0.62186  0.93352  0.59439  1.0000
  C   C2661     1.0  0.63140  0.91321  0.60555  1.0000
  P   P90       1.0  0.59491  0.94595  0.60337  1.0000
  C   C2662     1.0  0.58672  0.93603  0.63132  1.0000
  C   C2663     1.0  0.59435  0.97485  0.60044  1.0000
  C   C2664     1.0  0.61348  0.98309  0.60045  1.0000
  H   H2118     1.0  0.82972  0.65052  0.72008  1.0000
  C   C2665     1.0  0.95556  0.50318  0.69320  1.0000
  C   C2666     1.0  0.97495  0.66673  0.65913  1.0000
  H   H2119     1.0  0.98133  0.56318  0.49572  1.0000
  C   C2667     1.0  0.56518  0.93245  0.63878  1.0000
  C   C2668     1.0  0.55873  0.92519  0.66045  1.0000
  C   C2669     1.0  0.57367  0.92163  0.67489  1.0000
  C   C2670     1.0  0.51450  0.97264  0.59430  1.0000
  C   C2671     1.0  0.60143  0.93315  0.64597  1.0000
  C   C2672     1.0  0.57708  0.93925  0.58795  1.0000
  C   C2673     1.0  0.57165  0.91810  0.59296  1.0000
  C   C2674     1.0  0.55754  0.91270  0.58145  1.0000
  C   C2675     1.0  0.54890  0.92831  0.56476  1.0000
  C   C2676     1.0  0.55491  0.94908  0.55921  1.0000
  C   C2677     1.0  0.56919  0.95451  0.57053  1.0000
  H   H2120     1.0  0.65979  0.88833  0.60695  1.0000
  H   H2121     1.0  0.67988  0.90738  0.57382  1.0000
  H   H2122     1.0  0.66251  0.94253  0.55324  1.0000
  H   H2123     1.0  0.62543  0.95886  0.56580  1.0000
  H   H2124     1.0  0.62277  0.90456  0.61988  1.0000
  H   H2125     1.0  0.62895  0.97244  0.60172  1.0000
  S   S358      1.0  0.98286  0.59755  0.51475  1.0000
  C   C2678     1.0  0.82294  0.63786  0.73229  1.0000
  H   H2126     1.0  0.51176  0.94111  0.49033  1.0000
  H   H2127     1.0  0.55951  0.98307  0.60031  1.0000
  H   H2128     1.0  0.55324  0.93527  0.62796  1.0000
  H   H2129     1.0  0.54206  0.92233  0.66596  1.0000
  C   C2679     1.0  0.49859  0.97008  0.58305  1.0000
  H   H2130     1.0  0.51375  0.90947  0.60270  1.0000
  H   H2131     1.0  0.61790  0.93656  0.64060  1.0000
  H   H2132     1.0  0.57819  0.90584  0.60588  1.0000
  C   C2680     1.0  0.94612  0.67040  0.53714  1.0000
  H   H2133     1.0  0.53763  0.92438  0.55603  1.0000
  H   H2134     1.0  0.54826  0.96106  0.54624  1.0000
  H   H2135     1.0  0.57396  0.97057  0.56564  1.0000
  C   C2681     1.0  0.84372  0.75412  0.53159  1.0000
  H   H2136     1.0  0.80686  0.62740  0.71100  1.0000
  H   H2137     1.0  0.85325  0.50198  0.53887  1.0000
  H   H2138     1.0  0.88144  0.75839  0.49470  1.0000
  C   C2682     1.0  0.96689  0.56163  0.65809  1.0000
  H   H2139     1.0  0.84483  0.97477  0.50618  1.0000
  C   C2683     1.0  0.98427  0.75236  0.54520  1.0000
  H   H2140     1.0  0.95052  0.68377  0.63897  1.0000
  H   H2141     1.0  0.98629  0.53640  0.73292  1.0000
  H   H2142     1.0  0.96618  0.51527  0.69045  1.0000
  C   C2684     1.0  0.51313  0.96432  0.61633  1.0000
  S   S359      1.0  0.50007  0.97945  0.55533  1.0000
  C   C2685     1.0  0.88302  0.54264  0.51435  1.0000
  C   C2686     1.0  0.49857  0.90397  0.60264  1.0000
  C   C2687     1.0  0.86684  0.52081  0.55501  1.0000
  H   H2143     1.0  0.86380  0.68017  0.61924  1.0000
  C   C2688     1.0  0.95972  0.56098  0.67970  1.0000
  H   H2144     1.0  0.83118  0.62410  0.59687  1.0000
  C   C2689     1.0  0.97199  0.52856  0.73704  1.0000
  H   H2145     1.0  0.79697  0.97521  0.56089  1.0000
  H   H2146     1.0  0.86598  0.58736  0.51234  1.0000
  C   C2690     1.0  0.86672  0.59444  0.49551  1.0000
  H   H2147     1.0  0.96124  0.66443  0.52842  1.0000
  H   H2148     1.0  0.98808  0.66830  0.64620  1.0000
  H   H2149     1.0  0.86735  0.52099  0.50312  1.0000
  H   H2150     1.0  0.81059  0.92735  0.49581  1.0000
  C   C2691     1.0  0.95334  0.49188  0.54742  1.0000
  C   C2692     1.0  0.52471  0.95827  0.69803  1.0000
  C   C2693     1.0  0.49838  0.99113  0.69937  1.0000
  C   C2694     1.0  0.96526  0.72099  0.55707  1.0000
  H   H2151     1.0  0.78705  0.93236  0.52949  1.0000
  C   C2695     1.0  0.93777  0.56732  0.68658  1.0000
  C   C2696     1.0  0.91936  0.49346  0.70069  1.0000
  H   H2152     1.0  0.98841  0.62574  0.54140  1.0000
  H   H2153     1.0  0.95595  0.64545  0.49809  1.0000
  C   C2697     1.0  0.49983  0.93667  0.50398  1.0000
  H   H2154     1.0  0.92714  0.66372  0.70497  1.0000
  C   C2698     1.0  0.89647  0.76063  0.49922  1.0000
  C   C2699     1.0  0.81009  0.62478  0.72721  1.0000
  H   H2155     1.0  0.84554  0.62391  0.50058  1.0000
  C   C2700     1.0  0.98877  0.58418  0.71742  1.0000
  C   C2701     1.0  0.97397  0.50647  0.73711  1.0000
  H   H2156     1.0  0.52791  0.98083  0.58600  1.0000
  C   C2702     1.0  0.82188  0.97258  0.53435  1.0000
  H   H2157     1.0  0.90191  0.49847  0.70314  1.0000
  C   C2703     1.0  0.98968  0.60419  0.70302  1.0000
  C   C2704     1.0  0.97892  0.65553  0.67976  1.0000
  H   H2158     1.0  0.55847  0.96227  0.69335  1.0000
  C   C2705     1.0  0.77105  0.98153  0.49772  1.0000
  Fe  Fe180     1.0  0.88766  0.61857  0.76959  1.0000
  C   C2706     1.0  0.98502  0.54243  0.94696  1.0000
  S   S360      1.0  0.86239  0.63190  0.79370  1.0000
  C   C2707     1.0  0.92240  0.57745  0.86688  1.0000
  H   H2159     1.0  0.56756  0.85968  0.92251  1.0000
  S   S361      1.0  0.86843  0.51520  0.88066  1.0000
  C   C2708     1.0  0.51613  0.98973  0.77128  1.0000
  H   H2160     1.0  0.92078  0.50004  0.75156  1.0000
  S   S362      1.0  0.91593  0.59226  0.77730  1.0000
  S   S363      1.0  0.60174  0.52566  0.84028  1.0000
  Fe  Fe181     1.0  0.55995  0.57514  0.96032  1.0000
  S   S364      1.0  0.57494  0.59487  0.92987  1.0000
  H   H2161     1.0  0.96524  0.50385  0.90106  1.0000
  Fe  Fe182     1.0  0.51671  0.60483  0.96009  1.0000
  S   S365      1.0  0.52788  0.62683  0.92963  1.0000
  H   H2162     1.0  0.93343  0.58562  0.85420  1.0000
  Fe  Fe183     1.0  0.54301  0.59630  0.91867  1.0000
  S   S366      1.0  0.53730  0.59320  0.88669  1.0000
  Fe  Fe184     1.0  0.55866  0.62363  0.94377  1.0000
  S   S367      1.0  0.57381  0.65423  0.93826  1.0000
  S   S368      1.0  0.52907  0.57452  0.94802  1.0000
  H   H2163     1.0  0.49857  0.64386  0.89673  1.0000
  C   C2709     1.0  0.57604  0.82687  0.91775  1.0000
  C   C2710     1.0  0.70560  0.57007  0.97376  1.0000
  C   C2711     1.0  0.52237  0.98059  0.75338  1.0000
  C   C2712     1.0  0.77948  0.61071  0.83392  1.0000
  H   H2164     1.0  0.84650  0.52431  0.75096  1.0000
  C   C2713     1.0  0.98669  0.53203  0.85953  1.0000
  S   S369      1.0  0.53319  0.81162  0.95631  1.0000
  H   H2165     1.0  0.52708  0.95125  0.74146  1.0000
  C   C2714     1.0  0.53248  0.51386  0.87693  1.0000
  H   H2166     1.0  0.96829  0.58416  0.82938  1.0000
  C   C2715     1.0  0.98226  0.52099  0.94827  1.0000
  Fe  Fe185     1.0  0.63361  0.51154  0.85291  1.0000
  C   C2716     1.0  0.79097  0.56825  0.82741  1.0000
  C   C2717     1.0  0.98131  0.60716  0.77719  1.0000
  H   H2167     1.0  0.99102  0.55191  0.88024  1.0000
  C   C2718     1.0  0.75887  0.55315  0.95948  1.0000
  C   C2719     1.0  0.88453  0.54537  0.97110  1.0000
  H   H2168     1.0  0.52517  0.65358  0.95822  1.0000
  C   C2720     1.0  0.51230  0.82368  0.94056  1.0000
  C   C2721     1.0  0.51433  0.84265  0.92462  1.0000
  S   S370      1.0  0.65093  0.51230  0.92314  1.0000
  C   C2722     1.0  0.95434  0.55580  0.92706  1.0000
  H   H2169     1.0  0.86831  0.57601  0.88193  1.0000
  C   C2723     1.0  0.51850  0.52101  0.97981  1.0000
  H   H2170     1.0  0.52846  0.85057  0.92253  1.0000
  C   C2724     1.0  0.77850  0.56168  0.95311  1.0000
  H   H2171     1.0  0.50208  0.71427  0.97665  1.0000
  C   C2725     1.0  0.60131  0.72797  0.97197  1.0000
  H   H2172     1.0  0.55553  0.53807  0.93447  1.0000
  H   H2173     1.0  0.96025  0.52591  0.79367  1.0000
  C   C2726     1.0  0.59157  0.76115  0.93639  1.0000
  C   C2727     1.0  0.86057  0.59095  0.81984  1.0000
  H   H2174     1.0  0.55221  0.98677  0.78968  1.0000
  S   S371      1.0  0.96947  0.61965  0.75375  1.0000
  S   S372      1.0  0.87865  0.60467  0.74467  1.0000
  H   H2175     1.0  0.95136  0.59961  0.79640  1.0000
  S   S373      1.0  0.54646  0.60359  0.97535  1.0000
  H   H2176     1.0  0.51493  0.60973  0.79394  1.0000
  C   C2728     1.0  0.77993  0.55535  0.91790  1.0000
  H   H2177     1.0  0.53497  0.51608  0.92105  1.0000
  C   C2729     1.0  0.51040  0.97617  0.79106  1.0000
  C   C2730     1.0  0.56927  0.66834  0.95898  1.0000
  C   C2731     1.0  0.56617  0.69121  0.95397  1.0000
  C   C2732     1.0  0.51740  0.66242  0.97020  1.0000
  Fe  Fe186     1.0  0.86521  0.49917  0.85477  1.0000
  C   C2733     1.0  0.95124  0.49608  0.90194  1.0000
  C   C2734     1.0  0.58359  0.76420  0.95695  1.0000
  H   H2178     1.0  0.56670  0.69996  0.93762  1.0000
  C   C2735     1.0  0.93510  0.50794  0.74772  1.0000
  Fe  Fe187     1.0  0.90875  0.58037  0.75010  1.0000
  H   H2179     1.0  0.75780  0.50019  0.94561  1.0000
  C   C2736     1.0  0.60978  0.80672  0.92992  1.0000
  H   H2180     1.0  0.85795  0.55928  0.84064  1.0000
  C   C2737     1.0  0.83683  0.58493  0.85344  1.0000
  C   C2738     1.0  0.58439  0.54418  0.85388  1.0000
  C   C2739     1.0  0.58855  0.54717  0.87323  1.0000
  C   C2740     1.0  0.57420  0.56217  0.88360  1.0000
  C   C2741     1.0  0.55574  0.57416  0.87458  1.0000
  C   C2742     1.0  0.55168  0.57108  0.85531  1.0000
  C   C2743     1.0  0.56587  0.55610  0.84505  1.0000
  H   H2181     1.0  0.60276  0.53789  0.88024  1.0000
  H   H2182     1.0  0.57748  0.56449  0.89847  1.0000
  H   H2183     1.0  0.53754  0.58040  0.84824  1.0000
  H   H2184     1.0  0.56263  0.55388  0.83012  1.0000
  C   C2744     1.0  0.85327  0.61344  0.81672  1.0000
  C   C2745     1.0  0.83799  0.62160  0.83208  1.0000
  H   H2185     1.0  0.83238  0.63897  0.82975  1.0000
  C   C2746     1.0  0.75004  0.54569  0.94486  1.0000
  C   C2747     1.0  0.92810  0.53981  0.80466  1.0000
  C   C2748     1.0  0.83384  0.51975  0.96364  1.0000
  C   C2749     1.0  0.82991  0.60742  0.85042  1.0000
  C   C2750     1.0  0.63322  0.58513  0.86065  1.0000
  C   C2751     1.0  0.64551  0.58624  0.84068  1.0000
  C   C2752     1.0  0.66814  0.58462  0.83865  1.0000
  C   C2753     1.0  0.67850  0.58207  0.85654  1.0000
  C   C2754     1.0  0.66632  0.58081  0.87672  1.0000
  C   C2755     1.0  0.64356  0.58222  0.87862  1.0000
  P   P91       1.0  0.67983  0.57702  0.89994  1.0000
  C   C2756     1.0  0.65947  0.58409  0.92117  1.0000
  C   C2757     1.0  0.94924  0.52932  0.80742  1.0000
  P   P92       1.0  0.58612  0.78327  0.91384  1.0000
  C   C2758     1.0  0.78896  0.56277  0.93233  1.0000
  C   C2759     1.0  0.66577  0.50123  0.96155  1.0000
  H   H2186     1.0  0.72370  0.59514  0.76454  1.0000
  C   C2760     1.0  0.49863  0.49585  0.86859  1.0000
  C   C2761     1.0  0.65394  0.60584  0.92336  1.0000
  C   C2762     1.0  0.63663  0.61165  0.93837  1.0000
  C   C2763     1.0  0.62468  0.59585  0.95120  1.0000
  C   C2764     1.0  0.63002  0.57425  0.94902  1.0000
  C   C2765     1.0  0.64730  0.56840  0.93410  1.0000
  C   C2766     1.0  0.69982  0.59519  0.89460  1.0000
  C   C2767     1.0  0.69784  0.61462  0.87893  1.0000
  C   C2768     1.0  0.71369  0.62830  0.87465  1.0000
  C   C2769     1.0  0.73148  0.62280  0.88611  1.0000
  C   C2770     1.0  0.73332  0.60372  0.90203  1.0000
  C   C2771     1.0  0.71749  0.59005  0.90634  1.0000
  H   H2187     1.0  0.61572  0.58575  0.86232  1.0000
  H   H2188     1.0  0.63752  0.58766  0.82692  1.0000
  H   H2189     1.0  0.90756  0.53960  0.85598  1.0000
  H   H2190     1.0  0.69607  0.58069  0.85462  1.0000
  H   H2191     1.0  0.63364  0.58075  0.89392  1.0000
  H   H2192     1.0  0.62137  0.79181  0.93271  1.0000
  H   H2193     1.0  0.86875  0.53919  0.80322  1.0000
  H   H2194     1.0  0.56109  0.82779  0.91145  1.0000
  H   H2195     1.0  0.94473  0.52082  0.86123  1.0000
  H   H2196     1.0  0.66251  0.61845  0.91312  1.0000
  H   H2197     1.0  0.63198  0.62852  0.93969  1.0000
  H   H2198     1.0  0.61093  0.60044  0.96246  1.0000
  H   H2199     1.0  0.62037  0.56210  0.95846  1.0000
  H   H2200     1.0  0.65065  0.55177  0.93220  1.0000
  H   H2201     1.0  0.68407  0.61926  0.87003  1.0000
  H   H2202     1.0  0.71217  0.64318  0.86243  1.0000
  H   H2203     1.0  0.74378  0.63337  0.88274  1.0000
  H   H2204     1.0  0.74704  0.59950  0.91102  1.0000
  H   H2205     1.0  0.71907  0.57549  0.91884  1.0000
  C   C2772     1.0  0.95564  0.49595  0.74315  1.0000
  C   C2773     1.0  0.90750  0.50722  0.95963  1.0000
  C   C2774     1.0  0.51683  0.94498  0.77498  1.0000
  Fe  Fe188     1.0  0.93547  0.61416  0.75214  1.0000
  C   C2775     1.0  0.95137  0.53428  0.92833  1.0000
  C   C2776     1.0  0.96534  0.51689  0.93923  1.0000
  P   P93       1.0  0.92689  0.52919  0.92093  1.0000
  C   C2777     1.0  0.90843  0.52740  0.94525  1.0000
  C   C2778     1.0  0.91637  0.55063  0.89990  1.0000
  C   C2779     1.0  0.89385  0.55581  0.89903  1.0000
  C   C2780     1.0  0.88570  0.57201  0.88244  1.0000
  H   H2206     1.0  0.78473  0.55788  0.86138  1.0000
  H   H2207     1.0  0.71148  0.51160  0.94994  1.0000
  C   C2781     1.0  0.93062  0.56129  0.88349  1.0000
  H   H2208     1.0  0.54604  0.52086  0.87920  1.0000
  C   C2782     1.0  0.55226  0.51112  0.92152  1.0000
  C   C2783     1.0  0.83638  0.51031  0.98491  1.0000
  H   H2209     1.0  0.74778  0.52860  0.79215  1.0000
  C   C2784     1.0  0.89702  0.54652  0.95120  1.0000
  C   C2785     1.0  0.93072  0.50456  0.91118  1.0000
  C   C2786     1.0  0.85237  0.57666  0.83826  1.0000
  H   H2210     1.0  0.73526  0.53864  0.94966  1.0000
  H   H2211     1.0  0.78534  0.62133  0.80011  1.0000
  C   C2787     1.0  0.96867  0.59874  0.79603  1.0000
  H   H2212     1.0  0.89353  0.59516  0.85335  1.0000
  H   H2213     1.0  0.77507  0.59544  0.86723  1.0000
  H   H2214     1.0  0.61058  0.73827  0.91822  1.0000
  H   H2215     1.0  0.77544  0.62715  0.83648  1.0000
  H   H2216     1.0  0.88254  0.54723  0.91102  1.0000
  H   H2217     1.0  0.55936  0.72052  0.96597  1.0000
  C   C2788     1.0  0.99155  0.51133  0.85465  1.0000
  S   S374      1.0  0.83258  0.51864  0.84827  1.0000
  H   H2218     1.0  0.94807  0.55703  0.88340  1.0000
  C   C2789     1.0  0.60430  0.74120  0.93381  1.0000
  H   H2219     1.0  0.62769  0.82414  0.94365  1.0000
  C   C2790     1.0  0.73696  0.58284  0.77029  1.0000
  H   H2220     1.0  0.50528  0.54817  0.92399  1.0000
  H   H2221     1.0  0.89801  0.56233  0.94062  1.0000
  C   C2791     1.0  0.73378  0.56107  0.77765  1.0000
  C   C2792     1.0  0.68314  0.57205  0.97360  1.0000
  H   H2222     1.0  0.67448  0.58645  0.96417  1.0000
  H   H2223     1.0  0.61850  0.70912  0.94960  1.0000
  H   H2224     1.0  0.71806  0.55648  0.77779  1.0000
  H   H2225     1.0  0.94320  0.56953  0.91969  1.0000
  H   H2226     1.0  0.78195  0.52075  0.85414  1.0000
  H   H2227     1.0  0.58480  0.75529  0.88533  1.0000
  H   H2228     1.0  0.51862  0.49906  0.95962  1.0000
  C   C2793     1.0  0.60908  0.72468  0.95157  1.0000
  H   H2229     1.0  0.84034  0.51551  0.93151  1.0000
  C   C2794     1.0  0.61250  0.75900  0.86143  1.0000
  C   C2795     1.0  0.51077  0.95391  0.79288  1.0000
  C   C2796     1.0  0.75096  0.52591  0.84232  1.0000
  C   C2797     1.0  0.56917  0.65721  0.98024  1.0000
  S   S375      1.0  0.70980  0.53159  0.83132  1.0000
  H   H2230     1.0  0.49503  0.61908  0.87498  1.0000
  C   C2798     1.0  0.91266  0.49464  0.91131  1.0000
  H   H2231     1.0  0.79531  0.55171  0.82516  1.0000
  C   C2799     1.0  0.63570  0.78394  0.86437  1.0000
  H   H2232     1.0  0.74929  0.54354  0.83886  1.0000
  C   C2800     1.0  0.52482  0.50135  0.97318  1.0000
  C   C2801     1.0  0.89993  0.58284  0.86637  1.0000
  H   H2233     1.0  0.89678  0.55168  0.81988  1.0000
  H   H2234     1.0  0.92302  0.54420  0.78903  1.0000
  H   H2235     1.0  0.68996  0.54813  0.94075  1.0000
  C   C2802     1.0  0.75063  0.54528  0.78567  1.0000
  C   C2803     1.0  0.69413  0.54938  0.90702  1.0000
  C   C2804     1.0  0.49582  0.70813  0.91221  1.0000
  C   C2805     1.0  0.60365  0.77820  0.89022  1.0000
  H   H2236     1.0  0.85165  0.49334  0.81578  1.0000
  C   C2806     1.0  0.91327  0.54398  0.82209  1.0000
  C   C2807     1.0  0.71664  0.51743  0.89656  1.0000
  Fe  Fe189     1.0  0.65636  0.50314  0.89167  1.0000
  C   C2808     1.0  0.93304  0.53022  0.74701  1.0000
  H   H2237     1.0  0.56337  0.81026  0.87882  1.0000
  C   C2809     1.0  0.50153  0.51720  0.85835  1.0000
  P   P94       1.0  0.74585  0.54965  0.98659  1.0000
  C   C2810     1.0  0.56194  0.70292  0.97009  1.0000
  C   C2811     1.0  0.58616  0.51766  0.92956  1.0000
  H   H2238     1.0  0.79278  0.59749  0.73849  1.0000
  C   C2812     1.0  0.52256  0.95830  0.75525  1.0000
  H   H2239     1.0  0.59522  0.52757  0.93505  1.0000
  H   H2240     1.0  0.80429  0.56904  0.92743  1.0000
  S   S376      1.0  0.90716  0.54548  0.75071  1.0000
  H   H2241     1.0  0.81653  0.51565  0.80674  1.0000
  H   H2242     1.0  0.78223  0.51569  0.97617  1.0000
  H   H2243     1.0  0.65523  0.51578  0.96475  1.0000
  H   H2244     1.0  0.64995  0.79189  0.85847  1.0000
  C   C2813     1.0  0.50397  0.60735  0.80866  1.0000
  H   H2245     1.0  0.97770  0.54558  0.84940  1.0000
  H   H2246     1.0  0.70187  0.54455  0.87476  1.0000
  C   C2814     1.0  0.61341  0.82499  0.93617  1.0000
  H   H2247     1.0  0.89658  0.50113  0.91804  1.0000
  C   C2815     1.0  0.57964  0.84507  0.92413  1.0000
  C   C2816     1.0  0.59831  0.84415  0.93331  1.0000
  S   S377      1.0  0.89162  0.49923  0.82722  1.0000
  C   C2817     1.0  0.75695  0.58884  0.77113  1.0000
  H   H2248     1.0  0.51680  0.92772  0.77646  1.0000
  C   C2818     1.0  0.56377  0.52361  0.92912  1.0000
  H   H2249     1.0  0.60876  0.74758  0.85329  1.0000
  H   H2250     1.0  0.61745  0.51520  0.97965  1.0000
  S   S378      1.0  0.52186  0.75101  0.97605  1.0000
  C   C2819     1.0  0.55845  0.78639  0.90828  1.0000
  C   C2820     1.0  0.55193  0.80087  0.88976  1.0000
  C   C2821     1.0  0.53036  0.80399  0.88570  1.0000
  C   C2822     1.0  0.51527  0.79238  0.89989  1.0000
  C   C2823     1.0  0.52178  0.77752  0.91804  1.0000
  C   C2824     1.0  0.54331  0.77445  0.92219  1.0000
  H   H2251     1.0  0.52124  0.54248  0.85421  1.0000
  H   H2252     1.0  0.50573  0.98272  0.80514  1.0000
  C   C2825     1.0  0.77408  0.57299  0.77886  1.0000
  H   H2253     1.0  0.57192  0.63957  0.98424  1.0000
  H   H2254     1.0  0.62622  0.79987  0.89034  1.0000
  C   C2826     1.0  0.71954  0.50803  0.91765  1.0000
  H   H2255     1.0  0.81808  0.61390  0.86218  1.0000
  H   H2256     1.0  0.60083  0.85816  0.93859  1.0000
  C   C2827     1.0  0.63087  0.76925  0.85383  1.0000
  C   C2828     1.0  0.97829  0.58999  0.81475  1.0000
  H   H2257     1.0  0.57351  0.77935  0.95934  1.0000
  C   C2829     1.0  0.85623  0.54142  0.79308  1.0000
  S   S379      1.0  0.65284  0.53142  0.86409  1.0000
  C   C2830     1.0  0.76938  0.51309  0.85095  1.0000
  H   H2258     1.0  0.82559  0.53633  0.95931  1.0000
  C   C2831     1.0  0.62218  0.78840  0.88252  1.0000
  H   H2259     1.0  0.52512  0.81590  0.87191  1.0000
  H   H2260     1.0  0.97344  0.57644  0.93525  1.0000
  H   H2261     1.0  0.50989  0.76913  0.92944  1.0000
  H   H2262     1.0  0.54793  0.76325  0.93652  1.0000
  C   C2832     1.0  0.76048  0.54681  0.92415  1.0000
  H   H2263     1.0  0.87227  0.58464  0.80790  1.0000
  H   H2264     1.0  0.78814  0.55598  0.90193  1.0000
  H   H2265     1.0  0.75363  0.54086  0.91297  1.0000
  H   H2266     1.0  0.78606  0.56701  0.96416  1.0000
  C   C2833     1.0  0.82772  0.63411  0.75303  1.0000
  S   S380      1.0  0.82578  0.56765  0.87641  1.0000
  H   H2267     1.0  0.92595  0.49431  0.79407  1.0000
  H   H2268     1.0  0.52016  0.69377  0.94957  1.0000
  C   C2834     1.0  0.79173  0.58605  0.80996  1.0000
  C   C2835     1.0  0.70393  0.53792  0.89123  1.0000
  C   C2836     1.0  0.85934  0.52959  0.77728  1.0000
  H   H2269     1.0  0.50084  0.73972  0.91557  1.0000
  C   C2837     1.0  0.94049  0.52655  0.84532  1.0000
  C   C2838     1.0  0.73416  0.51590  0.83924  1.0000
  Fe  Fe190     1.0  0.52214  0.78395  0.98212  1.0000
  C   C2839     1.0  0.84364  0.53300  0.76363  1.0000
  H   H2270     1.0  0.81303  0.55124  0.75476  1.0000
  S   S381      1.0  0.81796  0.50669  0.89972  1.0000
  C   C2840     1.0  0.83739  0.55657  0.79536  1.0000
  C   C2841     1.0  0.97126  0.55982  0.93615  1.0000
  C   C2842     1.0  0.82144  0.55995  0.78191  1.0000
  H   H2271     1.0  0.83551  0.56598  0.80730  1.0000
  C   C2843     1.0  0.53114  0.71974  0.90872  1.0000
  C   C2844     1.0  0.54151  0.69953  0.90485  1.0000
  C   C2845     1.0  0.52919  0.68364  0.90469  1.0000
  C   C2846     1.0  0.77066  0.55122  0.78642  1.0000
  H   H2272     1.0  0.51103  0.57229  0.81457  1.0000
  C   C2847     1.0  0.51452  0.68514  0.96527  1.0000
  C   C2848     1.0  0.91939  0.53718  0.84244  1.0000
  Fe  Fe191     1.0  0.83473  0.53218  0.87602  1.0000
  H   H2273     1.0  0.72395  0.50866  0.88431  1.0000
  C   C2849     1.0  0.69726  0.53980  0.92822  1.0000
  C   C2850     1.0  0.59109  0.80754  0.92057  1.0000
  C   C2851     1.0  0.73634  0.49316  0.84370  1.0000
  H   H2274     1.0  0.83822  0.64382  0.75687  1.0000
  H   H2275     1.0  0.54072  0.73193  0.90924  1.0000
  H   H2276     1.0  0.55914  0.69591  0.90245  1.0000
  H   H2277     1.0  0.53743  0.66793  0.90192  1.0000
  Fe  Fe192     1.0  0.68220  0.51335  0.84811  1.0000
  H   H2278     1.0  0.49502  0.96775  0.85067  1.0000
  C   C2852     1.0  0.78467  0.57167  0.84794  1.0000
  H   H2279     1.0  0.75881  0.60592  0.76636  1.0000
  H   H2280     1.0  0.67776  0.58470  0.82329  1.0000
  H   H2281     1.0  0.87430  0.51827  0.77533  1.0000
  C   C2853     1.0  0.59894  0.76344  0.87955  1.0000
  S   S382      1.0  0.66273  0.49577  0.83408  1.0000
  P   P95       1.0  0.79833  0.58113  0.78354  1.0000
  C   C2854     1.0  0.82475  0.54822  0.76585  1.0000
  C   C2855     1.0  0.51851  0.52615  0.86246  1.0000
  C   C2856     1.0  0.95565  0.52273  0.82779  1.0000
  C   C2857     1.0  0.78552  0.60733  0.81331  1.0000
  C   C2858     1.0  0.77912  0.59288  0.85123  1.0000
  C   C2859     1.0  0.56314  0.49246  0.91442  1.0000
  C   C2860     1.0  0.84222  0.50798  0.94789  1.0000
  C   C2861     1.0  0.81991  0.61715  0.76865  1.0000
  H   H2282     1.0  0.79764  0.49797  0.94473  1.0000
  H   H2283     1.0  0.82481  0.61380  0.78434  1.0000
  H   H2284     1.0  0.64138  0.76580  0.83978  1.0000
  H   H2285     1.0  0.96277  0.50019  0.94135  1.0000
  C   C2862     1.0  0.80202  0.60795  0.74288  1.0000
  C   C2863     1.0  0.70981  0.51919  0.93348  1.0000
  H   H2286     1.0  0.78311  0.53898  0.79369  1.0000
  P   P96       1.0  0.98209  0.50696  0.83166  1.0000
  C   C2864     1.0  0.50840  0.72404  0.91239  1.0000
  C   C2865     1.0  0.80659  0.60424  0.76381  1.0000
  C   C2866     1.0  0.49808  0.85127  0.91120  1.0000
  C   C2867     1.0  0.66725  0.49594  0.94183  1.0000
  C   C2868     1.0  0.95159  0.54034  0.74246  1.0000
  H   H2287     1.0  0.91651  0.49230  0.95561  1.0000
  H   H2288     1.0  0.71421  0.58304  0.96425  1.0000
  C   C2869     1.0  0.58848  0.74767  0.97464  1.0000
  H   H2289     1.0  0.49719  0.67536  0.90849  1.0000
  H   H2290     1.0  0.52705  0.99056  0.73803  1.0000
  H   H2291     1.0  0.50748  0.53408  0.97135  1.0000
  H   H2292     1.0  0.87549  0.56007  0.97560  1.0000
  H   H2293     1.0  0.50609  0.94355  0.80817  1.0000
  H   H2294     1.0  0.57583  0.98880  0.81509  1.0000
  H   H2295     1.0  0.99300  0.50758  0.95674  1.0000
  C   C2870     1.0  0.52926  0.49264  0.88779  1.0000
  C   C2871     1.0  0.67174  0.55551  0.98578  1.0000
  C   C2872     1.0  0.81861  0.49811  0.80900  1.0000
  C   C2873     1.0  0.89518  0.50618  0.97959  1.0000
  C   C2874     1.0  0.59691  0.49890  0.92293  1.0000
  H   H2296     1.0  0.72883  0.49186  0.92174  1.0000
  H   H2297     1.0  0.95013  0.55726  0.74295  1.0000
  C   C2875     1.0  0.50646  0.68787  0.90844  1.0000
  S   S383      1.0  0.90763  0.64167  0.74625  1.0000
  H   H2298     1.0  0.61423  0.49444  0.92315  1.0000
  C   C2876     1.0  0.99416  0.53568  0.87707  1.0000
  C   C2877     1.0  0.50462  0.69668  0.98068  1.0000
  H   H2299     1.0  0.49994  0.86548  0.89849  1.0000
  H   H2300     1.0  0.60451  0.71498  0.98576  1.0000
  C   C2878     1.0  0.71681  0.55161  0.98634  1.0000
  H   H2301     1.0  0.78621  0.49773  0.80289  1.0000
  S   S384      1.0  0.57723  0.54222  0.97433  1.0000
  C   C2879     1.0  0.88372  0.52524  0.98532  1.0000
  C   C2880     1.0  0.50173  0.58625  0.82028  1.0000
  H   H2302     1.0  0.49837  0.79547  0.89719  1.0000
  H   H2303     1.0  0.65428  0.55705  0.98596  1.0000
  H   H2304     1.0  0.50621  0.98572  0.90129  1.0000
