data_image0
_chemical_formula_structural       HSFeS2FeSFeS2H4SFeHSHCHCFeH2FeS2FeCFeS3HCHC2HFeSCFeS2FeS2FeSFeS4CH2C5HC6H2SC7H4C3HC4HC2S3PHPC8H5PCHFeHC2HC6H9C8H4C6H3C2H4CHPC4HCHC12H4CH7C6PC18H20C2HCHCHCHCH3C8H5C3H2C4H5C3HFeH4CH2C3PC3H4CH2FeH2CHC3H3C6PC10H2C6H11C4H2CHC3HC3H6CPCHCPHC2HCHCHCHC4H2C2HCH2CHCHC2FeH2PH3C3H3CH2SCFeCHS2C3H2CHC2SHCHC2HC2H5C6HCHSCH2C3FeC2FeC2H3C2H2SCHC4S2H2C2HC2HC2H2C3HC2H3C2HC2HC3HC2H2CHCH2CHCHC3H2C2H3C2H2CSCHCH2CHCSHC2SCHC3H3C7SH3CH4C2H6C7HC3HCHC5PHC4HCHC3HC2SH3C2SH3CHC3H2C6PC7H2C9H4CH2CHCH4CH3C2HCHC2H4C4HCHCH3PHC6FeS2FeS2FeSFeS3HCH3SCFeSH2FeS2FeS2FeSFeS3H3FeS2HCFeSHS2CHFeS2FeS2FeSFeS4H2SCSCFeS2FeSC7H2C6H3C6H4C5HCHCH4FeHFeC2HC6H4C4H2C6H4C6H4CHC2HC3HC2HC6H4C6H4C6H4CH3CH3CH3C2H2C5HC2HC2H2C5H6CH2CH5CHCHCH8CFeC11PC18H20S2CPC15HCHCH12C8PC2H2C3H4C7HCH3C2HSC3H6C6PC19H17C2HC3H2C4H2CHCHCH5C4HFeCH6C2HC2HCHC2HSHCH2CHSHC3H2CHC2HCHC3H2C3H2CHC3H2C3HSC3HC3FeC4HC2H2CHC7HC3HC4SH2C2HC3HCH2PHCPH2CHFeCH2CHC2HCH2CPC2H2CH2C3PCHC2PCH3CHCH3CHFeH2C2SC3SHSHC2HC5HC4HS2CHCHCH3C5H4C2HC3HC3HCHFe2CH2PC2H3CHCH4CHCSH2C2HC3SH3C2FePHCS2CH3CFeCSFeS2C2FeS2H2FeSC2SCHSCH4PHC2FeS2FeSHFeSFeS3C2FeS2CFeS2FeS2FeSFeS3CHCSHCHCHCHS2C3FeC6H4C6H4C6H5FeHFeC2H4C5H4C2HC5HC6H4C7HCH2C3HC2H2CHC3H3C7H4C6H4CHCH2C7PC18H11SPH7SH3SCHCHSH2FeCHC4HC5H2CHCH2C2HC2SCFeHC4HCHC3HC2HCSC2HCHC6HCH3C2H4C2H2CH2CH2C6PC2HCHSC12H2CH3CSH5CH6CH2C6PC3HCSC12H5C2SCH12CSC3PC18SC2H17C3H4C2HC4H2C2HC2H2CHC3HC3HCHCH2CPCHCHCH3C2HC3SH2C4SHCH3FeHC2HCHSH2CHCH2CSHC2PHC2HCH2CFeHCHC2PC4H3SCH2FeHPHCH2C2HCHCH2CHCSHC4H4C4H5CHCH2CPHC3SHCH2PFeSFeHCH2SH2C2H5C2HC2HC6H2CH2C3HC2HFeCSC2HC4SH2CHC3H2CPHCHCHC3H2CSH3C2H2CH2CH2C4SHC2HCFeCFeHFeCH4CHC2HFeHCHC2HC2H2CH2CHCFeSC2H2C2HSHC5H2CSCH5CH2C2H2CHCHFeHC3HCHCH3C5SC2FeHC2H2CFe2CS2C3SHC5H2FeS2FeS2FeSFeS3HC5H2CFeS2FeS2FeSFeS3FeS2CFeCH3SC3HC5H2CH3SH2CHCH2CH2CHSHC4HCH2C2HCH3C2HC2PC6H4C6H4C6H4C6H4CH3CSHC3H5CHCHC3HC4FeCH2C6H8CHCH2CH2C4HC3HC2FeHCH2CH2C3H2CH2CHCHC2HCHC17HSCH5CHCPHCS2H2C2H2CHPC13HC4HCH10CH3CH2PC2HCH2CSC2H2C8HCHC2H2SC2HCSHCSH3CHC8PC2HC2HC4HC8HCHC3H4C2H6CFeCHPH4C3H2C3HCSC5HC2H2C6HCHC2H7C2HCHCH2C2H2C3HSHCHC2SC2HC2H4C2H2CHCH4CHCH2C8PH2CH3C5H2C2H4CFeC2H2C3HC5H5C2HSH2PCHC2HC2FeH3CHCHSC3HCHC2SC3H2C2HCHC2H4PCH2CPC3HC2HC2HCSHCHC2H3CHCSHC2H4C4H2C2HCH2CH2SH3C2HSCHCH2C3H3C2H4SCH4SH2CHC2HC2H2C3H2CFeSFeS2FeSFeS2FeS2FeS2FeSFeS3Fe2S2FeSFeS2HCH5SHC3SFeS2FeSFeSCSC3SCFeHSCFeS2FeS3HC6H4CPC4HCH2CH2CHFeCHC6H7C6H4C6H4C6H5C6H4C6H4C2HC2HC2SHCSHCSHC6PC18H11C2H8C4PCHC7H2C3H4CH8C9SH4C3HC6PC3HC9HCH2CH5SCHCH5C3HC4HCHCHC2HCHCHCHC3HC2HC2HC2HC8H5C5HCHC2H5CHCHC3PC2HC2H2CHC6PC18H22C7H2SC2H5C3HCHC3H3C6PC18H20SC3PCHC2HC3PH2CHCH3SH2C2H2SCHC2H2SHCHCFeC2H4C5HCHPHFeC2HC2HCH3PC2HCHC2HCH3CFeC3HC3HCH4CH2C2H3PSC8HCH2CH2CSCH2C3H2C2HC2HC2HC2H3C7HCSHC2H2C3H2C3H3CH4CSCSC3PCH3CH3C5H3FeHC3HCH2CH2C3PC2HC3H5C2HCH2C2HCH2C2H2CH3CSCHC5SC2S2H2FeC4SH3CHFeCSH2PCSCH2C3HCHC3H2CHCH4C2H4C3HCHCH2C2H3CH5CPC4HC16H5C5H6CH2CHC2H3SCH3CHSC4FeS2FeS2H2FeS2FeS2FeSHSHCHSFeS2FeS2FeSFeS4HSH2SFeS2FeHFeSFeHS2FeHC3HC9H4C6H5CH2CSC9H6CH2CHC3HCH2CHC2HC2H2C7HC7H3C6PC15HFeCH17CH2C3HC4SCHCHCHC2HCH4CHC2PHFeCH6C3H2C2H3CH5CH2SCH3SHCHC3H2C5HC2HCHCHCHC2HC3H5C2HCHCH2CHC3H2C6HCH3C3H6C6PC18H18SHCHC2HCHCHC2H3C4H2CHCH3CH2C2H5CFeSHC6PC14HPHCH16CFeH3SC2HCPCHC6PC5H2C8H4C4FeC2FeC8H2C2H2C2SHCHCSHC2HCH2S2HSFeSHFeS2FeCFeS3FeS2FeS2FeSFeS3FeS2FeS2FeSFeS3FeHSFeS3Fe2S2FeSCFeSFeS3C2FeS2FeSC2SH2FeS2FeSFeSC2HC4H2C6H4CSC5H4C5H2C6H5SHCSHC2HC6H4C6H4C6H4C6H4C6H6C3HCH2C6H4C6H4CHC2HCHC2HC2H2CHC5HC4H4C2H3CHC3HC2FeC3PC3SCH2C11HCH11C3H2C2H2C9HSC3H5CHC6PC18H19C6PC18H20CHCHC2H3CH3C3H3C2H3C3HC9PCHC7HC2H2CFeHCHCHC2H2C2HCHCH2CHC5SH3SHCHC6H2CFeCHCH4C2HC2HPCHSC3H2C3HCHCPCH2C2HCFeH2CH5CH2C2H3CH4C4HCHC2HSH3CHCPC2HCHCHC5HC2H2SHC5H2C5HCH3S2CH4CH3C4HCHPCFe2SC2HCH2C3HCHC2HCHPHPH4CSC2H2C3HCHCHCSC2HCH3C7H4SCH2C5HC3HFeCHPC3SCHC2HCSCHC4HCH2C2H2S2HC3H2C6HC3H6CSC2P2C3H4CHPCHC4HFeHC5HC3FeHC3HC2H3CH4CH2C2HC2PH2CHC3HC2HCH4CHC4HCHC5HCSCH5CH3C2HC2H3C2H5CHC2H4C3HCHC3HCHCH3CH3PC2SC2HCH3CHC2HCHCHC2HCHCH2S2FeSCFeSHFeSFeS3FeS2FeS2FeCFeS3H2SC2SCHSCHCH2CHPH2CSC6H5C6H5SHC3HC6H4C6H5C3HCHC6H2C4HPFeCHCHC2HCHCHCH2C2HCH2C2HCHCH2CH2C4HPH2CHC3H2CSHC7H5C6HC4HPC5HCHCH5CH13C2H2CHC2HC2H2SC3HCSC2HC2H2FeC3H3CH2C2HC2H3C4HSCHC9SCFeCHC2H5FeC2H4CH2CHC2HC4HCH3C2HCHC2H2CHC6HPC5H2C6HFeHC5H2CPHCHCH3C2SC2HCH2C2H5CHCHFeCSHCHCSC3HCPC2HPC4HC3HCHCH2C2H2CH2CH3C4FeC2HCHC2HCH3PH5C3H3SC4PC9HC10H11CHCFeC2HSCH3C2H4CFeHSC2HSH3C3H3FeCH2CS2C3H2C2S2FeSFeH2SCFeSCFeSFeSHFeS2CHCSFeSFeS2FeS2FeSFeS3FeHFeS2FeS2FeSFeS3C2HCSC4FeHC3HSH2C6H4CH2C3H4C3HC6H4C6H6CHCH3CHC2HC4H2C6H3CHC7H3C6H5CFeC2HCSH2C7H9FeC3HC3SC2H3CH2CHSH2CHCPSPSCH3C3SCSHC2H2C10H2CH2C5H4C6PCHC2HC6H5C2H6C5HC4SFeCH2CH2CSC3H2CHCSHCHCHC3H3C3HC2PC2H3CH3CH2SCSC3HSC2PC15HC2HFeCH12CH2C10H9C6PC18H8CH9CHCH2C3H2C3HC4HC6HC2H2CH8CH4PC3FeH2C5H3CHC4HCH4C2PH2C2HC4HC4H2CHC3SC2P2FeCHCH2CSHC3HCH2C2SFeHC2H2CSHCPH5SCHCHC3H3CH5C3HFeH2C5HC3HFeH2C4PCHC4HC3H3C2HCHCHCHFeHC3HC2HCH2CH5CHCHSH2CH2CHFeH2C2H2CHFeS2FeSCFeSFeS2FeS2FeS2FeSFeS3FeS2FeS2FeSFeS3FeS2FeS2FeSFeS3FeCFeSHFeHSCH3C2HSCH4C3HFeS2H2SHSC3HCH2C8H4C3SC2H2C2HCHC6H2C4HCHC6H5C6H4C6H4C3H4C3HC2HC2HC4HCH2CHC6H3CHC7H2CH2CHC3HC4H5CHC7H7CHCSHCHC5H2CHCHC2HC2HSC7PC18H20CHCHCH2CHFeH3CPCSHCH2CH3C2HCH2CHC2HCH3C8PC18H6C2H10FeH2CHCH3C2H2C2PC2HFeH3C2H3CHCSH3FeCHC6PC7H4SH4CHCHCHC2HCFeC2HC7PC18H6CH11C5H2CHC3HSC2HCHCH2C2H2C4HCHCH2CH4C2HC2HCHC3HC2SCHC4HPHCHCHC3H2CH3C3H2C4H5CH3CHCHC2H4PH5CHC7H3C4HCHCHC4HCH3C7H2C4HSCH2CHSCHC2H2CH2C3HPH5C4FeSHCHCHCHSHC2HCH3FeH2SC4SH3CHFeHC6PC2HCHC2HCSCHC3SHC3H3SH2C3HC3H4CHFeHCH2CPSCHSC2HFeCFeS2FeS2FeSFeS3CSCFeSCSCSH3CFeCHCHCHCFeS2C2HCH2FeS2FeS2FeSFeS3FeCSFeS2FeSFeHS2C2HC2H3C2HCH2C9H4C7H4C6H4C2SCHC2PH2CHCH3C3H3PHC4HCH3SC2FeCHC6H4C4HCH2CH3C3H3FeH3SC3HC2HC9PHC6HCHCHCH3C3H10CHC2HCH3C6PC7HC6HC3H10SHCH3PCHC3H2CH3CHCH2C4HC3HCH3C6PC18H20FeH2C2PC8SCHC4HC5H3CH2C2H5C2HCHPHSCH3CHC3H4C7HC3HCHCHC4H4C2HC4SCHC2HC2HCH3CH4CH3C8H2C2H5CHC2HC3H2C2HPC7H2C8H5C3H5C6PC14HC2H8CH7CHCHCH2C2HC3HC3PC2SFeCH4CSC6H2C2HC3PHCHSCH2C2HSHCH2CHCHSCHCH2CHSCHCHCPC3H4CHFeH2C2HC2H2C2HC2H2C5HC2HC3HC5H5CHCHSHCHC3H2CSHSHC2HCFeS2FeS2FeSFeS3FeS2FeS2FeSFeS3CHSFeS2FeS2FeS2FeSFeS3C2SH2CPH2C3SHCHSCSHFeC8H2C2H2C10HCH2C6H4C6H4C6H4C2HC3HCH2C3FeC2H4CHCHFeH2C6H4CH2SH2C2HC3HC6H5C5HPC2H3CH2CH4C2HC3HCHCH9C7PC18H11SH8C6PC14H14C3HCHCH3CHPC5HC6H4PH5C2H2C4HCH2CH2CH3C2H2C3H2C6HC3H2C2HC2HC4H2C3HC8HCHCHCHCH2C2HC4HC6PC2H4C3HCH2CFeH5CH4C2HCH2CH3CHCHC2HCH4CHC6HC2H3C3HCH2C2HCHC4HC2H2CSHSCH2C2HCH2SC4SCH2C2H2CH4C4FeHCH3SH2CH2C2HCHC2H2CHSCHCHSHC3SHC3H3PC2H4CH2CH7CHCHFeS2FeSCFeS2FeHCH2CHC3FeHCHFeS2FeH2FeS3FeS2FeS2FeSFeS3C5HC6H4C6H6C3H2CHSC6H4C3SCH2CHFeHC7HC4HPH3C5HC8H7SH2C4H4CHCHC6PC18H20C6PCH4CSC7HCH2SCH2C3SC2HC2FeH2CH3C3HCHC5HCHCHC2HC2HCH2CHCHCHCHC2SH2C4SHCHCH3CHCH3C3H2C2SH2CHCSC2HCH2CSH2C4PC3H4SC3HC2H3SCPHCH3C3PH2CHSH4C4PC7H3CSH3CHC2H3CH5CHCH5C3HCH5C2HCFeHCH2SH3C2SCHC2PH4C5HC2HCHC6PC3H2C10SC2H7CH9C2HCHCHC3H2CHC2H4C5H3C2HC5HSHCH3PC2FeCHC4HCH2C3SHFeHFeH3C4SC2HCHSCH2CH3C4H2C4H2CH2CHC2HC4HC2H4C2HC2H6CSCHCHCFeHSFeSCSFeSCFeS2FeCFeS3CFeSCFeS2FeSFeS3FeS2FeS2FeSFeS3FeSC2FeSFeHSHSH2C3H2C6H6C4SH3C6H4C6H4C6H4C3HCSFeH3CHCH2C3HC3FeSHPH2CHC9H4CFeHC3HCH2C2HFeC7H4C2HFeCHCH2C2HC2HCPH4C6HCH4C4H4C8PC18H20C10SHCHCH2CFeC4PH5S2CHCSC4H2CPCH3C6PCH2CH2CPC2H2C6PC18H20PC12H9C2FeC3H4CHC2HCHC4H2CH3CFeHCHC2H2C6HSC2SCHC6HC2H3C5HCH2C3SC3HCHSH2SCHCH2CH2C5H2C2H2CH2CHC2PHCSHC3H2CHCHC9SH2C5H2CHC2HC2HCH2CH3CH2C2H7C2H4C2HCHCHCHC2H2CH4CHC2H2SHCHC2H2C2FeHCHSHCHC3PH4CH2CH2PHSCHCFeC3H2FeC2H2FeC2H3C3H2C2SC4HC4H2CHC3H2CH2CHC2HCH5C3HC2HC6HSCHCH2C2HC2HC3HCH3C2HSHCH2PHC3HC2HC3HC2FePHCHFeHSCHC2H4CHC4H3SCHC3H4C2HCSC5H2CH2SCSHCH2C5HFeS2FeSFeSFeS2HCHFeSCFeSFeS3FeSC2SCFeSFeSCSFeS2FeS2FeSFeS3FeS2C3H2SFeS2FeS2FeSFeS3C7H2CHC4H3C5H4C6H4C2HC5H3C6H4C6H6C3HC2HCH3C3H4C7H4CH2SH2CSC6HCHC2HCHC5PC6HCH5C2H7C4HFeH4C2H2C2HCHCHC3HC2HCHC6HCHCHPCH2C7PC18H17C3S2HC6SHSHC2H4C4HC4H2C2HCH3CH2PC6HCSHC4H5CHCH3C2HCH4PCH5CHC2PC9H4C2H2CH4CH3C3HC6PC2HCHC13H5CH2CH3CH9C8PC18H11FeCH4CH3CH4C3HCH2PH2CHSH2CH3CHSFeC2Fe2HCH3C2HCH3C2H3C3HC3H3C2HC3H3CSC7PC7HCSHSC2H2C4H2CH9CHCH3C6PC18H20C5HC2SHC2H3C3FeH2SHCH2CH2C2HFeCH3C5S2H2CHCH2CHCSCH4CHSH5C2H3C7H4CH2C2SHCHC7HCHCHCHCPFeC8H2C6H5CHCHC2HCHC4H2C3H5PHC2H5PC2H2CH2C2HCHC2HFeC3H2CH2C3H2CHC2HPC2SCH2C5H3SFeS2FeC2HFeS3FeCSC3HFeS2FeS2FeSFeS3H2CFeS2FeSHCSHC2HFeS2FeS2H2CH2CHSCSCHC6H4C6H4C6H6CH2C2HC6H5C6H4C6HCH2C6H4CHCSH2C8HC2H5C6PC12H14C6PCHPCH3C2FeH6CH4C3FeC8PC18H21C2HC2HPHCHC5HC7H3PHCHC2HCH5SC2H2CHCHFeC3HC5H3C2SCHC3HPC2H2C2H5CHCHC4SC2PCH4SH3C2FeC2H2CH2C2HC4H2C3H3C2H2C3HCH4C3PC6H2C3HCHCHCHC6SH2C2H2C2HC2HPHC4H2PSH5C2HC4HSC2H3C4H3C3H2C2H2C2HCSFeSCHC4HCH2C2HCHCHC4HC4HC3H2CH4SC3HCPHC2HSH3FeH2C3H3CSHC2H3CHFeH2C3H2C2HC7PCHC4HSHCHCHC5H2CH3SC2HC4SHCHCH3FeCH2C3H2CH2
_chemical_formula_sum              "H4608 S768 Fe384 C5760 P192"
_cell_length_a       80.8757
_cell_length_b       81.7063
_cell_length_c       81.6642
_cell_angle_alpha    75.3837
_cell_angle_beta     75.3692
_cell_angle_gamma    75.3128

_space_group_name_H-M_alt    "P 1"
_space_group_IT_number       1

loop_
  _space_group_symop_operation_xyz
  'x, y, z'

loop_
  _atom_site_type_symbol
  _atom_site_label
  _atom_site_symmetry_multiplicity
  _atom_site_fract_x
  _atom_site_fract_y
  _atom_site_fract_z
  _atom_site_occupancy
  H   H1        1.0  0.07311  0.10941  0.74347  1.0000
  S   S1        1.0  0.14387  0.02094  0.72289  1.0000
  Fe  Fe1       1.0  0.09607  0.02469  0.74729  1.0000
  S   S2        1.0  0.11487  0.03626  0.75468  1.0000
  S   S3        1.0  0.06793  0.02492  0.76061  1.0000
  Fe  Fe2       1.0  0.12331  0.04470  0.72607  1.0000
  S   S4        1.0  0.12687  0.07195  0.71447  1.0000
  Fe  Fe3       1.0  0.13392  0.01152  0.75111  1.0000
  S   S5        1.0  0.10323  0.03484  0.71884  1.0000
  S   S6        1.0  0.11441  0.99883  0.74634  1.0000
  H   H2        1.0  0.01817  0.29510  0.74871  1.0000
  H   H3        1.0  0.17233  0.11713  0.61612  1.0000
  H   H4        1.0  0.13348  0.02062  0.78831  1.0000
  H   H5        1.0  0.20803  0.05374  0.64912  1.0000
  S   S7        1.0  0.04325  0.14608  0.74167  1.0000
  Fe  Fe4       1.0  0.01016  0.26418  0.59572  1.0000
  H   H6        1.0  0.10494  0.10357  0.83195  1.0000
  S   S8        1.0  0.03939  0.26104  0.58661  1.0000
  H   H7        1.0  0.02940  0.10745  0.71447  1.0000
  C   C1        1.0  0.15836  0.00329  0.78379  1.0000
  H   H8        1.0  0.04975  0.12436  0.71654  1.0000
  C   C2        1.0  0.12598  0.08443  0.82161  1.0000
  Fe  Fe5       1.0  0.23390  0.09933  0.65994  1.0000
  H   H9        1.0  0.15558  0.13132  0.59196  1.0000
  H   H10       1.0  0.02910  0.22867  0.64407  1.0000
  Fe  Fe6       1.0  0.20422  0.13054  0.66481  1.0000
  S   S9        1.0  0.20687  0.13018  0.69158  1.0000
  S   S10       1.0  0.18540  0.15205  0.65182  1.0000
  Fe  Fe7       1.0  0.23559  0.12577  0.68068  1.0000
  C   C3        1.0  0.00245  0.21936  0.68332  1.0000
  Fe  Fe8       1.0  0.21000  0.10156  0.69492  1.0000
  S   S11       1.0  0.19911  0.08446  0.71935  1.0000
  S   S12       1.0  0.23283  0.12795  0.65344  1.0000
  S   S13       1.0  0.20481  0.10211  0.66899  1.0000
  H   H11       1.0  0.13897  0.02813  0.81398  1.0000
  C   C4        1.0  0.16707  0.20998  0.74350  1.0000
  H   H12       1.0  0.16816  0.17144  0.61365  1.0000
  C   C5        1.0  0.01676  0.26666  0.86290  1.0000
  C   C6        1.0  0.02986  0.27660  0.85571  1.0000
  H   H13       1.0  0.07497  0.06452  0.84511  1.0000
  Fe  Fe9       1.0  0.01669  0.13980  0.75243  1.0000
  S   S14       1.0  0.09319  0.27571  0.78047  1.0000
  C   C7        1.0  0.16763  0.14468  0.61504  1.0000
  Fe  Fe10      1.0  0.06814  0.22901  0.69918  1.0000
  S   S15       1.0  0.08883  0.22716  0.71355  1.0000
  S   S16       1.0  0.04160  0.22553  0.71416  1.0000
  Fe  Fe11      1.0  0.09123  0.23707  0.66404  1.0000
  S   S17       1.0  0.11418  0.23617  0.67555  1.0000
  S   S18       1.0  0.09494  0.24059  0.63504  1.0000
  Fe  Fe12      1.0  0.10645  0.21253  0.69378  1.0000
  S   S19       1.0  0.12376  0.18784  0.70434  1.0000
  Fe  Fe13      1.0  0.09455  0.25096  0.69443  1.0000
  S   S20       1.0  0.09751  0.27481  0.70196  1.0000
  S   S21       1.0  0.08508  0.21225  0.68092  1.0000
  S   S22       1.0  0.07244  0.25389  0.68124  1.0000
  S   S23       1.0  0.16809  0.01736  0.83100  1.0000
  C   C8        1.0  0.13373  0.13871  0.57946  1.0000
  H   H14       1.0  0.01323  0.30354  0.91572  1.0000
  H   H15       1.0  0.11067  0.02131  0.63371  1.0000
  C   C9        1.0  0.02274  0.10492  0.66323  1.0000
  C   C10       1.0  0.15227  0.16021  0.75262  1.0000
  C   C11       1.0  0.01520  0.25757  0.88010  1.0000
  C   C12       1.0  0.16465  0.01213  0.81259  1.0000
  C   C13       1.0  0.17989  0.08545  0.83081  1.0000
  H   H16       1.0  0.04989  0.25788  0.78346  1.0000
  C   C14       1.0  0.09236  0.27613  0.75896  1.0000
  C   C15       1.0  0.09418  0.26042  0.75400  1.0000
  C   C16       1.0  0.09509  0.25993  0.73671  1.0000
  C   C17       1.0  0.09477  0.27512  0.72409  1.0000
  C   C18       1.0  0.09302  0.29083  0.72904  1.0000
  C   C19       1.0  0.09143  0.29142  0.74648  1.0000
  H   H17       1.0  0.09513  0.24856  0.76357  1.0000
  H   H18       1.0  0.09660  0.24774  0.73311  1.0000
  S   S24       1.0  0.00792  0.13229  0.78100  1.0000
  C   C20       1.0  0.15416  0.01564  0.61604  1.0000
  C   C21       1.0  0.16869  0.16223  0.66657  1.0000
  C   C22       1.0  0.16031  0.17938  0.66142  1.0000
  C   C23       1.0  0.14688  0.18761  0.67312  1.0000
  C   C24       1.0  0.14140  0.17849  0.68978  1.0000
  C   C25       1.0  0.14977  0.16136  0.69489  1.0000
  C   C26       1.0  0.16345  0.15325  0.68336  1.0000
  H   H19       1.0  0.16428  0.18632  0.64841  1.0000
  H   H20       1.0  0.14049  0.20087  0.66912  1.0000
  H   H21       1.0  0.14541  0.15428  0.70771  1.0000
  H   H22       1.0  0.16965  0.13994  0.68734  1.0000
  C   C27       1.0  0.00786  0.19701  0.77790  1.0000
  C   C28       1.0  0.11615  0.15586  0.60646  1.0000
  C   C29       1.0  0.14925  0.00689  0.64725  1.0000
  H   H23       1.0  0.04924  0.02118  0.68166  1.0000
  C   C30       1.0  0.21117  0.00614  0.72577  1.0000
  C   C31       1.0  0.17122  0.14755  0.72895  1.0000
  C   C32       1.0  0.01770  0.31567  0.87213  1.0000
  C   C33       1.0  0.21090  0.01249  0.58019  1.0000
  H   H24       1.0  0.03313  0.26817  0.67875  1.0000
  C   C34       1.0  0.06633  0.09353  0.78668  1.0000
  C   C35       1.0  0.17812  0.12839  0.61318  1.0000
  S   S25       1.0  0.00788  0.08320  0.79034  1.0000
  S   S26       1.0  0.12933  0.99655  0.69550  1.0000
  S   S27       1.0  0.15492  0.99673  0.76614  1.0000
  P   P1        1.0  0.20433  0.00612  0.70638  1.0000
  H   H25       1.0  0.04192  0.19560  0.69099  1.0000
  P   P2        1.0  0.17738  0.17874  0.73184  1.0000
  C   C36       1.0  0.09164  0.01768  0.79526  1.0000
  C   C37       1.0  0.10511  0.01366  0.81964  1.0000
  C   C38       1.0  0.05388  0.25550  0.60110  1.0000
  C   C39       1.0  0.07177  0.25306  0.59406  1.0000
  C   C40       1.0  0.08396  0.24862  0.60475  1.0000
  C   C41       1.0  0.07852  0.24654  0.62269  1.0000
  C   C42       1.0  0.06061  0.24898  0.62995  1.0000
  C   C43       1.0  0.04828  0.25355  0.61913  1.0000
  H   H26       1.0  0.07623  0.25462  0.58021  1.0000
  H   H27       1.0  0.09774  0.24679  0.59902  1.0000
  H   H28       1.0  0.05628  0.24733  0.64382  1.0000
  H   H29       1.0  0.03453  0.25568  0.62470  1.0000
  H   H30       1.0  0.07869  0.04352  0.78587  1.0000
  P   P3        1.0  0.18409  0.00250  0.63028  1.0000
  C   C44       1.0  0.03929  0.26865  0.88300  1.0000
  H   H31       1.0  0.21899  0.00729  0.62961  1.0000
  Fe  Fe14      1.0  0.12306  0.00993  0.71829  1.0000
  H   H32       1.0  0.08844  0.01231  0.78589  1.0000
  C   C45       1.0  0.22239  0.99770  0.69049  1.0000
  C   C46       1.0  0.16214  0.19814  0.73677  1.0000
  H   H33       1.0  0.22127  0.13375  0.74610  1.0000
  C   C47       1.0  0.04279  0.16831  0.73582  1.0000
  C   C48       1.0  0.05816  0.17399  0.72707  1.0000
  C   C49       1.0  0.05785  0.19163  0.72073  1.0000
  C   C50       1.0  0.04216  0.20364  0.72316  1.0000
  C   C51       1.0  0.02690  0.19805  0.73264  1.0000
  C   C52       1.0  0.02722  0.18037  0.73899  1.0000
  H   H34       1.0  0.07027  0.16468  0.72509  1.0000
  H   H35       1.0  0.06979  0.19593  0.71411  1.0000
  H   H36       1.0  0.01481  0.20737  0.73483  1.0000
  H   H37       1.0  0.21707  0.02276  0.57173  1.0000
  H   H38       1.0  0.06807  0.00359  0.70223  1.0000
  H   H39       1.0  0.00803  0.25556  0.72406  1.0000
  H   H40       1.0  0.11923  0.12335  0.63321  1.0000
  H   H41       1.0  0.01541  0.17612  0.74624  1.0000
  H   H42       1.0  0.04808  0.26261  0.81255  1.0000
  C   C53       1.0  0.07269  0.10489  0.71068  1.0000
  C   C54       1.0  0.18460  0.08694  0.81287  1.0000
  C   C55       1.0  0.14620  0.07579  0.71745  1.0000
  C   C56       1.0  0.15069  0.09189  0.71007  1.0000
  C   C57       1.0  0.16694  0.09465  0.71063  1.0000
  C   C58       1.0  0.17836  0.08156  0.71938  1.0000
  C   C59       1.0  0.17348  0.06575  0.72759  1.0000
  C   C60       1.0  0.15751  0.06276  0.72640  1.0000
  H   H43       1.0  0.14176  0.10211  0.70354  1.0000
  H   H44       1.0  0.17069  0.10686  0.70422  1.0000
  H   H45       1.0  0.18236  0.05555  0.73425  1.0000
  H   H46       1.0  0.15410  0.05031  0.73221  1.0000
  C   C61       1.0  0.05283  0.04215  0.76893  1.0000
  C   C62       1.0  0.05255  0.05963  0.76119  1.0000
  C   C63       1.0  0.03887  0.07259  0.76755  1.0000
  C   C64       1.0  0.02578  0.06803  0.78186  1.0000
  C   C65       1.0  0.02669  0.05065  0.78989  1.0000
  C   C66       1.0  0.03990  0.03782  0.78330  1.0000
  H   H47       1.0  0.06247  0.06314  0.75005  1.0000
  H   H48       1.0  0.03841  0.08601  0.76136  1.0000
  H   H49       1.0  0.04001  0.02440  0.78934  1.0000
  C   C67       1.0  0.14571  0.01505  0.79253  1.0000
  C   C68       1.0  0.14885  0.01936  0.80697  1.0000
  H   H50       1.0  0.00092  0.31010  0.61555  1.0000
  H   H51       1.0  0.07189  0.01605  0.72540  1.0000
  H   H52       1.0  0.04747  0.31219  0.74401  1.0000
  H   H53       1.0  0.00146  0.31192  0.71271  1.0000
  C   C69       1.0  0.13057  0.07062  0.81307  1.0000
  H   H54       1.0  0.05769  0.09681  0.79839  1.0000
  P   P4        1.0  0.19429  0.07386  0.78249  1.0000
  C   C70       1.0  0.17516  0.07175  0.77625  1.0000
  C   C71       1.0  0.18815  0.07226  0.80558  1.0000
  C   C72       1.0  0.18592  0.05633  0.81642  1.0000
  C   C73       1.0  0.18114  0.05490  0.83434  1.0000
  H   H55       1.0  0.20634  0.15052  0.78148  1.0000
  C   C74       1.0  0.02638  0.25882  0.89008  1.0000
  H   H56       1.0  0.00656  0.27212  0.80604  1.0000
  C   C75       1.0  0.16135  0.08600  0.77401  1.0000
  C   C76       1.0  0.14641  0.08421  0.76946  1.0000
  C   C77       1.0  0.14516  0.06822  0.76720  1.0000
  C   C78       1.0  0.15862  0.05389  0.76989  1.0000
  C   C79       1.0  0.17345  0.05556  0.77464  1.0000
  C   C80       1.0  0.20191  0.09347  0.77147  1.0000
  C   C81       1.0  0.19767  0.10237  0.75551  1.0000
  C   C82       1.0  0.20483  0.11672  0.74633  1.0000
  C   C83       1.0  0.21177  0.99755  0.57437  1.0000
  C   C84       1.0  0.08624  0.03538  0.79522  1.0000
  C   C85       1.0  0.19625  0.12636  0.60798  1.0000
  C   C86       1.0  0.08502  0.29369  0.63572  1.0000
  H   H57       1.0  0.12240  0.00963  0.66058  1.0000
  H   H58       1.0  0.02841  0.11458  0.65318  1.0000
  H   H59       1.0  0.18794  0.04495  0.81106  1.0000
  H   H60       1.0  0.17974  0.04248  0.84266  1.0000
  C   C87       1.0  0.10848  0.09273  0.82551  1.0000
  H   H61       1.0  0.16214  0.09845  0.77579  1.0000
  H   H62       1.0  0.13575  0.09515  0.76770  1.0000
  H   H63       1.0  0.13382  0.06691  0.76324  1.0000
  H   H64       1.0  0.15769  0.04152  0.76803  1.0000
  H   H65       1.0  0.18353  0.04419  0.77706  1.0000
  H   H66       1.0  0.18926  0.09797  0.74987  1.0000
  H   H67       1.0  0.20197  0.12316  0.73375  1.0000
  C   C88       1.0  0.02408  0.15829  0.70388  1.0000
  C   C89       1.0  0.01205  0.15201  0.69887  1.0000
  C   C90       1.0  0.01668  0.14560  0.68368  1.0000
  C   C91       1.0  0.03336  0.14570  0.67335  1.0000
  C   C92       1.0  0.04565  0.15193  0.67836  1.0000
  C   C93       1.0  0.04083  0.15819  0.69377  1.0000
  P   P5        1.0  0.06671  0.15327  0.66427  1.0000
  C   C94       1.0  0.08282  0.15170  0.67684  1.0000
  C   C95       1.0  0.07309  0.13552  0.65303  1.0000
  C   C96       1.0  0.07163  0.11876  0.66226  1.0000
  C   C97       1.0  0.07694  0.10485  0.65379  1.0000
  C   C98       1.0  0.08349  0.10761  0.63598  1.0000
  C   C99       1.0  0.08474  0.12429  0.62665  1.0000
  C   C100      1.0  0.07959  0.13821  0.63513  1.0000
  C   C101      1.0  0.08270  0.16573  0.68391  1.0000
  C   C102      1.0  0.09475  0.16443  0.69403  1.0000
  C   C103      1.0  0.10726  0.14931  0.69692  1.0000
  C   C104      1.0  0.10770  0.13538  0.68974  1.0000
  C   C105      1.0  0.09556  0.13653  0.67975  1.0000
  C   C106      1.0  0.06464  0.17355  0.64880  1.0000
  C   C107      1.0  0.04927  0.18045  0.64226  1.0000
  C   C108      1.0  0.04787  0.19584  0.62989  1.0000
  C   C109      1.0  0.06172  0.20456  0.62407  1.0000
  C   C110      1.0  0.07705  0.19781  0.63049  1.0000
  C   C111      1.0  0.07860  0.18226  0.64265  1.0000
  H   H68       1.0  0.02039  0.16325  0.71567  1.0000
  H   H69       1.0  0.22970  0.11760  0.77394  1.0000
  H   H70       1.0  0.21820  0.05167  0.83450  1.0000
  H   H71       1.0  0.03651  0.14119  0.66135  1.0000
  H   H72       1.0  0.04981  0.16304  0.69817  1.0000
  H   H73       1.0  0.06655  0.11648  0.67606  1.0000
  H   H74       1.0  0.07598  0.09192  0.66106  1.0000
  H   H75       1.0  0.08753  0.09683  0.62939  1.0000
  H   H76       1.0  0.08972  0.12643  0.61282  1.0000
  H   H77       1.0  0.08062  0.15102  0.62769  1.0000
  H   H78       1.0  0.07317  0.17765  0.68178  1.0000
  H   H79       1.0  0.09450  0.17520  0.69964  1.0000
  H   H80       1.0  0.11660  0.14847  0.70472  1.0000
  H   H81       1.0  0.11741  0.12363  0.69202  1.0000
  H   H82       1.0  0.09622  0.12548  0.67451  1.0000
  H   H83       1.0  0.03825  0.17411  0.64672  1.0000
  H   H84       1.0  0.03587  0.20126  0.62509  1.0000
  H   H85       1.0  0.06048  0.21669  0.61474  1.0000
  H   H86       1.0  0.08761  0.20483  0.62618  1.0000
  H   H87       1.0  0.09065  0.17715  0.64727  1.0000
  C   C112      1.0  0.04769  0.06678  0.81853  1.0000
  C   C113      1.0  0.21628  0.05402  0.75954  1.0000
  H   H88       1.0  0.18797  0.99547  0.68392  1.0000
  C   C114      1.0  0.18556  0.04542  0.64691  1.0000
  H   H89       1.0  0.12156  0.05461  0.80151  1.0000
  C   C115      1.0  0.19893  0.01287  0.73925  1.0000
  H   H90       1.0  0.04710  0.06587  0.86637  1.0000
  C   C116      1.0  0.19553  0.02832  0.69784  1.0000
  H   H91       1.0  0.00856  0.23599  0.70555  1.0000
  C   C117      1.0  0.23147  0.00871  0.67710  1.0000
  H   H92       1.0  0.23837  0.99520  0.71709  1.0000
  H   H93       1.0  0.21817  0.13892  0.60106  1.0000
  H   H94       1.0  0.01951  0.06785  0.85716  1.0000
  C   C118      1.0  0.16160  0.31150  0.77232  1.0000
  C   C119      1.0  0.17940  0.03324  0.69268  1.0000
  C   C120      1.0  0.17264  0.05066  0.68667  1.0000
  C   C121      1.0  0.18238  0.06311  0.68488  1.0000
  C   C122      1.0  0.19852  0.05825  0.68984  1.0000
  C   C123      1.0  0.20485  0.04103  0.69672  1.0000
  C   C124      1.0  0.00788  0.08021  0.68931  1.0000
  C   C125      1.0  0.22065  0.11344  0.76883  1.0000
  H   H95       1.0  0.22093  0.06678  0.60793  1.0000
  H   H96       1.0  0.13004  0.26422  0.64152  1.0000
  H   H97       1.0  0.05123  0.20968  0.66048  1.0000
  H   H98       1.0  0.15410  0.00184  0.65916  1.0000
  H   H99       1.0  0.05763  0.04597  0.72781  1.0000
  C   C126      1.0  0.20338  0.04393  0.64574  1.0000
  C   C127      1.0  0.07978  0.07873  0.78723  1.0000
  C   C128      1.0  0.00766  0.22656  0.66578  1.0000
  H   H100      1.0  0.18550  0.01836  0.73795  1.0000
  H   H101      1.0  0.22839  0.02252  0.67617  1.0000
  C   C129      1.0  0.08872  0.08631  0.75600  1.0000
  C   C130      1.0  0.22351  0.04763  0.78782  1.0000
  C   C131      1.0  0.13611  0.02013  0.61695  1.0000
  C   C132      1.0  0.03127  0.09596  0.67679  1.0000
  H   H102      1.0  0.17184  0.02380  0.69352  1.0000
  H   H103      1.0  0.15979  0.05449  0.68350  1.0000
  H   H104      1.0  0.17723  0.07658  0.68019  1.0000
  H   H105      1.0  0.20587  0.06788  0.68906  1.0000
  H   H106      1.0  0.21710  0.03765  0.70108  1.0000
  C   C133      1.0  0.00271  0.08686  0.72831  1.0000
  C   C134      1.0  0.12088  0.18140  0.65463  1.0000
  C   C135      1.0  0.21384  0.09883  0.77783  1.0000
  H   H107      1.0  0.11596  0.09795  0.65693  1.0000
  Fe  Fe15      1.0  0.00087  0.11007  0.77477  1.0000
  H   H108      1.0  0.99838  0.23508  0.65837  1.0000
  H   H109      1.0  0.21971  0.08179  0.81919  1.0000
  H   H110      1.0  0.18974  0.99528  0.80753  1.0000
  H   H111      1.0  0.05387  0.27599  0.65151  1.0000
  C   C136      1.0  0.07507  0.10079  0.75557  1.0000
  H   H112      1.0  0.17484  0.06817  0.85546  1.0000
  H   H113      1.0  0.18205  0.15770  0.76606  1.0000
  C   C137      1.0  0.12556  0.19772  0.62533  1.0000
  C   C138      1.0  0.20409  0.14057  0.60463  1.0000
  C   C139      1.0  0.21240  0.05695  0.77644  1.0000
  P   P6        1.0  0.06451  0.30823  0.63304  1.0000
  C   C140      1.0  0.22077  0.00431  0.75700  1.0000
  C   C141      1.0  0.03925  0.31560  0.66226  1.0000
  C   C142      1.0  0.22242  0.16562  0.76130  1.0000
  H   H114      1.0  0.16570  0.03411  0.64389  1.0000
  H   H115      1.0  0.16251  0.12979  0.65127  1.0000
  H   H116      1.0  0.00461  0.24601  0.75911  1.0000
  H   H117      1.0  0.18552  0.09953  0.80481  1.0000
  C   C143      1.0  0.06321  0.06650  0.82343  1.0000
  H   H118      1.0  0.12011  0.26900  0.61403  1.0000
  H   H119      1.0  0.19419  0.01691  0.76522  1.0000
  Fe  Fe16      1.0  0.22565  0.00950  0.84929  1.0000
  H   H120      1.0  0.00797  0.26598  0.85517  1.0000
  H   H121      1.0  0.03247  0.24505  0.83841  1.0000
  C   C144      1.0  0.01758  0.05898  0.74178  1.0000
  H   H122      1.0  0.10909  0.16253  0.61684  1.0000
  C   C145      1.0  0.17688  0.19371  0.69704  1.0000
  C   C146      1.0  0.16271  0.13363  0.73404  1.0000
  C   C147      1.0  0.14874  0.13318  0.74815  1.0000
  H   H123      1.0  0.18166  0.14786  0.71770  1.0000
  H   H124      1.0  0.16678  0.12334  0.72682  1.0000
  H   H125      1.0  0.14184  0.12266  0.75170  1.0000
  C   C148      1.0  0.02669  0.28311  0.74599  1.0000
  C   C149      1.0  0.03817  0.28297  0.73002  1.0000
  C   C150      1.0  0.04928  0.26761  0.72651  1.0000
  C   C151      1.0  0.04899  0.25236  0.73897  1.0000
  C   C152      1.0  0.03785  0.25242  0.75521  1.0000
  C   C153      1.0  0.02649  0.26787  0.75853  1.0000
  P   P7        1.0  0.03781  0.23273  0.77142  1.0000
  C   C154      1.0  0.02042  0.22260  0.77111  1.0000
  C   C155      1.0  0.05904  0.21873  0.76688  1.0000
  C   C156      1.0  0.06163  0.20600  0.75721  1.0000
  C   C157      1.0  0.07824  0.19592  0.75277  1.0000
  C   C158      1.0  0.09248  0.19863  0.75772  1.0000
  C   C159      1.0  0.09009  0.21134  0.76725  1.0000
  C   C160      1.0  0.07347  0.22136  0.77180  1.0000
  C   C161      1.0  0.02125  0.20489  0.77805  1.0000
  C   C162      1.0  0.00571  0.23234  0.76440  1.0000
  C   C163      1.0  0.03234  0.20403  0.68386  1.0000
  H   H126      1.0  0.20589  0.31095  0.78208  1.0000
  H   H127      1.0  0.04362  0.30152  0.57382  1.0000
  C   C164      1.0  0.03503  0.23746  0.79255  1.0000
  C   C165      1.0  0.02603  0.22774  0.80729  1.0000
  C   C166      1.0  0.02502  0.23059  0.82372  1.0000
  C   C167      1.0  0.03293  0.24316  0.82562  1.0000
  C   C168      1.0  0.04172  0.25304  0.81104  1.0000
  C   C169      1.0  0.04271  0.25030  0.79456  1.0000
  H   H128      1.0  0.09164  0.28732  0.61029  1.0000
  H   H129      1.0  0.03859  0.29475  0.72035  1.0000
  H   H130      1.0  0.05828  0.26756  0.71419  1.0000
  H   H131      1.0  0.05751  0.24056  0.73591  1.0000
  H   H132      1.0  0.23619  0.29869  0.76922  1.0000
  H   H133      1.0  0.05090  0.20406  0.75280  1.0000
  H   H134      1.0  0.08011  0.18622  0.74519  1.0000
  H   H135      1.0  0.10538  0.19104  0.75394  1.0000
  H   H136      1.0  0.10114  0.21362  0.77095  1.0000
  H   H137      1.0  0.07205  0.23132  0.77888  1.0000
  H   H138      1.0  0.03226  0.19714  0.78361  1.0000
  C   C170      1.0  0.13316  0.18239  0.61931  1.0000
  C   C171      1.0  0.05559  0.04076  0.71767  1.0000
  C   C172      1.0  0.20376  0.01196  0.75478  1.0000
  C   C173      1.0  0.05770  0.30612  0.61436  1.0000
  H   H139      1.0  0.02001  0.21771  0.80631  1.0000
  H   H140      1.0  0.01834  0.22277  0.83504  1.0000
  C   C174      1.0  0.18272  0.98381  0.72777  1.0000
  H   H141      1.0  0.14113  0.19278  0.72826  1.0000
  C   C175      1.0  0.14354  0.14643  0.75748  1.0000
  C   C176      1.0  0.14518  0.20166  0.73358  1.0000
  C   C177      1.0  0.17829  0.06941  0.84155  1.0000
  H   H142      1.0  0.18005  0.20768  0.74603  1.0000
  C   C178      1.0  0.10000  0.07277  0.81311  1.0000
  C   C179      1.0  0.12465  0.01794  0.63298  1.0000
  C   C180      1.0  0.16610  0.16094  0.73819  1.0000
  H   H143      1.0  0.13265  0.14612  0.76839  1.0000
  H   H144      1.0  0.13594  0.08838  0.67767  1.0000
  H   H145      1.0  0.21803  0.09162  0.78966  1.0000
  H   H146      1.0  0.09445  0.16352  0.59346  1.0000
  H   H147      1.0  0.11406  0.20901  0.64779  1.0000
  H   H148      1.0  0.02000  0.06811  0.82651  1.0000
  C   C181      1.0  0.02212  0.31140  0.88836  1.0000
  P   P8        1.0  0.08340  0.06507  0.80769  1.0000
  C   C182      1.0  0.99610  0.24285  0.71139  1.0000
  H   H149      1.0  0.04347  0.09888  0.67707  1.0000
  C   C183      1.0  0.14223  0.13831  0.59255  1.0000
  P   P9        1.0  0.14433  0.14668  0.62308  1.0000
  H   H150      1.0  0.02520  0.25197  0.90338  1.0000
  C   C184      1.0  0.04877  0.30302  0.65262  1.0000
  C   C185      1.0  0.17740  0.00072  0.80355  1.0000
  H   H151      1.0  0.00717  0.14081  0.67987  1.0000
  C   C186      1.0  0.20944  0.01757  0.63494  1.0000
  H   H152      1.0  0.01760  0.26812  0.77082  1.0000
  C   C187      1.0  0.17565  0.15889  0.61162  1.0000
  H   H153      1.0  0.11255  0.00528  0.82900  1.0000
  C   C188      1.0  0.17416  0.99613  0.78939  1.0000
  H   H154      1.0  0.09745  0.08355  0.74410  1.0000
  C   C189      1.0  0.13358  0.14709  0.60604  1.0000
  C   C190      1.0  0.23456  0.07263  0.62472  1.0000
  C   C191      1.0  0.24108  0.03155  0.76601  1.0000
  C   C192      1.0  0.18869  0.99238  0.71087  1.0000
  H   H155      1.0  0.12432  0.21009  0.61638  1.0000
  H   H156      1.0  0.14814  0.17032  0.76004  1.0000
  C   C193      1.0  0.11763  0.27265  0.63980  1.0000
  C   C194      1.0  0.18633  0.18187  0.70884  1.0000
  H   H157      1.0  0.03605  0.29372  0.62869  1.0000
  C   C195      1.0  0.10121  0.00687  0.80732  1.0000
  H   H158      1.0  0.03108  0.28359  0.84249  1.0000
  H   H159      1.0  0.18402  0.98706  0.78267  1.0000
  C   C196      1.0  0.21603  0.12244  0.75313  1.0000
  H   H160      1.0  0.12679  0.31026  0.72694  1.0000
  C   C197      1.0  0.06650  0.31260  0.59771  1.0000
  H   H161      1.0  0.02742  0.29105  0.60301  1.0000
  C   C198      1.0  0.17958  0.03268  0.64271  1.0000
  C   C199      1.0  0.10688  0.28023  0.65334  1.0000
  Fe  Fe17      1.0  0.19416  0.00441  0.83854  1.0000
  H   H162      1.0  0.17638  0.05651  0.65100  1.0000
  H   H163      1.0  0.04789  0.26934  0.89092  1.0000
  P   P10       1.0  0.03411  0.07282  0.70823  1.0000
  H   H164      1.0  0.22136  0.05026  0.80062  1.0000
  H   H165      1.0  0.23339  0.03916  0.74130  1.0000
  H   H166      1.0  0.18654  0.98580  0.73876  1.0000
  C   C200      1.0  0.03480  0.28143  0.67412  1.0000
  C   C201      1.0  0.99583  0.25414  0.72183  1.0000
  C   C202      1.0  0.20426  0.98412  0.58549  1.0000
  H   H167      1.0  0.16420  0.20133  0.70135  1.0000
  H   H168      1.0  0.11106  0.27786  0.66548  1.0000
  H   H169      1.0  0.20980  0.16210  0.71120  1.0000
  C   C203      1.0  0.04649  0.28590  0.65869  1.0000
  H   H170      1.0  0.01690  0.29032  0.69594  1.0000
  H   H171      1.0  0.17615  0.20462  0.67026  1.0000
  S   S28       1.0  0.09199  0.30155  0.81515  1.0000
  C   C204      1.0  0.13741  0.09949  0.66723  1.0000
  Fe  Fe18      1.0  0.08078  0.29837  0.79379  1.0000
  C   C205      1.0  0.23756  0.03467  0.78273  1.0000
  H   H172      1.0  0.20229  0.02565  0.60134  1.0000
  S   S29       1.0  0.20077  0.00084  0.86470  1.0000
  S   S30       1.0  0.01141  0.11664  0.74649  1.0000
  C   C206      1.0  0.18360  0.19562  0.67928  1.0000
  C   C207      1.0  0.15520  0.22508  0.74696  1.0000
  C   C208      1.0  0.12615  0.10491  0.65554  1.0000
  H   H173      1.0  0.21855  0.99625  0.56135  1.0000
  H   H174      1.0  0.99910  0.15223  0.70676  1.0000
  C   C209      1.0  0.04126  0.27748  0.86580  1.0000
  H   H175      1.0  0.08204  0.09361  0.82418  1.0000
  C   C210      1.0  0.13342  0.21683  0.73686  1.0000
  C   C211      1.0  0.11210  0.27547  0.62426  1.0000
  S   S31       1.0  0.21778  0.01515  0.82375  1.0000
  H   H176      1.0  0.15926  0.10449  0.67451  1.0000
  C   C212      1.0  0.19957  0.18547  0.67310  1.0000
  H   H177      1.0  0.09316  0.30251  0.71931  1.0000
  C   C213      1.0  0.16085  0.00886  0.63120  1.0000
  C   C214      1.0  0.19483  0.17393  0.74359  1.0000
  H   H178      1.0  0.20447  0.18653  0.65932  1.0000
  C   C215      1.0  0.15050  0.10850  0.66554  1.0000
  C   C216      1.0  0.19380  0.15682  0.60639  1.0000
  H   H179      1.0  0.12050  0.21961  0.73398  1.0000
  H   H180      1.0  0.11006  0.14829  0.56949  1.0000
  H   H181      1.0  0.09011  0.30358  0.75017  1.0000
  H   H182      1.0  0.20819  0.06148  0.75038  1.0000
  H   H183      1.0  0.08161  0.11238  0.71159  1.0000
  C   C217      1.0  0.05476  0.11163  0.71349  1.0000
  C   C218      1.0  0.11956  0.19719  0.64300  1.0000
  C   C219      1.0  0.20241  0.17172  0.70249  1.0000
  C   C220      1.0  0.02563  0.29394  0.68381  1.0000
  C   C221      1.0  0.20902  0.17363  0.68471  1.0000
  C   C222      1.0  0.15236  0.12288  0.65226  1.0000
  H   H184      1.0  0.15901  0.23421  0.75216  1.0000
  C   C223      1.0  0.13842  0.22853  0.74358  1.0000
  H   H185      1.0  0.21113  0.18948  0.72376  1.0000
  S   S32       1.0  0.05782  0.28979  0.85813  1.0000
  C   C224      1.0  0.04320  0.10186  0.71263  1.0000
  H   H186      1.0  0.22458  0.08361  0.62794  1.0000
  H   H187      1.0  0.20430  0.11371  0.60692  1.0000
  C   C225      1.0  0.06381  0.02378  0.71629  1.0000
  C   C226      1.0  0.03197  0.06747  0.83060  1.0000
  C   C227      1.0  0.19150  0.01858  0.63672  1.0000
  Fe  Fe19      1.0  0.23047  0.98766  0.82275  1.0000
  C   C228      1.0  0.19353  0.16315  0.76006  1.0000
  C   C229      1.0  0.20988  0.18092  0.73632  1.0000
  Fe  Fe20      1.0  0.06436  0.30348  0.83039  1.0000
  C   C230      1.0  0.07908  0.08843  0.70686  1.0000
  C   C231      1.0  0.09965  0.03131  0.81972  1.0000
  H   H188      1.0  0.22133  0.16566  0.67987  1.0000
  H   H189      1.0  0.13100  0.02526  0.60522  1.0000
  H   H190      1.0  0.12932  0.24035  0.74605  1.0000
  C   C232      1.0  0.03827  0.29719  0.60154  1.0000
  C   C233      1.0  0.04942  0.08511  0.70933  1.0000
  H   H191      1.0  0.16282  0.01743  0.60351  1.0000
  H   H192      1.0  0.09300  0.08315  0.70478  1.0000
  S   S33       1.0  0.99949  0.24463  0.89030  1.0000
  C   C234      1.0  0.06754  0.07862  0.70602  1.0000
  H   H193      1.0  0.23550  0.18158  0.73918  1.0000
  C   C235      1.0  0.02384  0.08362  0.69000  1.0000
  C   C236      1.0  0.22854  0.99959  0.72763  1.0000
  C   C237      1.0  0.06301  0.06570  0.84085  1.0000
  C   C238      1.0  0.01693  0.07278  0.72746  1.0000
  S   S34       1.0  0.05383  0.29828  0.80989  1.0000
  S   S35       1.0  0.99830  0.26236  0.62380  1.0000
  H   H194      1.0  0.04767  0.06656  0.80531  1.0000
  H   H195      1.0  0.13767  0.30362  0.78710  1.0000
  C   C239      1.0  0.04342  0.29853  0.61615  1.0000
  C   C240      1.0  0.09058  0.29060  0.65139  1.0000
  H   H196      1.0  0.17764  0.09671  0.83642  1.0000
  C   C241      1.0  0.22366  0.17663  0.74509  1.0000
  C   C242      1.0  0.13499  0.16645  0.63102  1.0000
  H   H197      1.0  0.13773  0.18298  0.60555  1.0000
  C   C243      1.0  0.09581  0.28585  0.62223  1.0000
  C   C244      1.0  0.11653  0.14779  0.57978  1.0000
  H   H198      1.0  0.07292  0.06604  0.70281  1.0000
  H   H199      1.0  0.20934  0.98622  0.65361  1.0000
  C   C245      1.0  0.20728  0.15906  0.76889  1.0000
  C   C246      1.0  0.03758  0.21196  0.66669  1.0000
  C   C247      1.0  0.23328  0.99853  0.74328  1.0000
  H   H200      1.0  0.00502  0.04869  0.76759  1.0000
  C   C248      1.0  0.13124  0.01137  0.64811  1.0000
  C   C249      1.0  0.21528  0.03002  0.63975  1.0000
  H   H201      1.0  0.13004  0.15411  0.65819  1.0000
  H   H202      1.0  0.19993  0.16771  0.60439  1.0000
  H   H203      1.0  0.02832  0.04802  0.74194  1.0000
  C   C250      1.0  0.12874  0.16607  0.64876  1.0000
  C   C251      1.0  0.12803  0.11931  0.64214  1.0000
  H   H204      1.0  0.03449  0.05104  0.68405  1.0000
  C   C252      1.0  0.02517  0.22289  0.65753  1.0000
  C   C253      1.0  0.01482  0.20755  0.69210  1.0000
  H   H205      1.0  0.22430  0.00307  0.76930  1.0000
  C   C254      1.0  0.06159  0.01676  0.70327  1.0000
  C   C255      1.0  0.05102  0.02669  0.69170  1.0000
  C   C256      1.0  0.10774  0.15635  0.59328  1.0000
  H   H206      1.0  0.14057  0.13210  0.56896  1.0000
  C   C257      1.0  0.14125  0.12831  0.64037  1.0000
  C   C258      1.0  0.04265  0.04367  0.69313  1.0000
  H   H207      1.0  0.01676  0.04701  0.80097  1.0000
  H   H208      1.0  0.99995  0.10880  0.65247  1.0000
  C   C259      1.0  0.04485  0.05086  0.70617  1.0000
  H   H209      1.0  0.11639  0.18118  0.66831  1.0000
  C   C260      1.0  0.06391  0.10439  0.77089  1.0000
  H   H210      1.0  0.22912  0.02917  0.63827  1.0000
  H   H211      1.0  0.05336  0.11568  0.77048  1.0000
  C   C261      1.0  0.24238  0.04702  0.84295  1.0000
  H   H212      1.0  0.06532  0.31293  0.70577  1.0000
  C   C262      1.0  0.19526  0.00043  0.60850  1.0000
  H   H213      1.0  0.14414  0.06418  0.80997  1.0000
  C   C263      1.0  0.09115  0.07540  0.77182  1.0000
  C   C264      1.0  0.23061  0.04141  0.75433  1.0000
  C   C265      1.0  0.09057  0.04238  0.80721  1.0000
  H   H214      1.0  0.10193  0.06444  0.77209  1.0000
  H   H215      1.0  0.01101  0.20163  0.70554  1.0000
  C   C266      1.0  0.20265  0.01397  0.59716  1.0000
  C   C267      1.0  0.23257  0.06315  0.61332  1.0000
  H   H216      1.0  0.10561  0.99323  0.80710  1.0000
  H   H217      1.0  0.03535  0.31105  0.88931  1.0000
  H   H218      1.0  0.08239  0.29625  0.66212  1.0000
  C   C268      1.0  0.03172  0.06732  0.84781  1.0000
  C   C269      1.0  0.23022  0.07400  0.82538  1.0000
  H   H219      1.0  0.16346  0.30364  0.76287  1.0000
  H   H220      1.0  0.13600  0.08869  0.82515  1.0000
  C   C270      1.0  0.14709  0.31145  0.78594  1.0000
  S   S36       1.0  0.23904  0.09700  0.68629  1.0000
  C   C271      1.0  0.00424  0.05923  0.75650  1.0000
  H   H221      1.0  0.10265  0.03630  0.82948  1.0000
  C   C272      1.0  0.09552  0.08699  0.82120  1.0000
  H   H222      1.0  0.00877  0.18330  0.78299  1.0000
  H   H223      1.0  0.01199  0.30199  0.79569  1.0000
  C   C273      1.0  0.04726  0.06629  0.85296  1.0000
  H   H224      1.0  0.06850  0.31563  0.57031  1.0000
  C   C274      1.0  0.11768  0.06503  0.80854  1.0000
  S   S37       1.0  0.24217  0.03636  0.59566  1.0000
  H   H225      1.0  0.23712  0.18905  0.77859  1.0000
  C   C275      1.0  0.04738  0.30318  0.58505  1.0000
  C   C276      1.0  0.18348  0.98908  0.69706  1.0000
  S   S38       1.0  0.99590  0.24588  0.59114  1.0000
  C   C277      1.0  0.22934  0.05692  0.83406  1.0000
  H   H226      1.0  0.23331  0.16204  0.76787  1.0000
  C   C278      1.0  0.00969  0.30705  0.90318  1.0000
  C   C279      1.0  0.00673  0.10164  0.66279  1.0000
  C   C280      1.0  0.19595  0.98559  0.60246  1.0000
  H   H227      1.0  0.00594  0.16415  0.82544  1.0000
  H   H228      1.0  0.00184  0.09789  0.71768  1.0000
  H   H229      1.0  0.00186  0.07082  0.69943  1.0000
  C   C281      1.0  0.23145  0.31255  0.76673  1.0000
  C   C282      1.0  0.00098  0.29867  0.79284  1.0000
  C   C283      1.0  0.99800  0.28186  0.79856  1.0000
  C   C284      1.0  0.00104  0.31516  0.87061  1.0000
  C   C285      1.0  0.99934  0.08925  0.67580  1.0000
  C   C286      1.0  0.02789  0.31100  0.67789  1.0000
  C   C287      1.0  0.06145  0.31099  0.58311  1.0000
  S   S39       1.0  0.24057  0.02635  0.85580  1.0000
  H   H230      1.0  0.12925  0.31469  0.75512  1.0000
  H   H231      1.0  0.24286  0.12942  0.72030  1.0000
  H   H232      1.0  0.99430  0.15361  0.80567  1.0000
  C   C288      1.0  0.24034  0.56216  0.01926  1.0000
  H   H233      1.0  0.15194  0.64588  0.18450  1.0000
  H   H234      1.0  0.17457  0.64514  0.43697  1.0000
  H   H235      1.0  0.02700  0.61270  0.26179  1.0000
  H   H236      1.0  0.20612  0.63731  0.40644  1.0000
  C   C289      1.0  0.15203  0.56459  0.01534  1.0000
  C   C290      1.0  0.15538  0.63752  0.14199  1.0000
  H   H237      1.0  0.22137  0.55421  0.04171  1.0000
  H   H238      1.0  0.20563  0.59384  0.98608  1.0000
  H   H239      1.0  0.16833  0.58105  0.99759  1.0000
  H   H240      1.0  0.08898  0.63319  0.27460  1.0000
  H   H241      1.0  0.11021  0.60847  0.28737  1.0000
  H   H242      1.0  0.03930  0.58157  0.34009  1.0000
  C   C291      1.0  0.07798  0.61117  0.20556  1.0000
  C   C292      1.0  0.17489  0.62858  0.01191  1.0000
  C   C293      1.0  0.18198  0.55429  0.00159  1.0000
  C   C294      1.0  0.21675  0.61648  0.42519  1.0000
  C   C295      1.0  0.14594  0.64335  0.19806  1.0000
  C   C296      1.0  0.01934  0.63511  0.24282  1.0000
  C   C297      1.0  0.20894  0.64657  0.42805  1.0000
  H   H243      1.0  0.17864  0.60085  0.01626  1.0000
  C   C298      1.0  0.04716  0.64721  0.24764  1.0000
  C   C299      1.0  0.04348  0.63118  0.25700  1.0000
  C   C300      1.0  0.02954  0.62522  0.25473  1.0000
  H   H244      1.0  0.12485  0.63803  0.27932  1.0000
  C   C301      1.0  0.24200  0.63394  0.06187  1.0000
  H   H245      1.0  0.05162  0.62317  0.26581  1.0000
  C   C302      1.0  0.21711  0.55963  0.99999  1.0000
  C   C303      1.0  0.14756  0.57423  0.18133  1.0000
  C   C304      1.0  0.13919  0.59161  0.17968  1.0000
  C   C305      1.0  0.13789  0.60070  0.19259  1.0000
  C   C306      1.0  0.14485  0.59204  0.20732  1.0000
  P   P11       1.0  0.12671  0.62306  0.19034  1.0000
  H   H246      1.0  0.00685  0.59851  0.32702  1.0000
  C   C307      1.0  0.10337  0.62453  0.19683  1.0000
  C   C308      1.0  0.14266  0.64722  0.13262  1.0000
  C   C309      1.0  0.00934  0.58106  0.31043  1.0000
  C   C310      1.0  0.14323  0.64811  0.22684  1.0000
  H   H247      1.0  0.05779  0.63623  0.28676  1.0000
  C   C311      1.0  0.09599  0.60996  0.19967  1.0000
  H   H248      1.0  0.16054  0.62279  0.16657  1.0000
  C   C312      1.0  0.23284  0.56499  0.99166  1.0000
  C   C313      1.0  0.13311  0.63326  0.20437  1.0000
  C   C314      1.0  0.12527  0.63084  0.22202  1.0000
  H   H249      1.0  0.05331  0.62773  0.21357  1.0000
  C   C315      1.0  0.20777  0.62255  0.02001  1.0000
  C   C316      1.0  0.22162  0.61161  0.44124  1.0000
  S   S40       1.0  0.24166  0.60889  0.98639  1.0000
  H   H250      1.0  0.14861  0.56733  0.17127  1.0000
  H   H251      1.0  0.13373  0.59798  0.16831  1.0000
  H   H252      1.0  0.14395  0.59862  0.21754  1.0000
  C   C317      1.0  0.02838  0.60095  0.37461  1.0000
  C   C318      1.0  0.18415  0.61164  0.01617  1.0000
  S   S41       1.0  0.00363  0.62654  0.23800  1.0000
  H   H253      1.0  0.03462  0.57444  0.37184  1.0000
  H   H254      1.0  0.10404  0.59762  0.19758  1.0000
  H   H255      1.0  0.22057  0.62020  0.02308  1.0000
  C   C319      1.0  0.15321  0.57464  0.20893  1.0000
  H   H256      1.0  0.11510  0.62338  0.22715  1.0000
  C   C320      1.0  0.18207  0.64267  0.01157  1.0000
  C   C321      1.0  0.12019  0.64294  0.15841  1.0000
  C   C322      1.0  0.06724  0.62686  0.20867  1.0000
  H   H257      1.0  0.16219  0.63075  0.00872  1.0000
  H   H258      1.0  0.07232  0.59990  0.20794  1.0000
  C   C323      1.0  0.11442  0.64806  0.28396  1.0000
  C   C324      1.0  0.01941  0.57419  0.29617  1.0000
  C   C325      1.0  0.03523  0.57917  0.28777  1.0000
  C   C326      1.0  0.04101  0.59102  0.29361  1.0000
  C   C327      1.0  0.03100  0.59785  0.30802  1.0000
  C   C328      1.0  0.01507  0.59290  0.31628  1.0000
  P   P12       1.0  0.03732  0.61430  0.31487  1.0000
  C   C329      1.0  0.03349  0.60931  0.33831  1.0000
  C   C330      1.0  0.06049  0.61315  0.30691  1.0000
  C   C331      1.0  0.07252  0.59923  0.31407  1.0000
  C   C332      1.0  0.09041  0.59764  0.30714  1.0000
  C   C333      1.0  0.09639  0.60984  0.29291  1.0000
  C   C334      1.0  0.02864  0.62236  0.34798  1.0000
  C   C335      1.0  0.06667  0.62546  0.29277  1.0000
  H   H259      1.0  0.02617  0.63580  0.34195  1.0000
  H   H260      1.0  0.14093  0.57512  0.01721  1.0000
  C   C336      1.0  0.24367  0.62572  0.04803  1.0000
  C   C337      1.0  0.09244  0.64029  0.19981  1.0000
  C   C338      1.0  0.03569  0.59196  0.34713  1.0000
  C   C339      1.0  0.02558  0.63527  0.30570  1.0000
  C   C340      1.0  0.01475  0.63676  0.29413  1.0000
  C   C341      1.0  0.21304  0.55570  0.01816  1.0000
  C   C342      1.0  0.21024  0.63385  0.41870  1.0000
  C   C343      1.0  0.21992  0.62410  0.45080  1.0000
  C   C344      1.0  0.10613  0.64576  0.30139  1.0000
  H   H261      1.0  0.13865  0.54518  0.03262  1.0000
  H   H262      1.0  0.20097  0.55170  0.02504  1.0000
  H   H263      1.0  0.04280  0.57416  0.27646  1.0000
  H   H264      1.0  0.05305  0.59507  0.28665  1.0000
  C   C345      1.0  0.15459  0.56575  0.19595  1.0000
  H   H265      1.0  0.06812  0.58944  0.32480  1.0000
  H   H266      1.0  0.09959  0.58681  0.31267  1.0000
  C   C346      1.0  0.08451  0.62374  0.28575  1.0000
  H   H267      1.0  0.02209  0.62848  0.37326  1.0000
  C   C347      1.0  0.02620  0.61819  0.36600  1.0000
  H   H268      1.0  0.22668  0.59818  0.44636  1.0000
  H   H269      1.0  0.16110  0.55228  0.19721  1.0000
  H   H270      1.0  0.15771  0.64589  0.04074  1.0000
  H   H271      1.0  0.20791  0.59557  0.02342  1.0000
  C   C348      1.0  0.19865  0.63949  0.01559  1.0000
  H   H272      1.0  0.01235  0.62547  0.29122  1.0000
  H   H273      1.0  0.15864  0.56804  0.22027  1.0000
  H   H274      1.0  0.19165  0.52675  0.00873  1.0000
  C   C349      1.0  0.16505  0.53414  0.02159  1.0000
  C   C350      1.0  0.18064  0.53740  0.01045  1.0000
  H   H275      1.0  0.16407  0.52106  0.02831  1.0000
  C   C351      1.0  0.20060  0.60864  0.02022  1.0000
  H   H276      1.0  0.10654  0.64545  0.16449  1.0000
  C   C352      1.0  0.15074  0.54773  0.02402  1.0000
  C   C353      1.0  0.07447  0.64141  0.20570  1.0000
  H   H277      1.0  0.22366  0.62025  0.46327  1.0000
  H   H278      1.0  0.11009  0.63389  0.31027  1.0000
  H   H279      1.0  0.02617  0.59779  0.38859  1.0000
  H   H280      1.0  0.21793  0.60676  0.41785  1.0000
  C   C354      1.0  0.22459  0.55706  0.02772  1.0000
  C   C355      1.0  0.16760  0.56790  0.00419  1.0000
  C   C356      1.0  0.13287  0.63313  0.16791  1.0000
  C   C357      1.0  0.03311  0.58782  0.36517  1.0000
  H   H281      1.0  0.23648  0.64760  0.06071  1.0000
  C   C358      1.0  0.13036  0.63818  0.23320  1.0000
  H   H282      1.0  0.12399  0.63651  0.24669  1.0000
  C   C359      1.0  0.15051  0.63036  0.15952  1.0000
  H   H283      1.0  0.16905  0.63574  0.13570  1.0000
  H   H284      1.0  0.23922  0.63304  0.03638  1.0000
  H   H285      1.0  0.99676  0.57770  0.31664  1.0000
  P   P13       1.0  0.20219  0.55839  0.98732  1.0000
  H   H286      1.0  0.01470  0.56534  0.29141  1.0000
  C   C360      1.0  0.21368  0.64153  0.44425  1.0000
  C   C361      1.0  0.17734  0.51543  0.85925  1.0000
  C   C362      1.0  0.15744  0.47793  0.60930  1.0000
  C   C363      1.0  0.20730  0.56014  0.65647  1.0000
  C   C364      1.0  0.15490  0.61287  0.67065  1.0000
  C   C365      1.0  0.19751  0.57865  0.97234  1.0000
  Fe  Fe21      1.0  0.13668  0.60461  0.79059  1.0000
  S   S42       1.0  0.16419  0.59810  0.77589  1.0000
  S   S43       1.0  0.12756  0.62183  0.81062  1.0000
  Fe  Fe22      1.0  0.12360  0.58023  0.77506  1.0000
  S   S44       1.0  0.14998  0.57233  0.75928  1.0000
  S   S45       1.0  0.09967  0.57011  0.77508  1.0000
  Fe  Fe23      1.0  0.16019  0.57083  0.78283  1.0000
  S   S46       1.0  0.18031  0.54737  0.79097  1.0000
  Fe  Fe24      1.0  0.15180  0.60022  0.75356  1.0000
  S   S47       1.0  0.16329  0.61137  0.72601  1.0000
  S   S48       1.0  0.13354  0.57690  0.79937  1.0000
  S   S49       1.0  0.12432  0.60868  0.76756  1.0000
  H   H287      1.0  0.18808  0.56798  0.95547  1.0000
  C   C366      1.0  0.20079  0.57318  0.60073  1.0000
  H   H288      1.0  0.10014  0.43055  0.77777  1.0000
  H   H289      1.0  0.21735  0.58456  0.86556  1.0000
  H   H290      1.0  0.17190  0.53813  0.60460  1.0000
  S   S50       1.0  0.22213  0.61702  0.52647  1.0000
  C   C367      1.0  0.16121  0.38272  0.74433  1.0000
  Fe  Fe25      1.0  0.19474  0.61962  0.52351  1.0000
  S   S51       1.0  0.17737  0.60023  0.53567  1.0000
  H   H291      1.0  0.18041  0.49628  0.84426  1.0000
  H   H292      1.0  0.01648  0.41285  0.71298  1.0000
  Fe  Fe26      1.0  0.06809  0.46805  0.71979  1.0000
  S   S52       1.0  0.09449  0.45986  0.70380  1.0000
  S   S53       1.0  0.04580  0.45391  0.72382  1.0000
  Fe  Fe27      1.0  0.08138  0.49390  0.73381  1.0000
  S   S54       1.0  0.10840  0.48722  0.71866  1.0000
  S   S55       1.0  0.07392  0.51218  0.75289  1.0000
  Fe  Fe28      1.0  0.09552  0.48801  0.69713  1.0000
  S   S56       1.0  0.10693  0.50083  0.67030  1.0000
  Fe  Fe29      1.0  0.10476  0.45987  0.72681  1.0000
  S   S57       1.0  0.12497  0.43851  0.73758  1.0000
  S   S58       1.0  0.06820  0.49664  0.71155  1.0000
  S   S59       1.0  0.07854  0.46620  0.74345  1.0000
  H   H293      1.0  0.16260  0.60233  0.59947  1.0000
  H   H294      1.0  0.18591  0.53953  0.97173  1.0000
  H   H295      1.0  0.15328  0.58246  0.82522  1.0000
  Fe  Fe30      1.0  0.21173  0.51288  0.59641  1.0000
  S   S60       1.0  0.20481  0.52618  0.61880  1.0000
  S   S61       1.0  0.19699  0.52238  0.57466  1.0000
  H   H296      1.0  0.14827  0.63716  0.59819  1.0000
  C   C368      1.0  0.20017  0.59395  0.97525  1.0000
  Fe  Fe31      1.0  0.20571  0.49963  0.63530  1.0000
  S   S62       1.0  0.18859  0.49113  0.66093  1.0000
  H   H297      1.0  0.00310  0.41057  0.62767  1.0000
  S   S63       1.0  0.21019  0.48656  0.61310  1.0000
  S   S64       1.0  0.02748  0.36487  0.67702  1.0000
  C   C369      1.0  0.03227  0.37815  0.80464  1.0000
  H   H298      1.0  0.19509  0.47811  0.69614  1.0000
  Fe  Fe32      1.0  0.15241  0.43767  0.81701  1.0000
  S   S65       1.0  0.13571  0.43227  0.84344  1.0000
  S   S66       1.0  0.14342  0.46138  0.79790  1.0000
  Fe  Fe33      1.0  0.18085  0.40702  0.82513  1.0000
  S   S67       1.0  0.16652  0.39921  0.85226  1.0000
  S   S68       1.0  0.20695  0.39099  0.81576  1.0000
  Fe  Fe34      1.0  0.14299  0.40450  0.84030  1.0000
  S   S69       1.0  0.12408  0.38595  0.84872  1.0000
  Fe  Fe35      1.0  0.16084  0.42760  0.85272  1.0000
  S   S70       1.0  0.16140  0.43698  0.87659  1.0000
  S   S71       1.0  0.15785  0.41039  0.81314  1.0000
  S   S72       1.0  0.17691  0.43492  0.82638  1.0000
  S   S73       1.0  0.23296  0.40862  0.73489  1.0000
  H   H299      1.0  0.14968  0.63078  0.68763  1.0000
  H   H300      1.0  0.23152  0.44606  0.85817  1.0000
  S   S74       1.0  0.02406  0.34129  0.79302  1.0000
  C   C370      1.0  0.15646  0.33199  0.79660  1.0000
  S   S75       1.0  0.10218  0.34993  0.79855  1.0000
  C   C371      1.0  0.22075  0.48334  0.68482  1.0000
  Fe  Fe36      1.0  0.22219  0.53906  0.86605  1.0000
  S   S76       1.0  0.20236  0.53685  0.89072  1.0000
  S   S77       1.0  0.21788  0.56099  0.84370  1.0000
  Fe  Fe37      1.0  0.21096  0.50810  0.89196  1.0000
  S   S78       1.0  0.19110  0.49053  0.90097  1.0000
  C   C372      1.0  0.20976  0.57673  0.65572  1.0000
  C   C373      1.0  0.10829  0.35951  0.81282  1.0000
  C   C374      1.0  0.10201  0.35602  0.83069  1.0000
  C   C375      1.0  0.10712  0.36405  0.84150  1.0000
  C   C376      1.0  0.11853  0.37566  0.83461  1.0000
  C   C377      1.0  0.12480  0.37914  0.81673  1.0000
  C   C378      1.0  0.11978  0.37105  0.80593  1.0000
  H   H301      1.0  0.09318  0.34716  0.83619  1.0000
  H   H302      1.0  0.10213  0.36130  0.85529  1.0000
  C   C379      1.0  0.21323  0.39511  0.79318  1.0000
  C   C380      1.0  0.22730  0.38393  0.78512  1.0000
  C   C381      1.0  0.23305  0.38760  0.76712  1.0000
  C   C382      1.0  0.22493  0.40263  0.75718  1.0000
  C   C383      1.0  0.21041  0.41339  0.76519  1.0000
  C   C384      1.0  0.20454  0.40966  0.78316  1.0000
  H   H303      1.0  0.22578  0.53816  0.69089  1.0000
  H   H304      1.0  0.20383  0.42479  0.75753  1.0000
  H   H305      1.0  0.19352  0.41823  0.78930  1.0000
  C   C385      1.0  0.17097  0.45187  0.88187  1.0000
  C   C386      1.0  0.18374  0.46048  0.87043  1.0000
  C   C387      1.0  0.19071  0.47202  0.87598  1.0000
  C   C388      1.0  0.18437  0.47550  0.89276  1.0000
  C   C389      1.0  0.17158  0.46693  0.90389  1.0000
  C   C390      1.0  0.16513  0.45516  0.89860  1.0000
  H   H306      1.0  0.18844  0.45798  0.85751  1.0000
  H   H307      1.0  0.20085  0.47823  0.86730  1.0000
  H   H308      1.0  0.16662  0.46935  0.91685  1.0000
  H   H309      1.0  0.15532  0.44866  0.90756  1.0000
  C   C391      1.0  0.02529  0.33274  0.73977  1.0000
  C   C392      1.0  0.03718  0.32472  0.76579  1.0000
  C   C393      1.0  0.02453  0.33780  0.77264  1.0000
  C   C394      1.0  0.01208  0.34806  0.76320  1.0000
  C   C395      1.0  0.01236  0.34542  0.74684  1.0000
  H   H310      1.0  0.19304  0.50905  0.79722  1.0000
  C   C396      1.0  0.23350  0.49489  0.70218  1.0000
  H   H311      1.0  0.13141  0.48041  0.54993  1.0000
  C   C397      1.0  0.19587  0.60969  0.96401  1.0000
  H   H312      1.0  0.06812  0.45124  0.78930  1.0000
  H   H313      1.0  0.06656  0.40314  0.81984  1.0000
  H   H314      1.0  0.12475  0.37385  0.79215  1.0000
  H   H315      1.0  0.18673  0.61057  0.83489  1.0000
  Fe  Fe38      1.0  0.21267  0.64374  0.53200  1.0000
  H   H316      1.0  0.06724  0.53551  0.68824  1.0000
  Fe  Fe39      1.0  0.22665  0.63058  0.49846  1.0000
  C   C398      1.0  0.12052  0.32412  0.74763  1.0000
  C   C399      1.0  0.05484  0.40153  0.79151  1.0000
  H   H317      1.0  0.02336  0.42972  0.73098  1.0000
  C   C400      1.0  0.12964  0.44479  0.75463  1.0000
  C   C401      1.0  0.14272  0.43436  0.76316  1.0000
  C   C402      1.0  0.14763  0.43992  0.77575  1.0000
  C   C403      1.0  0.13871  0.45551  0.78065  1.0000
  C   C404      1.0  0.12544  0.46593  0.77226  1.0000
  C   C405      1.0  0.12098  0.46061  0.75922  1.0000
  H   H318      1.0  0.14912  0.42205  0.75998  1.0000
  H   H319      1.0  0.15834  0.43213  0.78160  1.0000
  H   H320      1.0  0.11822  0.47789  0.77603  1.0000
  H   H321      1.0  0.11064  0.46869  0.75298  1.0000
  C   C406      1.0  0.04210  0.44141  0.71057  1.0000
  C   C407      1.0  0.03390  0.42242  0.68991  1.0000
  C   C408      1.0  0.04614  0.43320  0.68290  1.0000
  C   C409      1.0  0.05034  0.44253  0.69318  1.0000
  H   H322      1.0  0.05226  0.43450  0.66936  1.0000
  H   H323      1.0  0.05955  0.45096  0.68752  1.0000
  C   C410      1.0  0.12965  0.49810  0.66745  1.0000
  C   C411      1.0  0.13862  0.50940  0.65443  1.0000
  C   C412      1.0  0.15680  0.50730  0.65213  1.0000
  C   C413      1.0  0.16598  0.49398  0.66297  1.0000
  C   C414      1.0  0.15698  0.48277  0.67604  1.0000
  C   C415      1.0  0.13889  0.48469  0.67815  1.0000
  H   H324      1.0  0.13150  0.51978  0.64616  1.0000
  H   H325      1.0  0.16370  0.51588  0.64191  1.0000
  H   H326      1.0  0.16402  0.47244  0.68447  1.0000
  H   H327      1.0  0.13212  0.47573  0.68804  1.0000
  C   C416      1.0  0.18380  0.57896  0.54703  1.0000
  C   C417      1.0  0.17178  0.56814  0.55142  1.0000
  C   C418      1.0  0.17598  0.55104  0.56015  1.0000
  C   C419      1.0  0.19213  0.54453  0.56505  1.0000
  C   C420      1.0  0.20414  0.55541  0.56118  1.0000
  C   C421      1.0  0.20004  0.57262  0.55199  1.0000
  H   H328      1.0  0.15922  0.57293  0.54770  1.0000
  H   H329      1.0  0.16664  0.54282  0.56300  1.0000
  H   H330      1.0  0.21677  0.55041  0.56470  1.0000
  H   H331      1.0  0.20941  0.58091  0.54868  1.0000
  C   C422      1.0  0.02993  0.43058  0.71760  1.0000
  H   H332      1.0  0.11135  0.34040  0.76637  1.0000
  C   C423      1.0  0.14106  0.63219  0.81702  1.0000
  C   C424      1.0  0.15587  0.63726  0.80573  1.0000
  H   H333      1.0  0.02035  0.39908  0.75522  1.0000
  C   C425      1.0  0.20543  0.57697  0.61452  1.0000
  C   C426      1.0  0.23667  0.34130  0.75359  1.0000
  C   C427      1.0  0.13630  0.63620  0.83358  1.0000
  H   H334      1.0  0.15961  0.63440  0.79291  1.0000
  C   C428      1.0  0.22379  0.46608  0.81347  1.0000
  C   C429      1.0  0.21423  0.31955  0.77386  1.0000
  H   H335      1.0  0.06446  0.32572  0.67506  1.0000
  C   C430      1.0  0.19134  0.55104  0.80520  1.0000
  C   C431      1.0  0.19441  0.56744  0.80380  1.0000
  C   C432      1.0  0.20287  0.57031  0.81550  1.0000
  C   C433      1.0  0.20755  0.55701  0.82911  1.0000
  C   C434      1.0  0.20465  0.54055  0.83042  1.0000
  C   C435      1.0  0.19702  0.53747  0.81816  1.0000
  H   H336      1.0  0.19051  0.57789  0.79360  1.0000
  H   H337      1.0  0.20545  0.58296  0.81419  1.0000
  H   H338      1.0  0.20849  0.53015  0.84072  1.0000
  H   H339      1.0  0.19513  0.52468  0.81901  1.0000
  C   C436      1.0  0.09435  0.55327  0.76822  1.0000
  C   C437      1.0  0.10645  0.54133  0.75902  1.0000
  C   C438      1.0  0.10076  0.52837  0.75420  1.0000
  C   C439      1.0  0.08293  0.52750  0.75837  1.0000
  C   C440      1.0  0.07118  0.53932  0.76772  1.0000
  C   C441      1.0  0.07678  0.55203  0.77247  1.0000
  H   H340      1.0  0.12007  0.54211  0.75559  1.0000
  H   H341      1.0  0.11012  0.51910  0.74733  1.0000
  H   H342      1.0  0.05747  0.53880  0.77118  1.0000
  H   H343      1.0  0.06727  0.56107  0.77950  1.0000
  C   C442      1.0  0.22073  0.61314  0.71920  1.0000
  C   C443      1.0  0.21512  0.60794  0.70679  1.0000
  C   C444      1.0  0.19742  0.60760  0.70881  1.0000
  C   C445      1.0  0.18532  0.61227  0.72334  1.0000
  C   C446      1.0  0.19089  0.61763  0.73564  1.0000
  C   C447      1.0  0.20853  0.61816  0.73351  1.0000
  H   H344      1.0  0.22437  0.60413  0.69569  1.0000
  H   H345      1.0  0.19319  0.60336  0.69930  1.0000
  H   H346      1.0  0.18159  0.62156  0.74672  1.0000
  H   H347      1.0  0.21277  0.62226  0.74312  1.0000
  C   C448      1.0  0.21280  0.54631  0.66929  1.0000
  H   H348      1.0  0.16130  0.46404  0.58879  1.0000
  H   H349      1.0  0.00235  0.35817  0.76847  1.0000
  H   H350      1.0  0.12433  0.59555  0.84310  1.0000
  C   C449      1.0  0.17157  0.36221  0.80856  1.0000
  H   H351      1.0  0.06939  0.43101  0.74509  1.0000
  H   H352      1.0  0.13327  0.38829  0.81117  1.0000
  H   H353      1.0  0.17213  0.60380  0.81484  1.0000
  C   C450      1.0  0.22078  0.54897  0.68144  1.0000
  H   H354      1.0  0.22957  0.50477  0.94865  1.0000
  H   H355      1.0  0.21102  0.33444  0.80348  1.0000
  H   H356      1.0  0.19831  0.62136  0.96612  1.0000
  C   C451      1.0  0.99567  0.31766  0.62549  1.0000
  C   C452      1.0  0.14628  0.64508  0.83885  1.0000
  H   H357      1.0  0.16440  0.59421  0.65433  1.0000
  H   H358      1.0  0.18740  0.50811  0.86631  1.0000
  C   C453      1.0  0.17008  0.59746  0.82831  1.0000
  C   C454      1.0  0.09644  0.42486  0.79134  1.0000
  C   C455      1.0  0.17848  0.60110  0.83957  1.0000
  C   C456      1.0  0.21533  0.57410  0.74648  1.0000
  C   C457      1.0  0.22476  0.57164  0.75935  1.0000
  H   H359      1.0  0.23386  0.37251  0.79285  1.0000
  C   C458      1.0  0.99711  0.39135  0.61751  1.0000
  C   C459      1.0  0.22698  0.58746  0.87094  1.0000
  H   H360      1.0  0.09798  0.60429  0.83073  1.0000
  C   C460      1.0  0.10199  0.59091  0.83684  1.0000
  C   C461      1.0  0.15944  0.58527  0.83424  1.0000
  H   H361      1.0  0.20188  0.58099  0.74823  1.0000
  H   H362      1.0  0.21828  0.57631  0.77109  1.0000
  C   C462      1.0  0.08326  0.46456  0.81487  1.0000
  C   C463      1.0  0.11710  0.48204  0.63179  1.0000
  C   C464      1.0  0.21593  0.42729  0.87087  1.0000
  C   C465      1.0  0.20748  0.41511  0.86908  1.0000
  C   C466      1.0  0.20870  0.41202  0.85273  1.0000
  H   H363      1.0  0.21465  0.42994  0.88354  1.0000
  H   H364      1.0  0.19967  0.40833  0.88031  1.0000
  H   H365      1.0  0.20222  0.40252  0.85130  1.0000
  H   H366      1.0  0.10666  0.33135  0.71010  1.0000
  H   H367      1.0  0.18054  0.48421  0.81590  1.0000
  H   H368      1.0  0.16520  0.57269  0.87586  1.0000
  C   C467      1.0  0.22543  0.43656  0.85630  1.0000
  H   H369      1.0  0.10271  0.58550  0.73692  1.0000
  H   H370      1.0  0.15230  0.38329  0.73620  1.0000
  C   C468      1.0  0.08734  0.41038  0.82641  1.0000
  H   H371      1.0  0.12011  0.38238  0.75076  1.0000
  H   H372      1.0  0.23967  0.58869  0.63760  1.0000
  H   H373      1.0  0.21537  0.36223  0.75850  1.0000
  H   H374      1.0  0.23396  0.54608  0.80391  1.0000
  H   H375      1.0  0.02093  0.32073  0.68541  1.0000
  C   C469      1.0  0.03015  0.45680  0.76621  1.0000
  H   H376      1.0  0.08936  0.54340  0.66213  1.0000
  C   C470      1.0  0.18361  0.38167  0.76582  1.0000
  H   H377      1.0  0.17081  0.60944  0.62363  1.0000
  C   C471      1.0  0.08352  0.41171  0.76299  1.0000
  H   H378      1.0  0.07214  0.38086  0.77942  1.0000
  H   H379      1.0  0.07369  0.48180  0.64109  1.0000
  H   H380      1.0  0.11751  0.43154  0.79829  1.0000
  H   H381      1.0  0.12499  0.53471  0.81610  1.0000
  H   H382      1.0  0.20140  0.55773  0.64708  1.0000
  H   H383      1.0  0.17965  0.63656  0.67905  1.0000
  H   H384      1.0  0.14681  0.48402  0.87602  1.0000
  H   H385      1.0  0.04060  0.32893  0.65792  1.0000
  C   C472      1.0  0.23207  0.60503  0.80405  1.0000
  Fe  Fe40      1.0  0.23859  0.48370  0.61264  1.0000
  C   C473      1.0  0.02597  0.42101  0.70740  1.0000
  C   C474      1.0  0.21796  0.42140  0.83812  1.0000
  C   C475      1.0  0.22306  0.56546  0.68095  1.0000
  C   C476      1.0  0.10628  0.42553  0.80287  1.0000
  C   C477      1.0  0.09748  0.56154  0.84552  1.0000
  C   C478      1.0  0.22262  0.41769  0.64865  1.0000
  C   C479      1.0  0.22495  0.43463  0.64192  1.0000
  C   C480      1.0  0.21620  0.44764  0.65114  1.0000
  C   C481      1.0  0.20488  0.44379  0.66697  1.0000
  C   C482      1.0  0.20220  0.42686  0.67366  1.0000
  C   C483      1.0  0.21116  0.41381  0.66440  1.0000
  P   P14       1.0  0.18552  0.42260  0.69262  1.0000
  C   C484      1.0  0.18595  0.43523  0.70775  1.0000
  C   C485      1.0  0.16450  0.42846  0.68637  1.0000
  C   C486      1.0  0.14963  0.42391  0.69815  1.0000
  C   C487      1.0  0.13322  0.42965  0.69373  1.0000
  C   C488      1.0  0.13153  0.43976  0.67743  1.0000
  C   C489      1.0  0.14629  0.44387  0.66544  1.0000
  C   C490      1.0  0.16270  0.43824  0.66987  1.0000
  C   C491      1.0  0.17040  0.44357  0.71710  1.0000
  C   C492      1.0  0.17087  0.45211  0.72973  1.0000
  C   C493      1.0  0.18678  0.45257  0.73307  1.0000
  C   C494      1.0  0.20234  0.44500  0.72333  1.0000
  C   C495      1.0  0.20196  0.43650  0.71061  1.0000
  C   C496      1.0  0.19053  0.39989  0.70234  1.0000
  C   C497      1.0  0.20380  0.39355  0.71195  1.0000
  C   C498      1.0  0.20817  0.37593  0.71892  1.0000
  C   C499      1.0  0.19937  0.36442  0.71636  1.0000
  C   C500      1.0  0.18630  0.37053  0.70663  1.0000
  C   C501      1.0  0.18196  0.38817  0.69953  1.0000
  H   H386      1.0  0.22967  0.56740  0.69010  1.0000
  H   H387      1.0  0.15971  0.37322  0.83116  1.0000
  H   H388      1.0  0.21809  0.46077  0.64594  1.0000
  H   H389      1.0  0.19785  0.45412  0.67373  1.0000
  H   H390      1.0  0.20924  0.40068  0.66919  1.0000
  H   H391      1.0  0.15054  0.41653  0.71101  1.0000
  H   H392      1.0  0.12175  0.42676  0.70321  1.0000
  H   H393      1.0  0.11875  0.44464  0.67418  1.0000
  H   H394      1.0  0.14501  0.45178  0.65283  1.0000
  H   H395      1.0  0.17385  0.44180  0.66047  1.0000
  H   H396      1.0  0.15783  0.44343  0.71495  1.0000
  H   H397      1.0  0.15881  0.45812  0.73716  1.0000
  H   H398      1.0  0.18697  0.45879  0.74322  1.0000
  H   H399      1.0  0.21475  0.44539  0.72584  1.0000
  H   H400      1.0  0.21421  0.43056  0.70333  1.0000
  H   H401      1.0  0.21097  0.40204  0.71408  1.0000
  H   H402      1.0  0.21852  0.37128  0.72619  1.0000
  H   H403      1.0  0.20281  0.35077  0.72182  1.0000
  H   H404      1.0  0.17963  0.36155  0.70448  1.0000
  H   H405      1.0  0.17209  0.39256  0.69172  1.0000
  S   S79       1.0  0.07527  0.32682  0.78282  1.0000
  S   S80       1.0  0.19992  0.63089  0.49490  1.0000
  C   C502      1.0  0.17123  0.33199  0.78309  1.0000
  P   P15       1.0  0.21607  0.50222  0.73480  1.0000
  C   C503      1.0  0.20527  0.48777  0.75256  1.0000
  C   C504      1.0  0.20295  0.52380  0.73226  1.0000
  C   C505      1.0  0.19589  0.53137  0.71736  1.0000
  C   C506      1.0  0.18636  0.54835  0.71528  1.0000
  C   C507      1.0  0.18336  0.55772  0.72822  1.0000
  C   C508      1.0  0.18987  0.55005  0.74328  1.0000
  C   C509      1.0  0.19998  0.53334  0.74514  1.0000
  C   C510      1.0  0.18956  0.49380  0.76341  1.0000
  C   C511      1.0  0.18124  0.48221  0.77665  1.0000
  C   C512      1.0  0.18866  0.46461  0.77938  1.0000
  C   C513      1.0  0.20439  0.45856  0.76887  1.0000
  C   C514      1.0  0.21255  0.47001  0.75535  1.0000
  C   C515      1.0  0.21863  0.49411  0.71547  1.0000
  C   C516      1.0  0.20479  0.48809  0.71311  1.0000
  C   C517      1.0  0.20588  0.48267  0.69790  1.0000
  H   H406      1.0  0.13302  0.32202  0.80835  1.0000
  C   C518      1.0  0.99852  0.33882  0.64050  1.0000
  H   H407      1.0  0.24120  0.63013  0.67780  1.0000
  C   C519      1.0  0.15585  0.50875  0.54979  1.0000
  H   H408      1.0  0.19792  0.52442  0.70714  1.0000
  H   H409      1.0  0.18141  0.55430  0.70355  1.0000
  H   H410      1.0  0.17610  0.57097  0.72655  1.0000
  H   H411      1.0  0.18742  0.55718  0.75346  1.0000
  H   H412      1.0  0.20535  0.52789  0.75672  1.0000
  H   H413      1.0  0.18364  0.50735  0.76184  1.0000
  H   H414      1.0  0.16908  0.48678  0.78500  1.0000
  H   H415      1.0  0.18220  0.45567  0.78968  1.0000
  H   H416      1.0  0.21018  0.44495  0.77124  1.0000
  H   H417      1.0  0.22462  0.46506  0.74716  1.0000
  H   H418      1.0  0.19301  0.48783  0.72292  1.0000
  H   H419      1.0  0.10527  0.50239  0.59332  1.0000
  C   C520      1.0  0.07051  0.34968  0.67593  1.0000
  C   C521      1.0  0.21319  0.62303  0.61721  1.0000
  C   C522      1.0  0.04840  0.39434  0.74826  1.0000
  C   C523      1.0  0.03197  0.39189  0.74823  1.0000
  C   C524      1.0  0.03049  0.38046  0.73879  1.0000
  C   C525      1.0  0.04544  0.37109  0.72976  1.0000
  C   C526      1.0  0.06206  0.37337  0.72987  1.0000
  C   C527      1.0  0.06336  0.38519  0.73909  1.0000
  P   P16       1.0  0.08143  0.36305  0.71662  1.0000
  C   C528      1.0  0.09653  0.34780  0.72905  1.0000
  C   C529      1.0  0.07528  0.35171  0.70348  1.0000
  H   H420      1.0  0.23493  0.45350  0.78398  1.0000
  H   H421      1.0  0.19975  0.62787  0.61588  1.0000
  C   C530      1.0  0.22589  0.63227  0.60713  1.0000
  C   C531      1.0  0.21068  0.64600  0.92033  1.0000
  C   C532      1.0  0.07437  0.35906  0.68615  1.0000
  H   H422      1.0  0.20161  0.62223  0.65749  1.0000
  H   H423      1.0  0.07140  0.32957  0.72413  1.0000
  H   H424      1.0  0.06926  0.35559  0.66277  1.0000
  H   H425      1.0  0.24190  0.52357  0.71630  1.0000
  C   C533      1.0  0.09822  0.35028  0.74491  1.0000
  C   C534      1.0  0.09236  0.37976  0.70267  1.0000
  C   C535      1.0  0.08268  0.39626  0.69703  1.0000
  C   C536      1.0  0.09111  0.40901  0.68578  1.0000
  C   C537      1.0  0.10919  0.40538  0.67998  1.0000
  C   C538      1.0  0.11892  0.38905  0.68560  1.0000
  C   C539      1.0  0.11055  0.37625  0.69687  1.0000
  H   H426      1.0  0.04954  0.40357  0.75513  1.0000
  C   C540      1.0  0.11032  0.33858  0.75401  1.0000
  H   H427      1.0  0.18577  0.44178  0.59830  1.0000
  H   H428      1.0  0.04384  0.36239  0.72250  1.0000
  H   H429      1.0  0.07590  0.38765  0.73886  1.0000
  C   C541      1.0  0.23554  0.60095  0.62943  1.0000
  C   C542      1.0  0.21970  0.49562  0.79703  1.0000
  H   H430      1.0  0.07637  0.37206  0.68052  1.0000
  S   S81       1.0  0.99895  0.37877  0.70966  1.0000
  C   C543      1.0  0.14151  0.51519  0.60621  1.0000
  C   C544      1.0  0.21103  0.54088  0.97564  1.0000
  C   C545      1.0  0.23401  0.60013  0.89143  1.0000
  H   H431      1.0  0.09012  0.36096  0.75055  1.0000
  H   H432      1.0  0.06858  0.39924  0.70106  1.0000
  H   H433      1.0  0.08354  0.42164  0.68137  1.0000
  H   H434      1.0  0.11560  0.41516  0.67096  1.0000
  H   H435      1.0  0.13293  0.38623  0.68103  1.0000
  H   H436      1.0  0.11827  0.36359  0.70084  1.0000
  C   C546      1.0  0.11375  0.58257  0.72661  1.0000
  C   C547      1.0  0.12751  0.59128  0.72252  1.0000
  C   C548      1.0  0.14199  0.58707  0.70967  1.0000
  C   C549      1.0  0.14275  0.57421  0.70088  1.0000
  C   C550      1.0  0.12895  0.56540  0.70483  1.0000
  C   C551      1.0  0.11446  0.56965  0.71786  1.0000
  P   P17       1.0  0.13161  0.54689  0.69538  1.0000
  C   C552      1.0  0.11107  0.54374  0.69285  1.0000
  C   C553      1.0  0.14624  0.55003  0.67465  1.0000
  C   C554      1.0  0.14229  0.56491  0.66207  1.0000
  C   C555      1.0  0.15328  0.56722  0.64579  1.0000
  C   C556      1.0  0.16852  0.55496  0.64216  1.0000
  C   C557      1.0  0.17284  0.54047  0.65485  1.0000
  C   C558      1.0  0.16171  0.53791  0.67097  1.0000
  C   C559      1.0  0.09873  0.53848  0.70751  1.0000
  C   C560      1.0  0.08285  0.53592  0.70587  1.0000
  C   C561      1.0  0.07933  0.53803  0.68951  1.0000
  C   C562      1.0  0.09175  0.54266  0.67479  1.0000
  C   C563      1.0  0.10759  0.54540  0.67641  1.0000
  C   C564      1.0  0.14110  0.52794  0.70941  1.0000
  C   C565      1.0  0.14986  0.52933  0.72165  1.0000
  C   C566      1.0  0.15760  0.51449  0.73206  1.0000
  C   C567      1.0  0.15626  0.49820  0.73068  1.0000
  C   C568      1.0  0.14784  0.49672  0.71831  1.0000
  C   C569      1.0  0.14034  0.51154  0.70765  1.0000
  C   C570      1.0  0.10434  0.49536  0.60656  1.0000
  H   H437      1.0  0.12711  0.60105  0.72955  1.0000
  H   H438      1.0  0.15282  0.59356  0.70675  1.0000
  H   H439      1.0  0.15438  0.57085  0.69137  1.0000
  H   H440      1.0  0.10383  0.56285  0.72171  1.0000
  H   H441      1.0  0.13047  0.57447  0.66477  1.0000
  H   H442      1.0  0.14994  0.57844  0.63593  1.0000
  H   H443      1.0  0.17697  0.55661  0.62950  1.0000
  H   H444      1.0  0.18461  0.53086  0.65216  1.0000
  H   H445      1.0  0.16520  0.52627  0.68031  1.0000
  H   H446      1.0  0.10146  0.53602  0.72026  1.0000
  H   H447      1.0  0.07343  0.53189  0.71733  1.0000
  H   H448      1.0  0.11717  0.54818  0.66477  1.0000
  H   H449      1.0  0.15071  0.54179  0.72331  1.0000
  H   H450      1.0  0.16442  0.51567  0.74135  1.0000
  H   H451      1.0  0.16168  0.48677  0.73926  1.0000
  H   H452      1.0  0.14691  0.48413  0.71700  1.0000
  H   H453      1.0  0.13388  0.51024  0.69807  1.0000
  C   C571      1.0  0.24338  0.62593  0.60830  1.0000
  C   C572      1.0  0.17934  0.45184  0.60558  1.0000
  H   H454      1.0  0.23106  0.63264  0.86350  1.0000
  C   C573      1.0  0.22162  0.59698  0.88404  1.0000
  C   C574      1.0  0.16728  0.39745  0.74364  1.0000
  C   C575      1.0  0.17844  0.39695  0.75437  1.0000
  H   H455      1.0  0.16302  0.40945  0.73513  1.0000
  H   H456      1.0  0.18282  0.40853  0.75398  1.0000
  C   C576      1.0  0.08384  0.35127  0.62929  1.0000
  C   C577      1.0  0.07044  0.36471  0.62409  1.0000
  C   C578      1.0  0.05559  0.36096  0.62129  1.0000
  C   C579      1.0  0.05413  0.34380  0.62367  1.0000
  H   H457      1.0  0.00265  0.35326  0.73966  1.0000
  H   H458      1.0  0.02751  0.31869  0.86063  1.0000
  C   C580      1.0  0.17435  0.59504  0.60400  1.0000
  H   H459      1.0  0.14260  0.64786  0.85169  1.0000
  C   C581      1.0  0.20161  0.49706  0.80170  1.0000
  H   H460      1.0  0.15697  0.48800  0.63135  1.0000
  C   C582      1.0  0.04657  0.46870  0.77966  1.0000
  H   H461      1.0  0.14303  0.50488  0.76667  1.0000
  H   H462      1.0  0.08902  0.42240  0.71912  1.0000
  H   H463      1.0  0.10051  0.39095  0.77691  1.0000
  H   H464      1.0  0.04584  0.56031  0.83689  1.0000
  H   H465      1.0  0.14731  0.54395  0.79111  1.0000
  C   C583      1.0  0.09227  0.57874  0.83758  1.0000
  C   C584      1.0  0.06809  0.32573  0.70021  1.0000
  C   C585      1.0  0.07744  0.40965  0.81493  1.0000
  C   C586      1.0  0.22438  0.51454  0.95648  1.0000
  H   H466      1.0  0.21787  0.57035  0.61796  1.0000
  Fe  Fe41      1.0  0.01272  0.35327  0.70254  1.0000
  C   C587      1.0  0.16755  0.60417  0.65886  1.0000
  H   H467      1.0  0.13576  0.47934  0.82889  1.0000
  H   H468      1.0  0.07819  0.45449  0.81256  1.0000
  H   H469      1.0  0.09535  0.35416  0.63151  1.0000
  H   H470      1.0  0.07147  0.37803  0.62236  1.0000
  H   H471      1.0  0.04501  0.37129  0.61753  1.0000
  H   H472      1.0  0.04259  0.34107  0.62137  1.0000
  C   C588      1.0  0.16546  0.46455  0.60020  1.0000
  C   C589      1.0  0.19009  0.57948  0.95826  1.0000
  H   H473      1.0  0.19208  0.38159  0.77425  1.0000
  C   C590      1.0  0.09165  0.41560  0.73171  1.0000
  C   C591      1.0  0.23673  0.50338  0.73880  1.0000
  H   H474      1.0  0.12720  0.47790  0.58141  1.0000
  C   C592      1.0  0.00533  0.32863  0.62790  1.0000
  H   H475      1.0  0.11655  0.54308  0.85847  1.0000
  C   C593      1.0  0.02748  0.39439  0.80903  1.0000
  C   C594      1.0  0.17898  0.59887  0.61781  1.0000
  H   H476      1.0  0.99829  0.31799  0.85780  1.0000
  S   S82       1.0  0.02861  0.41157  0.67609  1.0000
  H   H477      1.0  0.09267  0.44860  0.83734  1.0000
  C   C595      1.0  0.11911  0.32164  0.73179  1.0000
  H   H478      1.0  0.21142  0.53341  0.66945  1.0000
  H   H479      1.0  0.18599  0.62238  0.94079  1.0000
  C   C596      1.0  0.08043  0.42046  0.74656  1.0000
  H   H480      1.0  0.19992  0.45704  0.82633  1.0000
  S   S83       1.0  0.02635  0.33007  0.71894  1.0000
  H   H481      1.0  0.22968  0.40760  0.64157  1.0000
  C   C597      1.0  0.16838  0.53160  0.86263  1.0000
  C   C598      1.0  0.14409  0.54738  0.61071  1.0000
  C   C599      1.0  0.18570  0.59527  0.94713  1.0000
  H   H482      1.0  0.04930  0.53242  0.85798  1.0000
  H   H483      1.0  0.11459  0.39808  0.72167  1.0000
  C   C600      1.0  0.23183  0.60850  0.78645  1.0000
  H   H484      1.0  0.21932  0.59202  0.66810  1.0000
  C   C601      1.0  0.14149  0.53346  0.79117  1.0000
  C   C602      1.0  0.05736  0.55030  0.83462  1.0000
  H   H485      1.0  0.16180  0.35605  0.75572  1.0000
  C   C603      1.0  0.05934  0.53461  0.84650  1.0000
  H   H486      1.0  0.15619  0.52979  0.76609  1.0000
  C   C604      1.0  0.10599  0.40191  0.73316  1.0000
  C   C605      1.0  0.13244  0.48575  0.83977  1.0000
  C   C606      1.0  0.09800  0.39801  0.76433  1.0000
  H   H487      1.0  0.16079  0.36866  0.80214  1.0000
  H   H488      1.0  0.12488  0.63235  0.84241  1.0000
  C   C607      1.0  0.12886  0.52814  0.80534  1.0000
  C   C608      1.0  0.10913  0.39309  0.74948  1.0000
  C   C609      1.0  0.23077  0.48014  0.80277  1.0000
  H   H489      1.0  0.24386  0.37890  0.76104  1.0000
  H   H490      1.0  0.17155  0.53642  0.87243  1.0000
  C   C610      1.0  0.17348  0.50889  0.84672  1.0000
  H   H491      1.0  0.24145  0.46999  0.84050  1.0000
  C   C611      1.0  0.12928  0.54091  0.91103  1.0000
  C   C612      1.0  0.22651  0.43373  0.83974  1.0000
  C   C613      1.0  0.18518  0.58210  0.59556  1.0000
  H   H492      1.0  0.07535  0.50935  0.85251  1.0000
  H   H493      1.0  0.21819  0.41907  0.82558  1.0000
  C   C614      1.0  0.14658  0.52532  0.77709  1.0000
  C   C615      1.0  0.07014  0.55296  0.81964  1.0000
  C   C616      1.0  0.07412  0.52160  0.84341  1.0000
  H   H494      1.0  0.06860  0.56499  0.81021  1.0000
  S   S84       1.0  0.22915  0.51065  0.86611  1.0000
  C   C617      1.0  0.17666  0.59210  0.85669  1.0000
  C   C618      1.0  0.11715  0.58583  0.84366  1.0000
  C   C619      1.0  0.15678  0.57687  0.85164  1.0000
  H   H495      1.0  0.23746  0.62918  0.64885  1.0000
  C   C620      1.0  0.11268  0.55642  0.85228  1.0000
  C   C621      1.0  0.19434  0.58949  0.62351  1.0000
  C   C622      1.0  0.13497  0.54254  0.89315  1.0000
  Fe  Fe42      1.0  0.23370  0.52032  0.61728  1.0000
  C   C623      1.0  0.20561  0.46768  0.81816  1.0000
  C   C624      1.0  0.17712  0.46548  0.62932  1.0000
  C   C625      1.0  0.08713  0.52433  0.82854  1.0000
  C   C626      1.0  0.08491  0.54001  0.81657  1.0000
  H   H496      1.0  0.15368  0.46935  0.85127  1.0000
  C   C627      1.0  0.14781  0.49911  0.54342  1.0000
  C   C628      1.0  0.21947  0.34834  0.76067  1.0000
  H   H497      1.0  0.03478  0.41864  0.80595  1.0000
  H   H498      1.0  0.19628  0.44280  0.62397  1.0000
  C   C629      1.0  0.16118  0.51894  0.83696  1.0000
  H   H499      1.0  0.18370  0.59443  0.86525  1.0000
  C   C630      1.0  0.24066  0.55919  0.72904  1.0000
  C   C631      1.0  0.08221  0.33408  0.63209  1.0000
  C   C632      1.0  0.20647  0.52131  0.95986  1.0000
  C   C633      1.0  0.15534  0.54133  0.85358  1.0000
  C   C634      1.0  0.19457  0.48311  0.81227  1.0000
  C   C635      1.0  0.12293  0.56841  0.85089  1.0000
  C   C636      1.0  0.08634  0.48395  0.63354  1.0000
  H   H500      1.0  0.14195  0.60995  0.67480  1.0000
  C   C637      1.0  0.22332  0.56804  0.73125  1.0000
  C   C638      1.0  0.11796  0.49945  0.84128  1.0000
  C   C639      1.0  0.12120  0.51451  0.80550  1.0000
  H   H501      1.0  0.15872  0.51422  0.82672  1.0000
  C   C640      1.0  0.16314  0.47801  0.62409  1.0000
  C   C641      1.0  0.15234  0.53525  0.84017  1.0000
  C   C642      1.0  0.12770  0.54359  0.61272  1.0000
  C   C643      1.0  0.16604  0.57985  0.86268  1.0000
  S   S85       1.0  0.21986  0.55399  0.92171  1.0000
  H   H502      1.0  0.09929  0.47334  0.65505  1.0000
  H   H503      1.0  0.21606  0.57028  0.72117  1.0000
  C   C644      1.0  0.13918  0.51154  0.77732  1.0000
  C   C645      1.0  0.14271  0.48014  0.85233  1.0000
  H   H504      1.0  0.09436  0.54225  0.80467  1.0000
  C   C646      1.0  0.21743  0.57932  0.66826  1.0000
  C   C647      1.0  0.13741  0.48809  0.55488  1.0000
  C   C648      1.0  0.16663  0.36730  0.75549  1.0000
  H   H505      1.0  0.12172  0.50858  0.87857  1.0000
  C   C649      1.0  0.10168  0.41840  0.82039  1.0000
  H   H506      1.0  0.23778  0.59433  0.94611  1.0000
  H   H507      1.0  0.08070  0.58269  0.83202  1.0000
  P   P18       1.0  0.14271  0.56140  0.85935  1.0000
  H   H508      1.0  0.20950  0.56351  0.59383  1.0000
  C   C650      1.0  0.12667  0.50608  0.79154  1.0000
  P   P19       1.0  0.10567  0.50716  0.82428  1.0000
  H   H509      1.0  0.13918  0.53095  0.88781  1.0000
  H   H510      1.0  0.09264  0.32395  0.63637  1.0000
  C   C651      1.0  0.17803  0.36662  0.76622  1.0000
  H   H511      1.0  0.10950  0.41870  0.82925  1.0000
  Fe  Fe43      1.0  0.08439  0.33028  0.80552  1.0000
  C   C652      1.0  0.07155  0.33520  0.71058  1.0000
  H   H512      1.0  0.14333  0.54310  0.83210  1.0000
  H   H513      1.0  0.11881  0.58344  0.91331  1.0000
  C   C653      1.0  0.23973  0.58860  0.81202  1.0000
  H   H514      1.0  0.12947  0.52819  0.91925  1.0000
  C   C654      1.0  0.13879  0.48835  0.86632  1.0000
  C   C655      1.0  0.05743  0.45245  0.78316  1.0000
  H   H515      1.0  0.12882  0.58646  0.88171  1.0000
  C   C656      1.0  0.20798  0.33751  0.77061  1.0000
  H   H516      1.0  0.21886  0.58555  0.93163  1.0000
  H   H517      1.0  0.22512  0.50655  0.78901  1.0000
  C   C657      1.0  0.15333  0.50755  0.56759  1.0000
  P   P20       1.0  0.20142  0.59514  0.64029  1.0000
  C   C658      1.0  0.18433  0.60791  0.65350  1.0000
  C   C659      1.0  0.23932  0.64212  0.85970  1.0000
  H   H518      1.0  0.02498  0.48358  0.76785  1.0000
  H   H519      1.0  0.10343  0.51864  0.85649  1.0000
  C   C660      1.0  0.15916  0.53511  0.60658  1.0000
  H   H520      1.0  0.01804  0.32941  0.61979  1.0000
  H   H521      1.0  0.08707  0.50630  0.79832  1.0000
  C   C661      1.0  0.11421  0.50778  0.85526  1.0000
  C   C662      1.0  0.23444  0.48967  0.68685  1.0000
  C   C663      1.0  0.12460  0.50220  0.86776  1.0000
  P   P21       1.0  0.06875  0.41711  0.78241  1.0000
  C   C664      1.0  0.08183  0.41706  0.79733  1.0000
  H   H522      1.0  0.10453  0.47110  0.84278  1.0000
  C   C665      1.0  0.18525  0.45237  0.62008  1.0000
  C   C666      1.0  0.09824  0.47405  0.83187  1.0000
  P   P22       1.0  0.13992  0.49487  0.60225  1.0000
  C   C667      1.0  0.24264  0.32342  0.75653  1.0000
  H   H523      1.0  0.23557  0.48428  0.76283  1.0000
  H   H524      1.0  0.18170  0.57929  0.58471  1.0000
  H   H525      1.0  0.11598  0.55309  0.61591  1.0000
  C   C668      1.0  0.19975  0.34300  0.80924  1.0000
  H   H526      1.0  0.08979  0.55218  0.84637  1.0000
  C   C669      1.0  0.23550  0.56091  0.92897  1.0000
  H   H527      1.0  0.12150  0.49516  0.79165  1.0000
  H   H528      1.0  0.04904  0.47975  0.78301  1.0000
  H   H529      1.0  0.01771  0.37900  0.73832  1.0000
  C   C670      1.0  0.13525  0.55894  0.88244  1.0000
  H   H530      1.0  0.22600  0.62126  0.78019  1.0000
  Fe  Fe44      1.0  0.00482  0.36381  0.66650  1.0000
  H   H531      1.0  0.22157  0.47910  0.67305  1.0000
  H   H532      1.0  0.02358  0.36908  0.80960  1.0000
  C   C671      1.0  0.10082  0.47898  0.64136  1.0000
  C   C672      1.0  0.12639  0.52759  0.61040  1.0000
  S   S86       1.0  0.20659  0.64241  0.90157  1.0000
  C   C673      1.0  0.05482  0.43825  0.77807  1.0000
  C   C674      1.0  0.09691  0.49037  0.82081  1.0000
  C   C675      1.0  0.08832  0.49376  0.80698  1.0000
  S   S87       1.0  0.23132  0.50601  0.90741  1.0000
  H   H533      1.0  0.18057  0.59570  0.93595  1.0000
  S   S88       1.0  0.01065  0.35332  0.64213  1.0000
  H   H534      1.0  0.14984  0.50003  0.52960  1.0000
  C   C676      1.0  0.22904  0.53393  0.97221  1.0000
  C   C677      1.0  0.24180  0.58211  0.94197  1.0000
  H   H535      1.0  0.23889  0.59848  0.76321  1.0000
  C   C678      1.0  0.22929  0.63929  0.65544  1.0000
  C   C679      1.0  0.05971  0.38500  0.78751  1.0000
  C   C680      1.0  0.03301  0.47089  0.77108  1.0000
  C   C681      1.0  0.12906  0.57368  0.88981  1.0000
  C   C682      1.0  0.11908  0.48997  0.61422  1.0000
  H   H536      1.0  0.11924  0.55433  0.93218  1.0000
  C   C683      1.0  0.12332  0.57201  0.90769  1.0000
  C   C684      1.0  0.04094  0.44055  0.76973  1.0000
  C   C685      1.0  0.22143  0.63301  0.92995  1.0000
  C   C686      1.0  0.10737  0.33352  0.72242  1.0000
  H   H537      1.0  0.23499  0.62631  0.95100  1.0000
  S   S89       1.0  0.23414  0.49494  0.63598  1.0000
  S   S90       1.0  0.05768  0.33246  0.82270  1.0000
  C   C687      1.0  0.17600  0.62814  0.67284  1.0000
  H   H538      1.0  0.24321  0.43503  0.76223  1.0000
  C   C688      1.0  0.17354  0.32184  0.77079  1.0000
  H   H539      1.0  0.15380  0.34004  0.80600  1.0000
  C   C689      1.0  0.08174  0.48081  0.80388  1.0000
  H   H540      1.0  0.07567  0.48339  0.79282  1.0000
  H   H541      1.0  0.18190  0.46628  0.64031  1.0000
  H   H542      1.0  0.23359  0.43767  0.62955  1.0000
  C   C690      1.0  0.24248  0.56363  0.75678  1.0000
  C   C691      1.0  0.14256  0.49686  0.57920  1.0000
  C   C692      1.0  0.23562  0.52074  0.96279  1.0000
  C   C693      1.0  0.19930  0.34615  0.82543  1.0000
  C   C694      1.0  0.23900  0.59546  0.77691  1.0000
  H   H543      1.0  0.01056  0.38455  0.61485  1.0000
  H   H544      1.0  0.05197  0.36093  0.79039  1.0000
  H   H545      1.0  0.03871  0.42991  0.76549  1.0000
  H   H546      1.0  0.08429  0.40425  0.83993  1.0000
  C   C695      1.0  0.04833  0.37350  0.79386  1.0000
  C   C696      1.0  0.09144  0.46122  0.82887  1.0000
  H   H547      1.0  0.01998  0.45858  0.75908  1.0000
  C   C697      1.0  0.15918  0.62472  0.67779  1.0000
  C   C698      1.0  0.13490  0.48685  0.57271  1.0000
  C   C699      1.0  0.15790  0.51904  0.60449  1.0000
  H   H548      1.0  0.22225  0.64416  0.59815  1.0000
  C   C700      1.0  0.19981  0.53435  0.96945  1.0000
  C   C701      1.0  0.21791  0.60738  0.62853  1.0000
  C   C702      1.0  0.12353  0.55563  0.91831  1.0000
  H   H549      1.0  0.17381  0.64071  0.57410  1.0000
  C   C703      1.0  0.18878  0.61032  0.94988  1.0000
  H   H550      1.0  0.01506  0.39793  0.81747  1.0000
  Fe  Fe45      1.0  0.22455  0.53516  0.90360  1.0000
  Fe  Fe46      1.0  0.01240  0.39049  0.68325  1.0000
  C   C704      1.0  0.03870  0.40607  0.80248  1.0000
  H   H551      1.0  0.12790  0.47878  0.63835  1.0000
  H   H552      1.0  0.22657  0.62065  0.92615  1.0000
  P   P23       1.0  0.18579  0.34659  0.78011  1.0000
  C   C705      1.0  0.18485  0.35700  0.83333  1.0000
  C   C706      1.0  0.18580  0.35096  0.80072  1.0000
  H   H553      1.0  0.18450  0.35952  0.84583  1.0000
  H   H554      1.0  0.16976  0.50978  0.60109  1.0000
  H   H555      1.0  0.07676  0.49640  0.61021  1.0000
  C   C707      1.0  0.22620  0.63622  0.94402  1.0000
  H   H556      1.0  0.20785  0.60165  0.88874  1.0000
  C   C708      1.0  0.17095  0.36492  0.82494  1.0000
  H   H557      1.0  0.16423  0.51706  0.54098  1.0000
  H   H558      1.0  0.16012  0.51478  0.57216  1.0000
  H   H559      1.0  0.11356  0.52502  0.61186  1.0000
  H   H560      1.0  0.14514  0.55986  0.61215  1.0000
  C   C709      1.0  0.08809  0.49218  0.61615  1.0000
  H   H561      1.0  0.22975  0.60723  0.90181  1.0000
  C   C710      1.0  0.06758  0.33295  0.68289  1.0000
  S   S91       1.0  0.24064  0.50878  0.59369  1.0000
  H   H562      1.0  0.21020  0.34029  0.83183  1.0000
  H   H563      1.0  0.22620  0.61502  0.81154  1.0000
  C   C711      1.0  0.14452  0.32173  0.79801  1.0000
  C   C712      1.0  0.23155  0.63989  0.67167  1.0000
  H   H564      1.0  0.19784  0.51676  0.95460  1.0000
  C   C713      1.0  0.18848  0.61991  0.66064  1.0000
  C   C714      1.0  0.23092  0.57698  0.93399  1.0000
  C   C715      1.0  0.06727  0.33023  0.62932  1.0000
  S   S92       1.0  0.24280  0.61354  0.71731  1.0000
  H   H565      1.0  0.23612  0.56842  0.97772  1.0000
  H   H566      1.0  0.23976  0.58585  0.82569  1.0000
  H   H567      1.0  0.04668  0.31653  0.77313  1.0000
  C   C716      1.0  0.16565  0.64639  0.81089  1.0000
  C   C717      1.0  0.24299  0.49300  0.75342  1.0000
  Fe  Fe47      1.0  0.04927  0.32692  0.80086  1.0000
  P   P24       1.0  0.23816  0.44604  0.82059  1.0000
  H   H568      1.0  0.23817  0.53870  0.97645  1.0000
  C   C718      1.0  0.03754  0.32218  0.74935  1.0000
  S   S93       1.0  0.18487  0.64560  0.53089  1.0000
  S   S94       1.0  0.24371  0.53902  0.87862  1.0000
  C   C719      1.0  0.24138  0.44019  0.78739  1.0000
  H   H569      1.0  0.18440  0.32211  0.75988  1.0000
  H   H570      1.0  0.07741  0.31868  0.59604  1.0000
  H   H571      1.0  0.23706  0.51650  0.82156  1.0000
  C   C720      1.0  0.15628  0.78056  0.21437  1.0000
  Fe  Fe48      1.0  0.00238  0.74675  0.13489  1.0000
  C   C721      1.0  0.23379  0.77252  0.99896  1.0000
  S   S95       1.0  0.01920  0.72271  0.14645  1.0000
  Fe  Fe49      1.0  0.00505  0.77811  0.10613  1.0000
  S   S96       1.0  0.02621  0.79082  0.08709  1.0000
  S   S97       1.0  0.00823  0.77234  0.13367  1.0000
  C   C722      1.0  0.18160  0.73369  0.47036  1.0000
  C   C723      1.0  0.10721  0.77289  0.38917  1.0000
  Fe  Fe50      1.0  0.09518  0.76251  0.00844  1.0000
  S   S98       1.0  0.10883  0.78142  0.01257  1.0000
  S   S99       1.0  0.06782  0.75870  0.02155  1.0000
  H   H572      1.0  0.03749  0.64969  0.31671  1.0000
  H   H573      1.0  0.09251  0.82863  0.98267  1.0000
  Fe  Fe51      1.0  0.13136  0.75901  0.01479  1.0000
  S   S100      1.0  0.14823  0.75685  0.03348  1.0000
  C   C724      1.0  0.20093  0.77563  0.18950  1.0000
  C   C725      1.0  0.05275  0.66724  0.16429  1.0000
  S   S101      1.0  0.11682  0.73969  0.01340  1.0000
  C   C726      1.0  0.00708  0.65303  0.28579  1.0000
  H   H574      1.0  0.12580  0.75090  0.20595  1.0000
  S   S102      1.0  0.09075  0.73597  0.44282  1.0000
  C   C727      1.0  0.14827  0.69215  0.43555  1.0000
  H   H575      1.0  0.04892  0.71849  0.44039  1.0000
  H   H576      1.0  0.09143  0.67179  0.10875  1.0000
  H   H577      1.0  0.14773  0.77868  0.17633  1.0000
  H   H578      1.0  0.10154  0.76462  0.40073  1.0000
  P   P25       1.0  0.07067  0.70546  0.11426  1.0000
  H   H579      1.0  0.06263  0.79020  0.98935  1.0000
  C   C728      1.0  0.04114  0.72430  0.43060  1.0000
  C   C729      1.0  0.12281  0.70397  0.09426  1.0000
  Fe  Fe52      1.0  0.17812  0.82772  0.41093  1.0000
  S   S103      1.0  0.16124  0.85323  0.40268  1.0000
  S   S104      1.0  0.17110  0.81045  0.43683  1.0000
  Fe  Fe53      1.0  0.20530  0.83297  0.37837  1.0000
  S   S105      1.0  0.19058  0.85926  0.36761  1.0000
  H   H580      1.0  0.00308  0.68049  0.28338  1.0000
  Fe  Fe54      1.0  0.18597  0.86350  0.39494  1.0000
  S   S106      1.0  0.18553  0.88735  0.40493  1.0000
  Fe  Fe55      1.0  0.16718  0.84643  0.37643  1.0000
  S   S107      1.0  0.14338  0.84998  0.36451  1.0000
  S   S108      1.0  0.20245  0.83827  0.40473  1.0000
  S   S109      1.0  0.18237  0.81998  0.38548  1.0000
  C   C730      1.0  0.21012  0.69910  0.99504  1.0000
  C   C731      1.0  0.20190  0.68670  0.44388  1.0000
  Fe  Fe56      1.0  0.09870  0.70145  0.22739  1.0000
  S   S110      1.0  0.11924  0.70284  0.24086  1.0000
  S   S111      1.0  0.09301  0.71598  0.20155  1.0000
  C   C732      1.0  0.02041  0.84835  0.26547  1.0000
  Fe  Fe57      1.0  0.08635  0.81663  0.27189  1.0000
  S   S112      1.0  0.11566  0.81341  0.26576  1.0000
  S   S113      1.0  0.07287  0.83163  0.24959  1.0000
  Fe  Fe58      1.0  0.08700  0.79094  0.30563  1.0000
  S   S114      1.0  0.11610  0.78542  0.30184  1.0000
  S   S115      1.0  0.07336  0.77503  0.32951  1.0000
  Fe  Fe59      1.0  0.11377  0.81411  0.29365  1.0000
  S   S116      1.0  0.13503  0.82460  0.29946  1.0000
  Fe  Fe60      1.0  0.11605  0.78513  0.27454  1.0000
  S   S117      1.0  0.13651  0.76561  0.26117  1.0000
  S   S118      1.0  0.08418  0.81993  0.29916  1.0000
  S   S119      1.0  0.08721  0.78801  0.27903  1.0000
  C   C733      1.0  0.15256  0.77426  0.18825  1.0000
  H   H581      1.0  0.16670  0.75877  0.23251  1.0000
  C   C734      1.0  0.03597  0.71381  0.42227  1.0000
  S   S120      1.0  0.19426  0.70113  0.10350  1.0000
  H   H582      1.0  0.08396  0.71407  0.14066  1.0000
  C   C735      1.0  0.00089  0.78230  0.27845  1.0000
  H   H583      1.0  0.04433  0.84742  0.04023  1.0000
  C   C736      1.0  0.05980  0.71003  0.06659  1.0000
  H   H584      1.0  0.18459  0.69427  0.36245  1.0000
  C   C737      1.0  0.15683  0.68146  0.14340  1.0000
  H   H585      1.0  0.22550  0.86388  0.02102  1.0000
  S   S121      1.0  0.10445  0.76720  0.97942  1.0000
  S   S122      1.0  0.11822  0.77083  0.42710  1.0000
  C   C738      1.0  0.15105  0.78614  0.19849  1.0000
  C   C739      1.0  0.06254  0.75581  0.13387  1.0000
  C   C740      1.0  0.03605  0.74757  0.33618  1.0000
  Fe  Fe61      1.0  0.09944  0.75767  0.44832  1.0000
  C   C741      1.0  0.12337  0.72150  0.24485  1.0000
  C   C742      1.0  0.13948  0.72005  0.24903  1.0000
  C   C743      1.0  0.14332  0.73386  0.25354  1.0000
  C   C744      1.0  0.13099  0.74926  0.25427  1.0000
  C   C745      1.0  0.11494  0.75105  0.24962  1.0000
  C   C746      1.0  0.11114  0.73714  0.24481  1.0000
  H   H586      1.0  0.14900  0.70806  0.24901  1.0000
  H   H587      1.0  0.15576  0.73242  0.25698  1.0000
  H   H588      1.0  0.10549  0.76305  0.24991  1.0000
  H   H589      1.0  0.09866  0.73832  0.24159  1.0000
  C   C747      1.0  0.14137  0.84181  0.34696  1.0000
  C   C748      1.0  0.12462  0.84195  0.34471  1.0000
  C   C749      1.0  0.12238  0.83630  0.33056  1.0000
  C   C750      1.0  0.13690  0.83081  0.31822  1.0000
  C   C751      1.0  0.15362  0.83084  0.32039  1.0000
  C   C752      1.0  0.15588  0.83599  0.33481  1.0000
  H   H590      1.0  0.11328  0.84660  0.35392  1.0000
  H   H591      1.0  0.10942  0.83659  0.32898  1.0000
  H   H592      1.0  0.16489  0.82694  0.31078  1.0000
  H   H593      1.0  0.16878  0.83603  0.33624  1.0000
  C   C753      1.0  0.20113  0.88886  0.41619  1.0000
  C   C754      1.0  0.21748  0.87767  0.41549  1.0000
  C   C755      1.0  0.23001  0.88027  0.42337  1.0000
  C   C756      1.0  0.22613  0.89364  0.43260  1.0000
  C   C757      1.0  0.20956  0.90441  0.43384  1.0000
  C   C758      1.0  0.19729  0.90222  0.42541  1.0000
  H   H594      1.0  0.22069  0.86744  0.40833  1.0000
  H   H595      1.0  0.02177  0.78415  0.25621  1.0000
  H   H596      1.0  0.20651  0.91496  0.44059  1.0000
  H   H597      1.0  0.18490  0.91120  0.42571  1.0000
  H   H598      1.0  0.19955  0.82591  0.09479  1.0000
  Fe  Fe62      1.0  0.00083  0.72922  0.34132  1.0000
  H   H599      1.0  0.03856  0.68776  0.26226  1.0000
  Fe  Fe63      1.0  0.11986  0.78458  0.98411  1.0000
  C   C759      1.0  0.22404  0.79454  0.39405  1.0000
  C   C760      1.0  0.22668  0.77801  0.40430  1.0000
  H   H600      1.0  0.24126  0.79634  0.32724  1.0000
  H   H601      1.0  0.12613  0.68053  0.44879  1.0000
  H   H602      1.0  0.21365  0.80437  0.39887  1.0000
  H   H603      1.0  0.21806  0.77524  0.41664  1.0000
  C   C761      1.0  0.02934  0.75430  0.32109  1.0000
  C   C762      1.0  0.04967  0.75390  0.33865  1.0000
  C   C763      1.0  0.05635  0.76720  0.32623  1.0000
  C   C764      1.0  0.04937  0.77411  0.31134  1.0000
  C   C765      1.0  0.03626  0.76732  0.30859  1.0000
  H   H604      1.0  0.05491  0.74860  0.35027  1.0000
  H   H605      1.0  0.05413  0.78462  0.30188  1.0000
  H   H606      1.0  0.03140  0.77219  0.29680  1.0000
  H   H607      1.0  0.03355  0.71768  0.11171  1.0000
  C   C766      1.0  0.13579  0.74500  0.18033  1.0000
  C   C767      1.0  0.04735  0.68533  0.13689  1.0000
  H   H608      1.0  0.14090  0.73934  0.15475  1.0000
  C   C768      1.0  0.08447  0.71228  0.41208  1.0000
  C   C769      1.0  0.05214  0.86285  0.01483  1.0000
  C   C770      1.0  0.18000  0.75795  0.15321  1.0000
  C   C771      1.0  0.10927  0.66336  0.27254  1.0000
  C   C772      1.0  0.13901  0.71621  0.33803  1.0000
  H   H609      1.0  0.08937  0.85787  0.46370  1.0000
  C   C773      1.0  0.15455  0.80065  0.43579  1.0000
  C   C774      1.0  0.14592  0.80686  0.42196  1.0000
  C   C775      1.0  0.13396  0.79812  0.42004  1.0000
  C   C776      1.0  0.13040  0.78322  0.43202  1.0000
  C   C777      1.0  0.13843  0.77736  0.44634  1.0000
  C   C778      1.0  0.15063  0.78605  0.44815  1.0000
  H   H610      1.0  0.14878  0.81817  0.41241  1.0000
  H   H611      1.0  0.12786  0.80263  0.40889  1.0000
  H   H612      1.0  0.15753  0.78111  0.45869  1.0000
  H   H613      1.0  0.03511  0.71923  0.05853  1.0000
  C   C779      1.0  0.05441  0.75578  0.12074  1.0000
  C   C780      1.0  0.15715  0.73592  0.04299  1.0000
  C   C781      1.0  0.15394  0.72155  0.03894  1.0000
  C   C782      1.0  0.16013  0.70497  0.04786  1.0000
  C   C783      1.0  0.17002  0.70274  0.06030  1.0000
  C   C784      1.0  0.17369  0.71711  0.06392  1.0000
  C   C785      1.0  0.16707  0.73371  0.05539  1.0000
  H   H614      1.0  0.14657  0.72318  0.02911  1.0000
  C   C786      1.0  0.10212  0.86352  0.99761  1.0000
  H   H615      1.0  0.18148  0.71548  0.07334  1.0000
  H   H616      1.0  0.16950  0.74489  0.05845  1.0000
  C   C787      1.0  0.16566  0.71957  0.19340  1.0000
  C   C788      1.0  0.06938  0.67097  0.16053  1.0000
  C   C789      1.0  0.11125  0.80162  0.37392  1.0000
  H   H617      1.0  0.04616  0.76751  0.11519  1.0000
  C   C790      1.0  0.21022  0.82993  0.11471  1.0000
  C   C791      1.0  0.05915  0.70875  0.09688  1.0000
  H   H618      1.0  0.07900  0.74058  0.15160  1.0000
  H   H619      1.0  0.15451  0.78962  0.22266  1.0000
  C   C792      1.0  0.04177  0.71608  0.06925  1.0000
  H   H620      1.0  0.10033  0.72323  0.10140  1.0000
  C   C793      1.0  0.04466  0.84747  0.23450  1.0000
  C   C794      1.0  0.05035  0.84048  0.25020  1.0000
  C   C795      1.0  0.03813  0.84089  0.26572  1.0000
  H   H621      1.0  0.08787  0.68472  0.14255  1.0000
  H   H622      1.0  0.05404  0.84737  0.22245  1.0000
  H   H623      1.0  0.04238  0.83569  0.27788  1.0000
  C   C796      1.0  0.13111  0.74365  0.16536  1.0000
  C   C797      1.0  0.02551  0.72701  0.16363  1.0000
  C   C798      1.0  0.01447  0.73869  0.17360  1.0000
  C   C799      1.0  0.01979  0.74174  0.18748  1.0000
  C   C800      1.0  0.03640  0.73367  0.19086  1.0000
  C   C801      1.0  0.04768  0.72287  0.18018  1.0000
  C   C802      1.0  0.04198  0.71896  0.16711  1.0000
  H   H624      1.0  0.00167  0.74499  0.17092  1.0000
  H   H625      1.0  0.01107  0.75032  0.19556  1.0000
  H   H626      1.0  0.06093  0.71763  0.18182  1.0000
  H   H627      1.0  0.05052  0.71003  0.15940  1.0000
  C   C803      1.0  0.03755  0.78200  0.06875  1.0000
  C   C804      1.0  0.03194  0.76924  0.06419  1.0000
  C   C805      1.0  0.04123  0.76240  0.04956  1.0000
  C   C806      1.0  0.05638  0.76801  0.03955  1.0000
  C   C807      1.0  0.06203  0.78078  0.04410  1.0000
  C   C808      1.0  0.05255  0.78786  0.05858  1.0000
  H   H628      1.0  0.02029  0.76481  0.07177  1.0000
  H   H629      1.0  0.03670  0.75266  0.04600  1.0000
  H   H630      1.0  0.07362  0.78521  0.03642  1.0000
  H   H631      1.0  0.05690  0.79780  0.06198  1.0000
  C   C809      1.0  0.20797  0.82403  0.05014  1.0000
  H   H632      1.0  0.03221  0.80649  0.26438  1.0000
  C   C810      1.0  0.08871  0.81926  0.46673  1.0000
  H   H633      1.0  0.17878  0.73576  0.00956  1.0000
  H   H634      1.0  0.06709  0.70856  0.05375  1.0000
  C   C811      1.0  0.12261  0.75021  0.19404  1.0000
  C   C812      1.0  0.06667  0.80186  0.11058  1.0000
  C   C813      1.0  0.06869  0.80080  0.12734  1.0000
  C   C814      1.0  0.08361  0.79039  0.13298  1.0000
  C   C815      1.0  0.09636  0.78080  0.12199  1.0000
  C   C816      1.0  0.09420  0.78140  0.10527  1.0000
  C   C817      1.0  0.07952  0.79250  0.09949  1.0000
  P   P26       1.0  0.11104  0.76966  0.09068  1.0000
  C   C818      1.0  0.12308  0.78515  0.07585  1.0000
  C   C819      1.0  0.12575  0.75316  0.10243  1.0000
  C   C820      1.0  0.14393  0.75142  0.09707  1.0000
  C   C821      1.0  0.15506  0.73819  0.10606  1.0000
  C   C822      1.0  0.14817  0.72647  0.12023  1.0000
  C   C823      1.0  0.13012  0.72786  0.12535  1.0000
  C   C824      1.0  0.11897  0.74111  0.11643  1.0000
  C   C825      1.0  0.12600  0.78653  0.05791  1.0000
  C   C826      1.0  0.13538  0.79853  0.04664  1.0000
  C   C827      1.0  0.14203  0.80923  0.05312  1.0000
  C   C828      1.0  0.13920  0.80796  0.07097  1.0000
  C   C829      1.0  0.12975  0.79598  0.08231  1.0000
  C   C830      1.0  0.10289  0.75779  0.07949  1.0000
  C   C831      1.0  0.08500  0.75847  0.08133  1.0000
  C   C832      1.0  0.07936  0.74911  0.07238  1.0000
  C   C833      1.0  0.09143  0.73918  0.06137  1.0000
  C   C834      1.0  0.10923  0.73784  0.06003  1.0000
  C   C835      1.0  0.11493  0.74695  0.06917  1.0000
  H   H635      1.0  0.05508  0.80992  0.10617  1.0000
  H   H636      1.0  0.05866  0.80805  0.13592  1.0000
  H   H637      1.0  0.08524  0.78977  0.14591  1.0000
  H   H638      1.0  0.10793  0.77310  0.12654  1.0000
  H   H639      1.0  0.07782  0.79389  0.08645  1.0000
  H   H640      1.0  0.14957  0.75996  0.08576  1.0000
  H   H641      1.0  0.16906  0.73682  0.10187  1.0000
  H   H642      1.0  0.15685  0.71615  0.12707  1.0000
  H   H643      1.0  0.12477  0.71856  0.13615  1.0000
  H   H644      1.0  0.10505  0.74191  0.12029  1.0000
  H   H645      1.0  0.12085  0.77862  0.05244  1.0000
  S   S123      1.0  0.20009  0.65879  0.10916  1.0000
  P   P27       1.0  0.12547  0.74284  0.37730  1.0000
  H   H646      1.0  0.14430  0.81634  0.07597  1.0000
  H   H647      1.0  0.12766  0.79515  0.09610  1.0000
  H   H648      1.0  0.07524  0.76610  0.08955  1.0000
  H   H649      1.0  0.06554  0.74989  0.07363  1.0000
  H   H650      1.0  0.08696  0.73269  0.05377  1.0000
  H   H651      1.0  0.11863  0.72993  0.05172  1.0000
  H   H652      1.0  0.12878  0.74576  0.06800  1.0000
  S   S124      1.0  0.19896  0.87505  0.99484  1.0000
  H   H653      1.0  0.07484  0.70491  0.41998  1.0000
  H   H654      1.0  0.02143  0.67804  0.30454  1.0000
  H   H655      1.0  0.12978  0.72295  0.31418  1.0000
  S   S125      1.0  0.22408  0.68092  0.07582  1.0000
  C   C836      1.0  0.19242  0.75132  0.98749  1.0000
  H   H656      1.0  0.23496  0.76256  0.44497  1.0000
  C   C837      1.0  0.12815  0.69157  0.03430  1.0000
  H   H657      1.0  0.18184  0.67314  0.21813  1.0000
  S   S126      1.0  0.04189  0.75605  0.43694  1.0000
  H   H658      1.0  0.01840  0.72339  0.08760  1.0000
  H   H659      1.0  0.15978  0.73509  0.42166  1.0000
  Fe  Fe64      1.0  0.19587  0.68172  0.08776  1.0000
  C   C838      1.0  0.15376  0.83283  0.20112  1.0000
  H   H660      1.0  0.08450  0.81246  0.02761  1.0000
  C   C839      1.0  0.13351  0.70354  0.47382  1.0000
  C   C840      1.0  0.08498  0.82130  0.03528  1.0000
  C   C841      1.0  0.09185  0.73695  0.39022  1.0000
  C   C842      1.0  0.18474  0.67918  0.00107  1.0000
  H   H661      1.0  0.19305  0.71910  0.18217  1.0000
  C   C843      1.0  0.11001  0.86619  0.44341  1.0000
  C   C844      1.0  0.02512  0.71578  0.28973  1.0000
  C   C845      1.0  0.13710  0.83094  0.00249  1.0000
  C   C846      1.0  0.20787  0.69884  0.44906  1.0000
  C   C847      1.0  0.03127  0.88935  0.00727  1.0000
  H   H662      1.0  0.20580  0.78272  0.44884  1.0000
  H   H663      1.0  0.19237  0.67987  0.45293  1.0000
  C   C848      1.0  0.05217  0.80847  0.00617  1.0000
  H   H664      1.0  0.21402  0.84151  0.45127  1.0000
  C   C849      1.0  0.15246  0.67031  0.02286  1.0000
  H   H665      1.0  0.03994  0.69992  0.42567  1.0000
  H   H666      1.0  0.13592  0.76568  0.45545  1.0000
  C   C850      1.0  0.12640  0.77687  0.36107  1.0000
  C   C851      1.0  0.13794  0.68603  0.17636  1.0000
  H   H667      1.0  0.12786  0.71130  0.40462  1.0000
  C   C852      1.0  0.10013  0.68083  0.10487  1.0000
  C   C853      1.0  0.12913  0.68669  0.09294  1.0000
  S   S127      1.0  0.17740  0.68195  0.07140  1.0000
  C   C854      1.0  0.11780  0.67515  0.09815  1.0000
  Fe  Fe65      1.0  0.07411  0.67712  0.23213  1.0000
  H   H668      1.0  0.19209  0.71975  0.12941  1.0000
  C   C855      1.0  0.17669  0.72976  0.15167  1.0000
  C   C856      1.0  0.17654  0.73000  0.39756  1.0000
  C   C857      1.0  0.06390  0.68951  0.13315  1.0000
  C   C858      1.0  0.19570  0.74522  0.12843  1.0000
  H   H669      1.0  0.08248  0.70201  0.07773  1.0000
  C   C859      1.0  0.03237  0.71844  0.08563  1.0000
  H   H670      1.0  0.13167  0.71290  0.08998  1.0000
  C   C860      1.0  0.04100  0.71492  0.09935  1.0000
  C   C861      1.0  0.02520  0.70800  0.27632  1.0000
  C   C862      1.0  0.20310  0.77250  0.04020  1.0000
  H   H671      1.0  0.21926  0.83130  0.13666  1.0000
  C   C863      1.0  0.19179  0.82405  0.02362  1.0000
  C   C864      1.0  0.18850  0.83887  0.03051  1.0000
  H   H672      1.0  0.99856  0.68370  0.17920  1.0000
  C   C865      1.0  0.18605  0.84968  0.45643  1.0000
  S   S128      1.0  0.07230  0.77226  0.45628  1.0000
  C   C866      1.0  0.19125  0.77631  0.05529  1.0000
  C   C867      1.0  0.18928  0.76343  0.07019  1.0000
  H   H673      1.0  0.05767  0.76231  0.17037  1.0000
  C   C868      1.0  0.00697  0.69581  0.19525  1.0000
  H   H674      1.0  0.18263  0.67898  0.02811  1.0000
  C   C869      1.0  0.19262  0.79192  0.00738  1.0000
  C   C870      1.0  0.17614  0.78761  0.01391  1.0000
  C   C871      1.0  0.16515  0.78898  0.00266  1.0000
  C   C872      1.0  0.16440  0.91059  0.47569  1.0000
  C   C873      1.0  0.21987  0.70800  0.43744  1.0000
  C   C874      1.0  0.19771  0.79796  0.98952  1.0000
  H   H675      1.0  0.13379  0.65438  0.06433  1.0000
  C   C875      1.0  0.07500  0.68189  0.14500  1.0000
  H   H676      1.0  0.24285  0.87202  0.42213  1.0000
  H   H677      1.0  0.18526  0.82435  0.01347  1.0000
  H   H678      1.0  0.17975  0.85043  0.02547  1.0000
  C   C876      1.0  0.14946  0.65861  0.03866  1.0000
  C   C877      1.0  0.12981  0.82141  0.99502  1.0000
  H   H679      1.0  0.12087  0.81345  0.00310  1.0000
  H   H680      1.0  0.18374  0.78927  0.05565  1.0000
  H   H681      1.0  0.18056  0.76654  0.08192  1.0000
  H   H682      1.0  0.14162  0.82930  0.46729  1.0000
  C   C878      1.0  0.17737  0.68611  0.21134  1.0000
  C   C879      1.0  0.18356  0.71211  0.19104  1.0000
  H   H683      1.0  0.17177  0.78307  0.02760  1.0000
  H   H684      1.0  0.15237  0.78584  0.00761  1.0000
  C   C880      1.0  0.17738  0.72995  0.98572  1.0000
  H   H685      1.0  0.13186  0.68262  0.13777  1.0000
  H   H686      1.0  0.19763  0.76994  0.13155  1.0000
  C   C881      1.0  0.15082  0.70022  0.47567  1.0000
  H   H687      1.0  0.08775  0.74856  0.38106  1.0000
  H   H688      1.0  0.10569  0.69505  0.42294  1.0000
  C   C882      1.0  0.03608  0.74229  0.42644  1.0000
  C   C883      1.0  0.07307  0.74071  0.14107  1.0000
  C   C884      1.0  0.12794  0.86341  0.43680  1.0000
  C   C885      1.0  0.05264  0.68894  0.28096  1.0000
  C   C886      1.0  0.05317  0.69742  0.29377  1.0000
  C   C887      1.0  0.03878  0.71020  0.29874  1.0000
  P   P28       1.0  0.07200  0.69225  0.30374  1.0000
  C   C888      1.0  0.06443  0.68682  0.32682  1.0000
  C   C889      1.0  0.08766  0.67429  0.29605  1.0000
  H   H689      1.0  0.18330  0.94988  0.47577  1.0000
  C   C890      1.0  0.04180  0.67431  0.15241  1.0000
  H   H690      1.0  0.17764  0.68765  0.39424  1.0000
  S   S129      1.0  0.20471  0.84033  0.97888  1.0000
  C   C891      1.0  0.09600  0.67643  0.27856  1.0000
  C   C892      1.0  0.06910  0.69459  0.33804  1.0000
  C   C893      1.0  0.06322  0.69008  0.35591  1.0000
  C   C894      1.0  0.05280  0.67769  0.36270  1.0000
  C   C895      1.0  0.04807  0.66994  0.35161  1.0000
  C   C896      1.0  0.05372  0.67461  0.33373  1.0000
  C   C897      1.0  0.08305  0.71029  0.29822  1.0000
  C   C898      1.0  0.07361  0.72733  0.29797  1.0000
  C   C899      1.0  0.08237  0.74096  0.29419  1.0000
  C   C900      1.0  0.10054  0.73782  0.29076  1.0000
  C   C901      1.0  0.11005  0.72100  0.29085  1.0000
  C   C902      1.0  0.10141  0.70728  0.29479  1.0000
  H   H691      1.0  0.01523  0.65881  0.22402  1.0000
  H   H692      1.0  0.06048  0.76755  0.13852  1.0000
  C   C903      1.0  0.21210  0.75541  0.03997  1.0000
  H   H693      1.0  0.06288  0.67829  0.27741  1.0000
  H   H694      1.0  0.03810  0.71600  0.30950  1.0000
  H   H695      1.0  0.01171  0.70976  0.21215  1.0000
  C   C904      1.0  0.01874  0.81155  0.32822  1.0000
  S   S130      1.0  0.10264  0.67545  0.22085  1.0000
  H   H696      1.0  0.02756  0.90110  0.99813  1.0000
  H   H697      1.0  0.09250  0.68843  0.26962  1.0000
  H   H698      1.0  0.07703  0.70432  0.33309  1.0000
  H   H699      1.0  0.06636  0.69648  0.36452  1.0000
  H   H700      1.0  0.04780  0.67465  0.37652  1.0000
  C   C905      1.0  0.19536  0.74228  0.46284  1.0000
  H   H701      1.0  0.04962  0.66885  0.32527  1.0000
  H   H702      1.0  0.05956  0.73034  0.30086  1.0000
  H   H703      1.0  0.07506  0.75403  0.29391  1.0000
  H   H704      1.0  0.10722  0.74847  0.28781  1.0000
  H   H705      1.0  0.12417  0.71863  0.28764  1.0000
  H   H706      1.0  0.10922  0.69438  0.29509  1.0000
  C   C906      1.0  0.10350  0.79072  0.38834  1.0000
  H   H707      1.0  0.09499  0.79600  0.39917  1.0000
  H   H708      1.0  0.10862  0.81541  0.37342  1.0000
  C   C907      1.0  0.16124  0.77660  0.38784  1.0000
  C   C908      1.0  0.17186  0.77286  0.39992  1.0000
  C   C909      1.0  0.18997  0.76991  0.39451  1.0000
  C   C910      1.0  0.19755  0.77076  0.37699  1.0000
  C   C911      1.0  0.18698  0.77386  0.36480  1.0000
  C   C912      1.0  0.16875  0.77719  0.37036  1.0000
  P   P29       1.0  0.19654  0.77475  0.34210  1.0000
  C   C913      1.0  0.20032  0.79624  0.33202  1.0000
  C   C914      1.0  0.21686  0.75929  0.33853  1.0000
  C   C915      1.0  0.02494  0.87033  0.03502  1.0000
  H   H709      1.0  0.02879  0.67166  0.15539  1.0000
  C   C916      1.0  0.20363  0.67318  0.39686  1.0000
  S   S131      1.0  0.99981  0.66494  0.35357  1.0000
  C   C917      1.0  0.22067  0.74437  0.35109  1.0000
  C   C918      1.0  0.20026  0.80265  0.31434  1.0000
  C   C919      1.0  0.20266  0.81946  0.30666  1.0000
  C   C920      1.0  0.20532  0.82994  0.31649  1.0000
  C   C921      1.0  0.20570  0.82356  0.33397  1.0000
  C   C922      1.0  0.20327  0.80678  0.34173  1.0000
  C   C923      1.0  0.18154  0.76954  0.33201  1.0000
  C   C924      1.0  0.16786  0.78244  0.32637  1.0000
  C   C925      1.0  0.15653  0.77864  0.31814  1.0000
  C   C926      1.0  0.15845  0.76185  0.31583  1.0000
  C   C927      1.0  0.17178  0.74881  0.32176  1.0000
  C   C928      1.0  0.18333  0.75262  0.32980  1.0000
  H   H710      1.0  0.14715  0.77907  0.39205  1.0000
  H   H711      1.0  0.16603  0.77239  0.41347  1.0000
  H   H712      1.0  0.19807  0.76713  0.40395  1.0000
  H   H713      1.0  0.21162  0.76906  0.37302  1.0000
  H   H714      1.0  0.16023  0.78042  0.36128  1.0000
  C   C929      1.0  0.24277  0.74989  0.08970  1.0000
  C   C930      1.0  0.21774  0.78765  0.44467  1.0000
  S   S132      1.0  0.14326  0.76340  0.98671  1.0000
  C   C931      1.0  0.01987  0.66657  0.30125  1.0000
  H   H715      1.0  0.21188  0.74212  0.36342  1.0000
  H   H716      1.0  0.19799  0.79483  0.30654  1.0000
  H   H717      1.0  0.20199  0.82454  0.29319  1.0000
  H   H718      1.0  0.20674  0.84311  0.31069  1.0000
  H   H719      1.0  0.20753  0.83177  0.34165  1.0000
  H   H720      1.0  0.20357  0.80222  0.35532  1.0000
  H   H721      1.0  0.16588  0.79547  0.32834  1.0000
  H   H722      1.0  0.14617  0.78879  0.31364  1.0000
  H   H723      1.0  0.14961  0.75900  0.30940  1.0000
  H   H724      1.0  0.17319  0.73580  0.31998  1.0000
  H   H725      1.0  0.19360  0.74237  0.33424  1.0000
  H   H726      1.0  0.05091  0.80498  0.47438  1.0000
  C   C932      1.0  0.20982  0.74252  0.05478  1.0000
  S   S133      1.0  0.00111  0.75171  0.10699  1.0000
  C   C933      1.0  0.00155  0.79226  0.22712  1.0000
  C   C934      1.0  0.01127  0.80516  0.22392  1.0000
  C   C935      1.0  0.00516  0.81853  0.23320  1.0000
  P   P30       1.0  0.03266  0.80286  0.21020  1.0000
  C   C936      1.0  0.03876  0.82334  0.19988  1.0000
  C   C937      1.0  0.04688  0.78953  0.22437  1.0000
  C   C938      1.0  0.05510  0.79715  0.23283  1.0000
  C   C939      1.0  0.06514  0.78688  0.24471  1.0000
  C   C940      1.0  0.06665  0.76896  0.24868  1.0000
  C   C941      1.0  0.05818  0.76129  0.24059  1.0000
  C   C942      1.0  0.04821  0.77155  0.22858  1.0000
  C   C943      1.0  0.02609  0.83782  0.19492  1.0000
  C   C944      1.0  0.03088  0.85364  0.18670  1.0000
  C   C945      1.0  0.04833  0.85507  0.18318  1.0000
  C   C946      1.0  0.06110  0.84057  0.18758  1.0000
  C   C947      1.0  0.05638  0.82470  0.19570  1.0000
  C   C948      1.0  0.03279  0.79298  0.19279  1.0000
  C   C949      1.0  0.04737  0.78085  0.18687  1.0000
  C   C950      1.0  0.04695  0.77253  0.17403  1.0000
  C   C951      1.0  0.03215  0.77652  0.16680  1.0000
  C   C952      1.0  0.01781  0.78893  0.17227  1.0000
  C   C953      1.0  0.01818  0.79736  0.18504  1.0000
  S   S134      1.0  0.06630  0.68920  0.20681  1.0000
  C   C954      1.0  0.01029  0.74112  0.46951  1.0000
  C   C955      1.0  0.00941  0.72643  0.46426  1.0000
  H   H727      1.0  0.00639  0.78135  0.22074  1.0000
  H   H728      1.0  0.01280  0.82815  0.23158  1.0000
  H   H729      1.0  0.05349  0.81105  0.23065  1.0000
  H   H730      1.0  0.07149  0.79302  0.25098  1.0000
  H   H731      1.0  0.07415  0.76106  0.25820  1.0000
  H   H732      1.0  0.05911  0.74741  0.24379  1.0000
  H   H733      1.0  0.04122  0.76548  0.22290  1.0000
  H   H734      1.0  0.01253  0.83692  0.19722  1.0000
  H   H735      1.0  0.02103  0.86479  0.18294  1.0000
  H   H736      1.0  0.05190  0.86741  0.17695  1.0000
  H   H737      1.0  0.07464  0.84167  0.18481  1.0000
  H   H738      1.0  0.06647  0.81356  0.19879  1.0000
  H   H739      1.0  0.05881  0.77736  0.19255  1.0000
  H   H740      1.0  0.15871  0.70968  0.46921  1.0000
  H   H741      1.0  0.03146  0.76952  0.15746  1.0000
  H   H742      1.0  0.00622  0.79161  0.16695  1.0000
  H   H743      1.0  0.00689  0.80700  0.18910  1.0000
  C   C956      1.0  0.10512  0.75462  0.19254  1.0000
  C   C957      1.0  0.10059  0.75353  0.17750  1.0000
  C   C958      1.0  0.11354  0.74786  0.16401  1.0000
  H   H744      1.0  0.09503  0.75848  0.20325  1.0000
  H   H745      1.0  0.08698  0.75647  0.17660  1.0000
  H   H746      1.0  0.10993  0.74652  0.15261  1.0000
  H   H747      1.0  0.14523  0.79959  0.19445  1.0000
  C   C959      1.0  0.03178  0.79347  0.35201  1.0000
  C   C960      1.0  0.21088  0.82562  0.13226  1.0000
  H   H748      1.0  0.17625  0.81024  0.47261  1.0000
  C   C961      1.0  0.07571  0.72558  0.13490  1.0000
  C   C962      1.0  0.12428  0.90307  0.46502  1.0000
  C   C963      1.0  0.08060  0.83924  0.02953  1.0000
  C   C964      1.0  0.12264  0.79468  0.36025  1.0000
  H   H749      1.0  0.12879  0.80307  0.34914  1.0000
  H   H750      1.0  0.17751  0.76835  0.15999  1.0000
  C   C965      1.0  0.06744  0.72532  0.12178  1.0000
  C   C966      1.0  0.05681  0.74064  0.11471  1.0000
  H   H751      1.0  0.01892  0.82249  0.31750  1.0000
  C   C967      1.0  0.14500  0.73774  0.40230  1.0000
  C   C968      1.0  0.06847  0.70632  0.08032  1.0000
  H   H752      1.0  0.05033  0.74120  0.10449  1.0000
  H   H753      1.0  0.03838  0.69086  0.12825  1.0000
  C   C969      1.0  0.22625  0.70470  0.42083  1.0000
  H   H754      1.0  0.19989  0.74472  0.44892  1.0000
  C   C970      1.0  0.18378  0.81725  0.19693  1.0000
  C   C971      1.0  0.08680  0.84337  0.05566  1.0000
  C   C972      1.0  0.19873  0.74659  0.06997  1.0000
  H   H755      1.0  0.13572  0.67879  0.99452  1.0000
  C   C973      1.0  0.11872  0.76586  0.37551  1.0000
  C   C974      1.0  0.15939  0.75664  0.19380  1.0000
  C   C975      1.0  0.16315  0.76310  0.21995  1.0000
  H   H756      1.0  0.14087  0.70522  0.43566  1.0000
  C   C976      1.0  0.21827  0.75577  0.16462  1.0000
  H   H757      1.0  0.09784  0.65170  0.19771  1.0000
  C   C977      1.0  0.23472  0.85438  0.04506  1.0000
  H   H758      1.0  0.14516  0.90244  0.41675  1.0000
  H   H759      1.0  0.11307  0.91206  0.42569  1.0000
  C   C978      1.0  0.20472  0.75759  0.19422  1.0000
  P   P31       1.0  0.15844  0.74116  0.18184  1.0000
  C   C979      1.0  0.16454  0.75113  0.20983  1.0000
  H   H760      1.0  0.13982  0.71556  0.20696  1.0000
  C   C980      1.0  0.12120  0.90803  0.43528  1.0000
  H   H761      1.0  0.11468  0.68356  0.06035  1.0000
  C   C981      1.0  0.13922  0.90264  0.43023  1.0000
  H   H762      1.0  0.23077  0.66004  0.39470  1.0000
  H   H763      1.0  0.16963  0.72020  0.99202  1.0000
  H   H764      1.0  0.19548  0.81134  0.20210  1.0000
  C   C982      1.0  0.06096  0.81025  0.47666  1.0000
  C   C983      1.0  0.20322  0.74782  0.47325  1.0000
  H   H765      1.0  0.08686  0.65688  0.32104  1.0000
  C   C984      1.0  0.22049  0.66732  0.38778  1.0000
  C   C985      1.0  0.14974  0.89734  0.44255  1.0000
  C   C986      1.0  0.16741  0.65834  0.43629  1.0000
  S   S135      1.0  0.23556  0.72141  0.08348  1.0000
  H   H766      1.0  0.02067  0.69030  0.19127  1.0000
  H   H767      1.0  0.22441  0.71760  0.44118  1.0000
  C   C987      1.0  0.09371  0.69813  0.10649  1.0000
  C   C988      1.0  0.10511  0.70973  0.10086  1.0000
  C   C989      1.0  0.20302  0.85069  0.45647  1.0000
  C   C990      1.0  0.02573  0.72111  0.40961  1.0000
  S   S136      1.0  0.10286  0.74465  0.47524  1.0000
  H   H768      1.0  0.03080  0.73750  0.34594  1.0000
  C   C991      1.0  0.08148  0.85025  0.03986  1.0000
  H   H769      1.0  0.21453  0.68400  0.34659  1.0000
  H   H770      1.0  0.04142  0.80217  0.01322  1.0000
  H   H771      1.0  0.16366  0.89318  0.43835  1.0000
  Fe  Fe66      1.0  0.18248  0.86172  0.98593  1.0000
  H   H772      1.0  0.13555  0.77164  0.35059  1.0000
  C   C992      1.0  0.19149  0.75889  0.13711  1.0000
  C   C993      1.0  0.17250  0.74335  0.16062  1.0000
  H   H773      1.0  0.16911  0.73760  0.21490  1.0000
  C   C994      1.0  0.19070  0.68293  0.38760  1.0000
  H   H774      1.0  0.01969  0.77215  0.36646  1.0000
  S   S137      1.0  0.15754  0.85340  0.00181  1.0000
  H   H775      1.0  0.10979  0.75003  0.32088  1.0000
  H   H776      1.0  0.23991  0.78982  0.16311  1.0000
  C   C995      1.0  0.19980  0.82266  0.10846  1.0000
  H   H777      1.0  0.07779  0.66583  0.16985  1.0000
  C   C996      1.0  0.02845  0.65037  0.30874  1.0000
  H   H778      1.0  0.13260  0.74124  0.41086  1.0000
  H   H779      1.0  0.10818  0.75899  0.34781  1.0000
  C   C997      1.0  0.15369  0.71015  0.20489  1.0000
  S   S138      1.0  0.04303  0.73635  0.20869  1.0000
  H   H780      1.0  0.13359  0.83038  0.01626  1.0000
  C   C998      1.0  0.14556  0.73712  0.38515  1.0000
  C   C999      1.0  0.99634  0.72698  0.45561  1.0000
  P   P32       1.0  0.17012  0.66448  0.00540  1.0000
  H   H781      1.0  0.00485  0.83739  0.14012  1.0000
  C   C1000     1.0  0.13864  0.68297  0.14747  1.0000
  C   C1001     1.0  0.21677  0.80547  0.44048  1.0000
  H   H782      1.0  0.14714  0.70403  0.33542  1.0000
  C   C1002     1.0  0.12914  0.72680  0.32610  1.0000
  H   H783      1.0  0.20416  0.81414  0.44184  1.0000
  H   H784      1.0  0.22000  0.70667  0.99270  1.0000
  C   C1003     1.0  0.14239  0.89752  0.46004  1.0000
  Fe  Fe67      1.0  0.24031  0.90318  0.46719  1.0000
  H   H785      1.0  0.08760  0.85193  0.06350  1.0000
  C   C1004     1.0  0.21146  0.68097  0.36059  1.0000
  H   H786      1.0  0.10005  0.82093  0.45650  1.0000
  C   C1005     1.0  0.16041  0.73423  0.40847  1.0000
  C   C1006     1.0  0.13923  0.85016  0.44554  1.0000
  P   P33       1.0  0.20290  0.80719  0.16621  1.0000
  C   C1007     1.0  0.21123  0.80918  0.04336  1.0000
  C   C1008     1.0  0.01529  0.78876  0.26797  1.0000
  C   C1009     1.0  0.23376  0.85357  0.02828  1.0000
  C   C1010     1.0  0.17590  0.67228  0.42891  1.0000
  H   H787      1.0  0.21904  0.86509  0.46222  1.0000
  H   H788      1.0  0.17301  0.94868  0.44999  1.0000
  H   H789      1.0  0.21999  0.79774  0.04859  1.0000
  S   S139      1.0  0.07076  0.70221  0.24031  1.0000
  C   C1011     1.0  0.15957  0.69349  0.21384  1.0000
  H   H790      1.0  0.20493  0.74576  0.11618  1.0000
  H   H791      1.0  0.15026  0.68622  0.22257  1.0000
  Fe  Fe68      1.0  0.06525  0.71430  0.21389  1.0000
  H   H792      1.0  0.17556  0.72941  0.46223  1.0000
  P   P34       1.0  0.19914  0.66875  0.42021  1.0000
  H   H793      1.0  0.16083  0.65852  0.20427  1.0000
  C   C1012     1.0  0.22053  0.82970  0.17220  1.0000
  H   H794      1.0  0.07802  0.86414  0.03570  1.0000
  H   H795      1.0  0.22610  0.68995  0.40283  1.0000
  C   C1013     1.0  0.13264  0.83972  0.46098  1.0000
  C   C1014     1.0  0.02014  0.88546  0.02322  1.0000
  H   H796      1.0  0.18849  0.72734  0.40236  1.0000
  C   C1015     1.0  0.18837  0.73064  0.13577  1.0000
  H   H797      1.0  0.17136  0.71818  0.15721  1.0000
  C   C1016     1.0  0.02298  0.65117  0.23339  1.0000
  H   H798      1.0  0.03936  0.66089  0.35683  1.0000
  H   H799      1.0  0.20314  0.68959  0.19768  1.0000
  C   C1017     1.0  0.13799  0.72112  0.35353  1.0000
  H   H800      1.0  0.07641  0.81050  0.45094  1.0000
  C   C1018     1.0  0.00637  0.78730  0.34608  1.0000
  S   S140      1.0  0.01223  0.74678  0.31765  1.0000
  H   H801      1.0  0.06592  0.73176  0.39910  1.0000
  C   C1019     1.0  0.11723  0.74723  0.34509  1.0000
  C   C1020     1.0  0.12753  0.73695  0.35692  1.0000
  C   C1021     1.0  0.11805  0.74214  0.32975  1.0000
  C   C1022     1.0  0.14889  0.84124  0.99218  1.0000
  H   H802      1.0  0.21700  0.72938  0.05466  1.0000
  H   H803      1.0  0.16116  0.92383  0.44976  1.0000
  H   H804      1.0  0.13305  0.87138  0.42474  1.0000
  H   H805      1.0  0.04828  0.65904  0.17648  1.0000
  C   C1023     1.0  0.10335  0.85575  0.45882  1.0000
  C   C1024     1.0  0.00593  0.80152  0.33213  1.0000
  C   C1025     1.0  0.09280  0.65881  0.30744  1.0000
  C   C1026     1.0  0.16621  0.68919  0.42875  1.0000
  H   H806      1.0  0.16907  0.82464  0.22088  1.0000
  H   H807      1.0  0.19448  0.85057  0.04859  1.0000
  H   H808      1.0  0.18383  0.83973  0.45110  1.0000
  H   H809      1.0  0.22109  0.75195  0.02855  1.0000
  H   H810      1.0  0.20318  0.70107  0.46212  1.0000
  C   C1027     1.0  0.02569  0.74960  0.41389  1.0000
  H   H811      1.0  0.21380  0.75449  0.46734  1.0000
  C   C1028     1.0  0.15608  0.68471  0.17221  1.0000
  H   H812      1.0  0.01452  0.72622  0.29316  1.0000
  H   H813      1.0  0.12822  0.71549  0.46587  1.0000
  C   C1029     1.0  0.23198  0.81207  0.43386  1.0000
  P   P35       1.0  0.15637  0.89191  0.47557  1.0000
  H   H814      1.0  0.09975  0.91239  0.45658  1.0000
  C   C1030     1.0  0.22847  0.76146  0.32251  1.0000
  C   C1031     1.0  0.18356  0.81728  0.17976  1.0000
  C   C1032     1.0  0.16889  0.82485  0.20758  1.0000
  S   S141      1.0  0.23107  0.81908  0.36520  1.0000
  H   H815      1.0  0.22569  0.77259  0.31241  1.0000
  C   C1033     1.0  0.01319  0.80671  0.28814  1.0000
  H   H816      1.0  0.11521  0.65776  0.13376  1.0000
  H   H817      1.0  0.15739  0.69380  0.04513  1.0000
  P   P36       1.0  0.07272  0.84819  0.00966  1.0000
  Fe  Fe69      1.0  0.00324  0.71341  0.37882  1.0000
  S   S142      1.0  0.23009  0.67598  0.11537  1.0000
  Fe  Fe70      1.0  0.06353  0.74957  0.45253  1.0000
  H   H818      1.0  0.04514  0.82770  0.02161  1.0000
  C   C1034     1.0  0.12924  0.68477  0.16409  1.0000
  H   H819      1.0  0.09241  0.80063  0.05578  1.0000
  H   H820      1.0  0.21457  0.82416  0.06011  1.0000
  S   S143      1.0  0.99630  0.85829  0.16599  1.0000
  H   H821      1.0  0.23439  0.84757  0.17556  1.0000
  H   H822      1.0  0.10127  0.87624  0.43642  1.0000
  C   C1035     1.0  0.02058  0.73911  0.40547  1.0000
  C   C1036     1.0  0.23400  0.77638  0.44254  1.0000
  H   H823      1.0  0.03926  0.66978  0.22881  1.0000
  H   H824      1.0  0.18180  0.80552  0.11492  1.0000
  H   H825      1.0  0.23880  0.72057  0.35751  1.0000
  H   H826      1.0  0.02170  0.76349  0.41057  1.0000
  H   H827      1.0  0.18968  0.72646  0.37191  1.0000
  C   C1037     1.0  0.16182  0.73358  0.37407  1.0000
  C   C1038     1.0  0.18936  0.69541  0.19988  1.0000
  H   H828      1.0  0.13075  0.68769  0.18913  1.0000
  C   C1039     1.0  0.19667  0.83891  0.04365  1.0000
  C   C1040     1.0  0.18875  0.68370  0.01491  1.0000
  H   H829      1.0  0.18284  0.79781  0.14602  1.0000
  C   C1041     1.0  0.17462  0.87515  0.46924  1.0000
  C   C1042     1.0  0.08086  0.82357  0.98900  1.0000
  C   C1043     1.0  0.02121  0.80123  0.27262  1.0000
  C   C1044     1.0  0.10938  0.73143  0.39177  1.0000
  C   C1045     1.0  0.00941  0.66793  0.28953  1.0000
  C   C1046     1.0  0.23474  0.79822  0.37782  1.0000
  H   H830      1.0  0.00778  0.89416  0.02645  1.0000
  H   H831      1.0  0.23103  0.82591  0.43029  1.0000
  C   C1047     1.0  0.03872  0.69427  0.27227  1.0000
  H   H832      1.0  0.11997  0.70435  0.03264  1.0000
  H   H833      1.0  0.14443  0.69645  0.00907  1.0000
  C   C1048     1.0  0.20583  0.78390  0.17223  1.0000
  C   C1049     1.0  0.99898  0.79997  0.29905  1.0000
  C   C1050     1.0  0.17722  0.72961  0.38038  1.0000
  H   H834      1.0  0.19755  0.73662  0.08153  1.0000
  C   C1051     1.0  0.08973  0.81449  0.05129  1.0000
  C   C1052     1.0  0.14475  0.67224  0.98491  1.0000
  H   H835      1.0  0.13745  0.79951  0.03282  1.0000
  Fe  Fe71      1.0  0.22319  0.69800  0.09390  1.0000
  C   C1053     1.0  0.20339  0.80915  0.02983  1.0000
  S   S144      1.0  0.01654  0.70487  0.35380  1.0000
  C   C1054     1.0  0.06873  0.83071  0.00227  1.0000
  C   C1055     1.0  0.05436  0.82298  0.01088  1.0000
  H   H836      1.0  0.14223  0.83876  0.20940  1.0000
  C   C1056     1.0  0.04087  0.85908  0.03088  1.0000
  C   C1057     1.0  0.16833  0.82551  0.17331  1.0000
  C   C1058     1.0  0.22058  0.69237  0.41568  1.0000
  C   C1059     1.0  0.11438  0.71611  0.40345  1.0000
  S   S145      1.0  0.01974  0.70711  0.39953  1.0000
  H   H837      1.0  0.04184  0.81487  0.33462  1.0000
  H   H838      1.0  0.17262  0.70003  0.42364  1.0000
  C   C1060     1.0  0.15353  0.83328  0.18395  1.0000
  H   H839      1.0  0.21016  0.80180  0.98420  1.0000
  C   C1061     1.0  0.22438  0.67127  0.36973  1.0000
  C   C1062     1.0  0.12516  0.67982  0.04992  1.0000
  C   C1063     1.0  0.14196  0.68698  0.02094  1.0000
  H   H840      1.0  0.14182  0.83969  0.17891  1.0000
  H   H841      1.0  0.23249  0.72417  0.46425  1.0000
  C   C1064     1.0  0.01913  0.78342  0.35604  1.0000
  P   P37       1.0  0.20722  0.78960  0.02168  1.0000
  H   H842      1.0  0.16287  0.68544  0.18171  1.0000
  C   C1065     1.0  0.17190  0.86178  0.46294  1.0000
  H   H843      1.0  0.16781  0.82614  0.16007  1.0000
  C   C1066     1.0  0.18985  0.81116  0.11981  1.0000
  H   H844      1.0  0.16266  0.73411  0.36054  1.0000
  C   C1067     1.0  0.16558  0.68211  0.15589  1.0000
  C   C1068     1.0  0.09087  0.82549  0.06140  1.0000
  C   C1069     1.0  0.20812  0.68342  0.42711  1.0000
  H   H845      1.0  0.01271  0.74492  0.39577  1.0000
  H   H846      1.0  0.14927  0.81855  0.04426  1.0000
  C   C1070     1.0  0.04721  0.87811  0.00306  1.0000
  S   S146      1.0  0.10676  0.68507  0.16942  1.0000
  H   H847      1.0  0.22717  0.86537  0.05059  1.0000
  H   H848      1.0  0.15310  0.84772  0.44018  1.0000
  H   H849      1.0  0.01109  0.84887  0.27751  1.0000
  C   C1071     1.0  0.19050  0.80680  0.13738  1.0000
  C   C1072     1.0  0.11399  0.87197  0.98482  1.0000
  H   H850      1.0  0.09487  0.82018  0.07369  1.0000
  H   H851      1.0  0.20429  0.69707  0.02270  1.0000
  C   C1073     1.0  0.16212  0.66477  0.98648  1.0000
  H   H852      1.0  0.14510  0.71245  0.36300  1.0000
  H   H853      1.0  0.20116  0.75130  0.20760  1.0000
  C   C1074     1.0  0.20128  0.69373  0.01189  1.0000
  H   H854      1.0  0.04214  0.78998  0.35924  1.0000
  H   H855      1.0  0.21804  0.83875  0.10586  1.0000
  C   C1075     1.0  0.24013  0.76502  0.39854  1.0000
  C   C1076     1.0  0.03163  0.80747  0.33806  1.0000
  C   C1077     1.0  0.02696  0.85478  0.23425  1.0000
  C   C1078     1.0  0.18256  0.73868  0.99562  1.0000
  S   S147      1.0  0.18835  0.67963  0.15151  1.0000
  H   H856      1.0  0.19439  0.88639  0.47357  1.0000
  C   C1079     1.0  0.07945  0.72739  0.40035  1.0000
  C   C1080     1.0  0.10190  0.70667  0.41369  1.0000
  H   H857      1.0  0.16407  0.67966  0.13068  1.0000
  C   C1081     1.0  0.23540  0.83483  0.17326  1.0000
  Fe  Fe72      1.0  0.20113  0.67808  0.12396  1.0000
  C   C1082     1.0  0.20116  0.81387  0.14372  1.0000
  Fe  Fe73      1.0  0.09451  0.69011  0.19612  1.0000
  H   H858      1.0  0.22371  0.76749  0.99645  1.0000
  Fe  Fe74      1.0  0.22146  0.85453  0.98594  1.0000
  C   C1083     1.0  0.14950  0.66134  0.44334  1.0000
  H   H859      1.0  0.20809  0.83867  0.17360  1.0000
  H   H860      1.0  0.06613  0.65348  0.20828  1.0000
  H   H861      1.0  0.01823  0.81612  0.29162  1.0000
  H   H862      1.0  0.12489  0.87494  0.98821  1.0000
  C   C1084     1.0  0.01474  0.85527  0.24974  1.0000
  H   H863      1.0  0.02279  0.86022  0.22208  1.0000
  C   C1085     1.0  0.13588  0.66339  0.05213  1.0000
  C   C1086     1.0  0.20585  0.86386  0.46284  1.0000
  H   H864      1.0  0.01631  0.86727  0.04740  1.0000
  Fe  Fe75      1.0  0.12713  0.74555  0.98480  1.0000
  H   H865      1.0  0.99727  0.77884  0.34920  1.0000
  C   C1087     1.0  0.16532  0.92420  0.46123  1.0000
  H   H866      1.0  0.21634  0.73370  0.18542  1.0000
  C   C1088     1.0  0.23600  0.73208  0.34781  1.0000
  C   C1089     1.0  0.21328  0.74766  0.18177  1.0000
  H   H867      1.0  0.24146  0.80939  0.29628  1.0000
  C   C1090     1.0  0.17055  0.79438  0.98492  1.0000
  C   C1091     1.0  0.07535  0.81328  0.46351  1.0000
  H   H868      1.0  0.99918  0.65403  0.27653  1.0000
  H   H869      1.0  0.19621  0.75820  0.99521  1.0000
  C   C1092     1.0  0.11464  0.84253  0.46778  1.0000
  H   H870      1.0  0.14281  0.68227  0.08775  1.0000
  H   H871      1.0  0.10425  0.86002  0.01068  1.0000
  C   C1093     1.0  0.20610  0.69478  0.98120  1.0000
  H   H872      1.0  0.23751  0.66688  0.36290  1.0000
  C   C1094     1.0  0.15101  0.65066  0.20930  1.0000
  Fe  Fe76      1.0  0.22839  0.65902  0.09810  1.0000
  S   S148      1.0  0.06522  0.65385  0.25050  1.0000
  C   C1095     1.0  0.06416  0.80167  0.99274  1.0000
  C   C1096     1.0  0.17203  0.93836  0.46131  1.0000
  H   H873      1.0  0.19441  0.78294  0.19944  1.0000
  H   H874      1.0  0.01927  0.71478  0.46635  1.0000
  C   C1097     1.0  0.11372  0.90818  0.45268  1.0000
  C   C1098     1.0  0.22187  0.81332  0.16884  1.0000
  H   H875      1.0  0.12275  0.66179  0.09697  1.0000
  S   S149      1.0  0.24346  0.83836  0.99954  1.0000
  H   H876      1.0  0.01465  0.71240  0.26928  1.0000
  C   C1099     1.0  0.00192  0.70685  0.20698  1.0000
  C   C1100     1.0  0.19174  0.87606  0.46919  1.0000
  C   C1101     1.0  0.22955  0.78410  0.01023  1.0000
  C   C1102     1.0  0.19462  0.68677  0.36952  1.0000
  C   C1103     1.0  0.13993  0.67823  0.44293  1.0000
  H   H877      1.0  0.15884  0.86102  0.46264  1.0000
  H   H878      1.0  0.11567  0.66538  0.25903  1.0000
  C   C1104     1.0  0.21474  0.77378  0.15988  1.0000
  S   S150      1.0  0.24293  0.89796  0.44035  1.0000
  C   C1105     1.0  0.08817  0.85929  0.99330  1.0000
  H   H879      1.0  0.99898  0.76782  0.47006  1.0000
  H   H880      1.0  0.24033  0.79934  0.02162  1.0000
  H   H881      1.0  0.05559  0.88147  0.99067  1.0000
  H   H882      1.0  0.99625  0.77271  0.27473  1.0000
  H   H883      1.0  0.23579  0.71161  0.41202  1.0000
  C   C1106     1.0  0.07839  0.80934  0.98405  1.0000
  H   H884      1.0  0.22523  0.74814  0.15497  1.0000
  H   H885      1.0  0.21941  0.77975  0.14661  1.0000
  C   C1107     1.0  0.23831  0.80225  0.16638  1.0000
  C   C1108     1.0  0.17782  0.93905  0.47581  1.0000
  H   H886      1.0  0.23887  0.71299  0.11969  1.0000
  H   H887      1.0  0.23960  0.84870  0.37675  1.0000
  C   C1109     1.0  0.18672  0.79903  0.97836  1.0000
  H   H888      1.0  0.14691  0.65411  0.23543  1.0000
  C   C1110     1.0  0.03669  0.65733  0.23599  1.0000
  H   H889      1.0  0.02090  0.74088  0.47552  1.0000
  Fe  Fe77      1.0  0.09140  0.72417  0.47068  1.0000
  H   H890      1.0  0.24179  0.75556  0.07640  1.0000
  C   C1111     1.0  0.19327  0.68508  0.98417  1.0000
  C   C1112     1.0  0.24100  0.72596  0.11409  1.0000
  C   C1113     1.0  0.23989  0.73309  0.09683  1.0000
  H   H891      1.0  0.99628  0.71550  0.45135  1.0000
  C   C1114     1.0  0.99795  0.75635  0.46633  1.0000
  H   H892      1.0  0.14652  0.65303  0.11912  1.0000
  C   C1115     1.0  0.24301  0.79018  0.01334  1.0000
  H   H893      1.0  0.14307  0.65057  0.44949  1.0000
  H   H894      1.0  0.21258  0.65092  0.45194  1.0000
  H   H895      1.0  0.20478  0.64995  0.01516  1.0000
  C   C1116     1.0  0.99434  0.83307  0.15012  1.0000
  C   C1117     1.0  0.12507  0.64988  0.14083  1.0000
  C   C1118     1.0  0.24363  0.83955  0.02087  1.0000
  C   C1119     1.0  0.24390  0.74923  0.31934  1.0000
  C   C1120     1.0  0.24349  0.71383  0.46648  1.0000
  S   S151      1.0  0.24324  0.74470  0.41223  1.0000
  C   C1121     1.0  0.99442  0.69222  0.18835  1.0000
  C   C1122     1.0  0.24099  0.69844  0.47805  1.0000
  Fe  Fe78      1.0  0.22101  0.89761  0.50472  1.0000
  H   H896      1.0  0.14957  0.85752  0.49457  1.0000
  C   C1123     1.0  0.13432  0.67644  0.67651  1.0000
  C   C1124     1.0  0.19600  0.69572  0.51739  1.0000
  H   H897      1.0  0.24287  0.95956  0.67778  1.0000
  H   H898      1.0  0.19506  0.93741  0.67650  1.0000
  C   C1125     1.0  0.20144  0.75170  0.67451  1.0000
  Fe  Fe79      1.0  0.20377  0.88946  0.96703  1.0000
  Fe  Fe80      1.0  0.19014  0.66506  0.88682  1.0000
  C   C1126     1.0  0.08770  0.82244  0.48314  1.0000
  S   S152      1.0  0.18502  0.87821  0.95923  1.0000
  S   S153      1.0  0.18114  0.69167  0.89253  1.0000
  C   C1127     1.0  0.11226  0.87602  0.96760  1.0000
  C   C1128     1.0  0.12620  0.72445  0.51364  1.0000
  C   C1129     1.0  0.21967  0.65224  0.94887  1.0000
  S   S154      1.0  0.21520  0.94691  0.87672  1.0000
  H   H899      1.0  0.19468  0.72838  0.69137  1.0000
  C   C1130     1.0  0.16597  0.70499  0.81202  1.0000
  C   C1131     1.0  0.13652  0.68023  0.58220  1.0000
  C   C1132     1.0  0.15395  0.89019  0.74238  1.0000
  C   C1133     1.0  0.18285  0.89579  0.73840  1.0000
  C   C1134     1.0  0.14949  0.89461  0.75862  1.0000
  H   H900      1.0  0.15989  0.69160  0.92522  1.0000
  H   H901      1.0  0.18314  0.70784  0.56236  1.0000
  Fe  Fe81      1.0  0.14626  0.78904  0.58370  1.0000
  S   S155      1.0  0.11802  0.79899  0.59390  1.0000
  S   S156      1.0  0.16249  0.76554  0.59736  1.0000
  Fe  Fe82      1.0  0.14831  0.81823  0.55264  1.0000
  S   S157      1.0  0.12013  0.83056  0.56011  1.0000
  S   S158      1.0  0.16650  0.82793  0.52824  1.0000
  Fe  Fe83      1.0  0.12546  0.82504  0.58703  1.0000
  S   S159      1.0  0.11748  0.84577  0.60328  1.0000
  Fe  Fe84      1.0  0.11545  0.80338  0.56608  1.0000
  S   S160      1.0  0.09222  0.79629  0.56043  1.0000
  S   S161      1.0  0.15385  0.81460  0.57895  1.0000
  S   S162      1.0  0.14329  0.79152  0.55658  1.0000
  H   H902      1.0  0.14442  0.88660  0.73741  1.0000
  C   C1135     1.0  0.12446  0.87306  0.52956  1.0000
  C   C1136     1.0  0.18423  0.88250  0.57879  1.0000
  C   C1137     1.0  0.17818  0.90115  0.75430  1.0000
  C   C1138     1.0  0.19973  0.77793  0.49829  1.0000
  C   C1139     1.0  0.22867  0.86424  0.77166  1.0000
  H   H903      1.0  0.22145  0.69467  0.64240  1.0000
  H   H904      1.0  0.11183  0.66311  0.80874  1.0000
  C   C1140     1.0  0.15219  0.87324  0.58305  1.0000
  Fe  Fe85      1.0  0.15371  0.90115  0.68573  1.0000
  S   S163      1.0  0.16248  0.87232  0.69378  1.0000
  S   S164      1.0  0.13303  0.91602  0.70409  1.0000
  Fe  Fe86      1.0  0.18183  0.90271  0.65355  1.0000
  S   S165      1.0  0.19336  0.87453  0.65937  1.0000
  S   S166      1.0  0.19248  0.91926  0.62869  1.0000
  Fe  Fe87      1.0  0.16551  0.87124  0.66580  1.0000
  S   S167      1.0  0.16267  0.84844  0.65600  1.0000
  Fe  Fe88      1.0  0.18942  0.87799  0.68652  1.0000
  S   S168      1.0  0.20816  0.86431  0.70440  1.0000
  S   S169      1.0  0.15415  0.89955  0.65843  1.0000
  S   S170      1.0  0.18052  0.90669  0.68008  1.0000
  Fe  Fe89      1.0  0.15539  0.68988  0.88868  1.0000
  S   S171      1.0  0.16095  0.70101  0.86013  1.0000
  S   S172      1.0  0.13131  0.70149  0.90664  1.0000
  C   C1141     1.0  0.20506  0.73432  0.68270  1.0000
  Fe  Fe90      1.0  0.19255  0.65658  0.50273  1.0000
  C   C1142     1.0  0.17071  0.89050  0.73243  1.0000
  H   H905      1.0  0.13214  0.84789  0.52309  1.0000
  H   H906      1.0  0.23463  0.68469  0.87866  1.0000
  H   H907      1.0  0.16548  0.72331  0.49406  1.0000
  S   S173      1.0  0.06462  0.76951  0.50705  1.0000
  C   C1143     1.0  0.08594  0.85894  0.53191  1.0000
  C   C1144     1.0  0.24192  0.68384  0.92400  1.0000
  C   C1145     1.0  0.18895  0.83377  0.86958  1.0000
  H   H908      1.0  0.09605  0.81810  0.52473  1.0000
  C   C1146     1.0  0.12612  0.74723  0.57270  1.0000
  C   C1147     1.0  0.18960  0.78609  0.48567  1.0000
  C   C1148     1.0  0.18783  0.98184  0.64492  1.0000
  C   C1149     1.0  0.21487  0.91325  0.83833  1.0000
  C   C1150     1.0  0.15397  0.68582  0.64989  1.0000
  H   H909      1.0  0.08356  0.77313  0.79026  1.0000
  H   H910      1.0  0.19460  0.67455  0.57731  1.0000
  C   C1151     1.0  0.20436  0.78796  0.50735  1.0000
  H   H911      1.0  0.13135  0.66298  0.78011  1.0000
  H   H912      1.0  0.15105  0.73644  0.90324  1.0000
  H   H913      1.0  0.16179  0.85046  0.96620  1.0000
  S   S174      1.0  0.19665  0.89339  0.52469  1.0000
  H   H914      1.0  0.17577  0.66698  0.68282  1.0000
  H   H915      1.0  0.14652  0.95746  0.77920  1.0000
  C   C1152     1.0  0.23986  0.76065  0.48625  1.0000
  H   H916      1.0  0.19671  0.88578  0.57733  1.0000
  C   C1153     1.0  0.11189  0.69457  0.87683  1.0000
  H   H917      1.0  0.17000  0.74486  0.82720  1.0000
  H   H918      1.0  0.16670  0.84708  0.58506  1.0000
  C   C1154     1.0  0.23541  0.73220  0.66849  1.0000
  H   H919      1.0  0.16824  0.97521  0.68944  1.0000
  H   H920      1.0  0.22237  0.93179  0.53214  1.0000
  C   C1155     1.0  0.15090  0.71733  0.81642  1.0000
  H   H921      1.0  0.17289  0.94418  0.65839  1.0000
  S   S175      1.0  0.22629  0.65685  0.96572  1.0000
  H   H922      1.0  0.12179  0.88215  0.95770  1.0000
  C   C1156     1.0  0.20943  0.92770  0.63076  1.0000
  C   C1157     1.0  0.21728  0.92116  0.64511  1.0000
  C   C1158     1.0  0.16719  0.65583  0.95908  1.0000
  C   C1159     1.0  0.09846  0.87187  0.96316  1.0000
  H   H923      1.0  0.20773  0.69675  0.58237  1.0000
  C   C1160     1.0  0.21448  0.94173  0.61836  1.0000
  H   H924      1.0  0.21368  0.91005  0.65450  1.0000
  H   H925      1.0  0.20866  0.94649  0.60708  1.0000
  C   C1161     1.0  0.14995  0.66328  0.95764  1.0000
  C   C1162     1.0  0.16670  0.93606  0.77187  1.0000
  H   H926      1.0  0.19528  0.85528  0.58086  1.0000
  C   C1163     1.0  0.23689  0.68434  0.89124  1.0000
  H   H927      1.0  0.21809  0.88251  0.55231  1.0000
  H   H928      1.0  0.16292  0.96453  0.79730  1.0000
  H   H929      1.0  0.16469  0.90904  0.54449  1.0000
  C   C1164     1.0  0.17244  0.97750  0.70011  1.0000
  C   C1165     1.0  0.18035  0.95370  0.65771  1.0000
  H   H930      1.0  0.23449  0.84929  0.51393  1.0000
  C   C1166     1.0  0.18350  0.73638  0.49872  1.0000
  C   C1167     1.0  0.18345  0.86513  0.58095  1.0000
  P   P38       1.0  0.20652  0.75480  0.50350  1.0000
  C   C1168     1.0  0.13066  0.84703  0.61719  1.0000
  C   C1169     1.0  0.12612  0.86096  0.62577  1.0000
  C   C1170     1.0  0.13612  0.86201  0.63724  1.0000
  C   C1171     1.0  0.15060  0.84894  0.64042  1.0000
  C   C1172     1.0  0.15544  0.83535  0.63143  1.0000
  C   C1173     1.0  0.14560  0.83444  0.61982  1.0000
  H   H931      1.0  0.11467  0.87086  0.62373  1.0000
  H   H932      1.0  0.13227  0.87258  0.64405  1.0000
  H   H933      1.0  0.16676  0.82536  0.63360  1.0000
  H   H934      1.0  0.14937  0.82383  0.61312  1.0000
  C   C1174     1.0  0.18427  0.76660  0.58780  1.0000
  C   C1175     1.0  0.19783  0.75549  0.59531  1.0000
  C   C1176     1.0  0.21524  0.75637  0.58752  1.0000
  C   C1177     1.0  0.21901  0.76829  0.57212  1.0000
  C   C1178     1.0  0.20548  0.77909  0.56445  1.0000
  C   C1179     1.0  0.18814  0.77828  0.57229  1.0000
  H   H935      1.0  0.19486  0.74607  0.60694  1.0000
  H   H936      1.0  0.22572  0.74783  0.59337  1.0000
  H   H937      1.0  0.20841  0.78787  0.55225  1.0000
  H   H938      1.0  0.17786  0.78636  0.56595  1.0000
  C   C1180     1.0  0.17478  0.84614  0.52744  1.0000
  C   C1181     1.0  0.18811  0.85099  0.51361  1.0000
  C   C1182     1.0  0.19502  0.86535  0.51277  1.0000
  C   C1183     1.0  0.18840  0.87517  0.52555  1.0000
  C   C1184     1.0  0.17473  0.87068  0.53905  1.0000
  C   C1185     1.0  0.16807  0.85605  0.54018  1.0000
  H   H939      1.0  0.19320  0.84373  0.50347  1.0000
  H   H940      1.0  0.20525  0.86897  0.50209  1.0000
  H   H941      1.0  0.16929  0.87855  0.54864  1.0000
  H   H942      1.0  0.15758  0.85263  0.55073  1.0000
  C   C1186     1.0  0.08635  0.78808  0.54488  1.0000
  C   C1187     1.0  0.06857  0.78863  0.54666  1.0000
  C   C1188     1.0  0.06252  0.78280  0.53497  1.0000
  C   C1189     1.0  0.07406  0.77614  0.52119  1.0000
  C   C1190     1.0  0.09204  0.77536  0.51925  1.0000
  C   C1191     1.0  0.09820  0.78140  0.53107  1.0000
  H   H943      1.0  0.05928  0.79371  0.55719  1.0000
  H   H944      1.0  0.04867  0.78347  0.53667  1.0000
  H   H945      1.0  0.10107  0.77017  0.50869  1.0000
  H   H946      1.0  0.11198  0.78090  0.52951  1.0000
  C   C1192     1.0  0.14397  0.88440  0.49673  1.0000
  H   H947      1.0  0.13253  0.95531  0.52199  1.0000
  H   H948      1.0  0.21854  0.89644  0.68458  1.0000
  H   H949      1.0  0.07587  0.86038  0.97225  1.0000
  C   C1193     1.0  0.15931  0.94969  0.78062  1.0000
  S   S176      1.0  0.16387  0.66233  0.88476  1.0000
  H   H950      1.0  0.12950  0.75531  0.59458  1.0000
  C   C1194     1.0  0.13890  0.94818  0.68588  1.0000
  C   C1195     1.0  0.13236  0.93832  0.70176  1.0000
  C   C1196     1.0  0.12467  0.94645  0.71590  1.0000
  H   H951      1.0  0.22608  0.77633  0.68222  1.0000
  H   H952      1.0  0.13980  0.86967  0.58451  1.0000
  H   H953      1.0  0.14446  0.94210  0.67486  1.0000
  H   H954      1.0  0.11945  0.93893  0.72820  1.0000
  H   H955      1.0  0.14504  0.73062  0.52426  1.0000
  C   C1197     1.0  0.20093  0.68856  0.59323  1.0000
  H   H956      1.0  0.19577  0.89584  0.73041  1.0000
  C   C1198     1.0  0.19220  0.92061  0.56834  1.0000
  H   H957      1.0  0.13308  0.82196  0.50748  1.0000
  C   C1199     1.0  0.11591  0.71263  0.51488  1.0000
  C   C1200     1.0  0.12322  0.69126  0.48186  1.0000
  C   C1201     1.0  0.22533  0.91772  0.74355  1.0000
  H   H958      1.0  0.09971  0.86622  0.48839  1.0000
  C   C1202     1.0  0.14837  0.67027  0.68494  1.0000
  C   C1203     1.0  0.23650  0.92504  0.72910  1.0000
  C   C1204     1.0  0.21027  0.92229  0.90617  1.0000
  C   C1205     1.0  0.23032  0.93382  0.71413  1.0000
  Fe  Fe91      1.0  0.18734  0.70127  0.86408  1.0000
  C   C1206     1.0  0.21023  0.94305  0.92855  1.0000
  H   H959      1.0  0.21026  0.91418  0.89755  1.0000
  H   H960      1.0  0.20722  0.90216  0.92901  1.0000
  C   C1207     1.0  0.13861  0.71748  0.95411  1.0000
  C   C1208     1.0  0.15187  0.70585  0.94568  1.0000
  C   C1209     1.0  0.14976  0.70096  0.93115  1.0000
  C   C1210     1.0  0.13434  0.70765  0.92484  1.0000
  C   C1211     1.0  0.12102  0.71928  0.93329  1.0000
  C   C1212     1.0  0.12316  0.72427  0.94784  1.0000
  H   H961      1.0  0.16377  0.70037  0.95057  1.0000
  H   H962      1.0  0.21556  0.65132  0.63489  1.0000
  H   H963      1.0  0.10901  0.72446  0.92858  1.0000
  H   H964      1.0  0.11281  0.73315  0.95432  1.0000
  H   H965      1.0  0.13651  0.89424  0.76636  1.0000
  H   H966      1.0  0.15950  0.93368  0.76350  1.0000
  H   H967      1.0  0.15801  0.90320  0.77731  1.0000
  H   H968      1.0  0.07165  0.74917  0.81146  1.0000
  C   C1213     1.0  0.23675  0.67020  0.56224  1.0000
  H   H969      1.0  0.12710  0.66971  0.87256  1.0000
  C   C1214     1.0  0.22779  0.69527  0.91774  1.0000
  H   H970      1.0  0.17643  0.83127  0.86951  1.0000
  H   H971      1.0  0.22476  0.71101  0.68578  1.0000
  C   C1215     1.0  0.21725  0.87422  0.79859  1.0000
  H   H972      1.0  0.12445  0.66247  0.60335  1.0000
  H   H973      1.0  0.14876  0.95334  0.56866  1.0000
  C   C1216     1.0  0.20355  0.84816  0.61879  1.0000
  C   C1217     1.0  0.14781  0.67222  0.49360  1.0000
  C   C1218     1.0  0.16740  0.86049  0.58332  1.0000
  C   C1219     1.0  0.21689  0.65196  0.64754  1.0000
  H   H974      1.0  0.20688  0.85322  0.89120  1.0000
  C   C1220     1.0  0.15796  0.68470  0.48569  1.0000
  C   C1221     1.0  0.09640  0.85896  0.50135  1.0000
  C   C1222     1.0  0.15294  0.84234  0.97429  1.0000
  H   H975      1.0  0.08879  0.88181  0.51231  1.0000
  C   C1223     1.0  0.23099  0.78779  0.83996  1.0000
  C   C1224     1.0  0.12248  0.68300  0.86662  1.0000
  Fe  Fe92      1.0  0.21513  0.97412  0.86066  1.0000
  H   H976      1.0  0.15583  0.69206  0.63636  1.0000
  C   C1225     1.0  0.12766  0.68872  0.84884  1.0000
  H   H977      1.0  0.23811  0.97737  0.51757  1.0000
  H   H978      1.0  0.23355  0.84254  0.87064  1.0000
  C   C1226     1.0  0.23879  0.85268  0.65125  1.0000
  H   H979      1.0  0.13519  0.90978  0.50320  1.0000
  H   H980      1.0  0.22632  0.92119  0.58548  1.0000
  C   C1227     1.0  0.13567  0.66403  0.59297  1.0000
  C   C1228     1.0  0.13875  0.67151  0.97053  1.0000
  C   C1229     1.0  0.17148  0.97243  0.73077  1.0000
  H   H981      1.0  0.18772  0.93077  0.72794  1.0000
  H   H982      1.0  0.23466  0.80553  0.64131  1.0000
  C   C1230     1.0  0.09020  0.86792  0.51493  1.0000
  H   H983      1.0  0.22957  0.66775  0.57535  1.0000
  H   H984      1.0  0.23033  0.83581  0.61861  1.0000
  C   C1231     1.0  0.14627  0.79565  0.50739  1.0000
  H   H985      1.0  0.20619  0.69974  0.61191  1.0000
  C   C1232     1.0  0.23353  0.94425  0.63584  1.0000
  H   H986      1.0  0.23373  0.77388  0.48169  1.0000
  C   C1233     1.0  0.23044  0.87342  0.55073  1.0000
  C   C1234     1.0  0.16524  0.67189  0.67589  1.0000
  H   H987      1.0  0.24186  0.81527  0.58064  1.0000
  C   C1235     1.0  0.23835  0.73153  0.50214  1.0000
  H   H988      1.0  0.20134  0.91377  0.83842  1.0000
  C   C1236     1.0  0.21475  0.81433  0.58955  1.0000
  C   C1237     1.0  0.19884  0.81619  0.58480  1.0000
  C   C1238     1.0  0.19811  0.81958  0.56733  1.0000
  C   C1239     1.0  0.21321  0.82058  0.55468  1.0000
  C   C1240     1.0  0.22933  0.81850  0.55927  1.0000
  C   C1241     1.0  0.22987  0.81584  0.57682  1.0000
  C   C1242     1.0  0.16449  0.94107  0.59689  1.0000
  C   C1243     1.0  0.19649  0.82551  0.80896  1.0000
  C   C1244     1.0  0.19051  0.83714  0.79487  1.0000
  C   C1245     1.0  0.12999  0.69738  0.80610  1.0000
  C   C1246     1.0  0.11509  0.73243  0.80960  1.0000
  C   C1247     1.0  0.20783  0.91905  0.74300  1.0000
  C   C1248     1.0  0.14104  0.68528  0.78016  1.0000
  C   C1249     1.0  0.20929  0.79551  0.66667  1.0000
  C   C1250     1.0  0.15776  0.92984  0.55847  1.0000
  C   C1251     1.0  0.14778  0.91843  0.60781  1.0000
  C   C1252     1.0  0.22001  0.83118  0.85834  1.0000
  H   H989      1.0  0.22393  0.88785  0.83248  1.0000
  S   S177      1.0  0.21970  0.65699  0.50432  1.0000
  C   C1253     1.0  0.20602  0.84630  0.88180  1.0000
  H   H990      1.0  0.18413  0.82775  0.48913  1.0000
  H   H991      1.0  0.21531  0.81198  0.60305  1.0000
  H   H992      1.0  0.18705  0.81521  0.59457  1.0000
  H   H993      1.0  0.18593  0.82143  0.56331  1.0000
  H   H994      1.0  0.21201  0.82348  0.54129  1.0000
  C   C1254     1.0  0.13021  0.97413  0.69829  1.0000
  H   H995      1.0  0.21932  0.85432  0.54608  1.0000
  C   C1255     1.0  0.17775  0.96964  0.64635  1.0000
  P   P39       1.0  0.20270  0.81582  0.84258  1.0000
  H   H996      1.0  0.21811  0.87976  0.74982  1.0000
  C   C1256     1.0  0.18409  0.84720  0.82656  1.0000
  S   S178      1.0  0.10138  0.69572  0.47976  1.0000
  S   S179      1.0  0.14179  0.72243  0.97279  1.0000
  H   H997      1.0  0.23339  0.85525  0.72593  1.0000
  H   H998      1.0  0.11876  0.89952  0.53232  1.0000
  C   C1257     1.0  0.22175  0.65336  0.67983  1.0000
  C   C1258     1.0  0.15084  0.68228  0.56851  1.0000
  H   H999      1.0  0.17096  0.87169  0.81376  1.0000
  H   H1000     1.0  0.19264  0.92591  0.54083  1.0000
  C   C1259     1.0  0.19160  0.74679  0.95943  1.0000
  H   H1001     1.0  0.14623  0.66420  0.69854  1.0000
  P   P40       1.0  0.19813  0.75177  0.93617  1.0000
  C   C1260     1.0  0.18338  0.74586  0.92625  1.0000
  C   C1261     1.0  0.19439  0.77511  0.93000  1.0000
  C   C1262     1.0  0.17965  0.78503  0.93895  1.0000
  C   C1263     1.0  0.17630  0.80303  0.93439  1.0000
  C   C1264     1.0  0.18752  0.81137  0.92078  1.0000
  C   C1265     1.0  0.20190  0.80166  0.91147  1.0000
  C   C1266     1.0  0.20549  0.78362  0.91617  1.0000
  C   C1267     1.0  0.18959  0.73648  0.91290  1.0000
  C   C1268     1.0  0.17798  0.73337  0.90449  1.0000
  C   C1269     1.0  0.16005  0.73925  0.90952  1.0000
  C   C1270     1.0  0.15372  0.74836  0.92291  1.0000
  C   C1271     1.0  0.16529  0.75158  0.93130  1.0000
  C   C1272     1.0  0.22068  0.74088  0.93010  1.0000
  H   H1002     1.0  0.22842  0.84593  0.48697  1.0000
  C   C1273     1.0  0.20138  0.92890  0.72833  1.0000
  C   C1274     1.0  0.23719  0.83657  0.51102  1.0000
  C   C1275     1.0  0.13338  0.74526  0.58705  1.0000
  C   C1276     1.0  0.22920  0.74223  0.91268  1.0000
  H   H1003     1.0  0.12567  0.73597  0.50355  1.0000
  C   C1277     1.0  0.13488  0.89618  0.50747  1.0000
  H   H1004     1.0  0.16209  0.79515  0.97627  1.0000
  H   H1005     1.0  0.12553  0.67782  0.96910  1.0000
  H   H1006     1.0  0.17809  0.72672  0.96028  1.0000
  H   H1007     1.0  0.17075  0.77894  0.94963  1.0000
  H   H1008     1.0  0.16501  0.81048  0.94154  1.0000
  H   H1009     1.0  0.18525  0.82535  0.91768  1.0000
  H   H1010     1.0  0.21063  0.80816  0.90094  1.0000
  H   H1011     1.0  0.21716  0.77658  0.90925  1.0000
  H   H1012     1.0  0.20327  0.73151  0.90878  1.0000
  H   H1013     1.0  0.18288  0.72641  0.89401  1.0000
  C   C1278     1.0  0.23205  0.71502  0.85364  1.0000
  H   H1014     1.0  0.13978  0.75260  0.92708  1.0000
  H   H1015     1.0  0.15999  0.75837  0.94188  1.0000
  H   H1016     1.0  0.22374  0.72889  0.95644  1.0000
  C   C1279     1.0  0.16165  0.89985  0.76469  1.0000
  H   H1017     1.0  0.22132  0.96166  0.80714  1.0000
  H   H1018     1.0  0.22262  0.75012  0.90249  1.0000
  P   P41       1.0  0.19346  0.90923  0.76141  1.0000
  C   C1280     1.0  0.23191  0.77475  0.62111  1.0000
  C   C1281     1.0  0.18380  0.72176  0.81788  1.0000
  H   H1019     1.0  0.16816  0.77297  0.84463  1.0000
  C   C1282     1.0  0.22296  0.82855  0.92761  1.0000
  H   H1020     1.0  0.15765  0.96041  0.71934  1.0000
  H   H1021     1.0  0.18822  0.75896  0.67712  1.0000
  C   C1283     1.0  0.09696  0.73361  0.81447  1.0000
  S   S180      1.0  0.06346  0.73618  0.48033  1.0000
  C   C1284     1.0  0.19013  0.79931  0.85337  1.0000
  C   C1285     1.0  0.14846  0.93120  0.53198  1.0000
  H   H1022     1.0  0.09900  0.72094  0.87741  1.0000
  H   H1023     1.0  0.19049  0.68178  0.97328  1.0000
  C   C1286     1.0  0.15245  0.73179  0.82184  1.0000
  C   C1287     1.0  0.13139  0.73448  0.56273  1.0000
  C   C1288     1.0  0.18906  0.79247  0.87115  1.0000
  C   C1289     1.0  0.16434  0.66793  0.56583  1.0000
  C   C1290     1.0  0.12737  0.69462  0.53964  1.0000
  C   C1291     1.0  0.13745  0.70664  0.53877  1.0000
  C   C1292     1.0  0.22118  0.84804  0.61736  1.0000
  C   C1293     1.0  0.19897  0.80587  0.50385  1.0000
  H   H1024     1.0  0.09725  0.87483  0.94977  1.0000
  C   C1294     1.0  0.20800  0.66478  0.94000  1.0000
  H   H1025     1.0  0.22155  0.93269  0.80286  1.0000
  C   C1295     1.0  0.15297  0.89060  0.58057  1.0000
  C   C1296     1.0  0.20211  0.91889  0.58075  1.0000
  H   H1026     1.0  0.11428  0.79401  0.47986  1.0000
  H   H1027     1.0  0.19539  0.79720  0.87870  1.0000
  S   S181      1.0  0.24293  0.90147  0.51449  1.0000
  C   C1297     1.0  0.18341  0.92620  0.77347  1.0000
  C   C1298     1.0  0.18207  0.73381  0.96768  1.0000
  H   H1028     1.0  0.21392  0.70337  0.54733  1.0000
  C   C1299     1.0  0.17327  0.65655  0.97341  1.0000
  S   S182      1.0  0.12565  0.80998  0.96741  1.0000
  H   H1029     1.0  0.11054  0.68496  0.82524  1.0000
  C   C1300     1.0  0.17352  0.70267  0.54212  1.0000
  S   S183      1.0  0.19664  0.72658  0.85529  1.0000
  H   H1030     1.0  0.19316  0.83333  0.78252  1.0000
  H   H1031     1.0  0.21858  0.70363  0.92577  1.0000
  H   H1032     1.0  0.21483  0.73275  0.56400  1.0000
  C   C1301     1.0  0.21267  0.93603  0.71383  1.0000
  H   H1033     1.0  0.20773  0.94303  0.70236  1.0000
  C   C1302     1.0  0.19343  0.83046  0.82493  1.0000
  C   C1303     1.0  0.23330  0.93785  0.79848  1.0000
  C   C1304     1.0  0.18530  0.66516  0.60438  1.0000
  C   C1305     1.0  0.19353  0.67608  0.59037  1.0000
  C   C1306     1.0  0.13070  0.67285  0.78711  1.0000
  C   C1307     1.0  0.20007  0.69017  0.61008  1.0000
  C   C1308     1.0  0.19154  0.67941  0.62424  1.0000
  C   C1309     1.0  0.18441  0.66669  0.62127  1.0000
  P   P42       1.0  0.19003  0.68146  0.64614  1.0000
  C   C1310     1.0  0.16824  0.67953  0.65822  1.0000
  C   C1311     1.0  0.20661  0.66533  0.65587  1.0000
  H   H1034     1.0  0.20514  0.97246  0.58102  1.0000
  C   C1312     1.0  0.15760  0.92209  0.54502  1.0000
  C   C1313     1.0  0.05990  0.81327  0.49302  1.0000
  H   H1035     1.0  0.21300  0.69874  0.96813  1.0000
  C   C1314     1.0  0.20953  0.66620  0.67185  1.0000
  C   C1315     1.0  0.13563  0.78006  0.49198  1.0000
  C   C1316     1.0  0.11969  0.67291  0.80332  1.0000
  C   C1317     1.0  0.20085  0.97756  0.65473  1.0000
  H   H1036     1.0  0.12249  0.66590  0.49777  1.0000
  C   C1318     1.0  0.22701  0.79858  0.94269  1.0000
  C   C1319     1.0  0.19334  0.70270  0.64539  1.0000
  C   C1320     1.0  0.17929  0.71695  0.64545  1.0000
  C   C1321     1.0  0.18226  0.73360  0.64311  1.0000
  C   C1322     1.0  0.19923  0.73613  0.64057  1.0000
  C   C1323     1.0  0.21326  0.72204  0.64051  1.0000
  C   C1324     1.0  0.21033  0.70537  0.64301  1.0000
  C   C1325     1.0  0.23473  0.81446  0.81956  1.0000
  H   H1037     1.0  0.23083  0.70429  0.84883  1.0000
  C   C1326     1.0  0.22738  0.78527  0.63344  1.0000
  H   H1038     1.0  0.14539  0.66316  0.94627  1.0000
  C   C1327     1.0  0.08640  0.86364  0.97595  1.0000
  C   C1328     1.0  0.08564  0.74829  0.80758  1.0000
  C   C1329     1.0  0.22994  0.74868  0.49699  1.0000
  H   H1039     1.0  0.10746  0.71494  0.50578  1.0000
  H   H1040     1.0  0.16790  0.97235  0.63866  1.0000
  H   H1041     1.0  0.20228  0.67675  0.67821  1.0000
  H   H1042     1.0  0.22694  0.88191  0.89706  1.0000
  C   C1330     1.0  0.22435  0.80521  0.83344  1.0000
  C   C1331     1.0  0.19684  0.87922  0.61558  1.0000
  H   H1043     1.0  0.18345  0.79691  0.83012  1.0000
  H   H1044     1.0  0.16650  0.96637  0.74389  1.0000
  H   H1045     1.0  0.16610  0.71540  0.64682  1.0000
  H   H1046     1.0  0.17146  0.74465  0.64265  1.0000
  H   H1047     1.0  0.20153  0.74907  0.63817  1.0000
  H   H1048     1.0  0.22651  0.72399  0.63807  1.0000
  C   C1332     1.0  0.16642  0.96919  0.71697  1.0000
  Fe  Fe93      1.0  0.20837  0.85767  0.95284  1.0000
  C   C1333     1.0  0.20856  0.91544  0.92400  1.0000
  H   H1049     1.0  0.21343  0.96315  0.90558  1.0000
  P   P43       1.0  0.10570  0.82896  0.48740  1.0000
  H   H1050     1.0  0.17425  0.88680  0.71996  1.0000
  H   H1051     1.0  0.20839  0.82569  0.69713  1.0000
  H   H1052     1.0  0.09159  0.72315  0.82356  1.0000
  H   H1053     1.0  0.13645  0.67982  0.84118  1.0000
  C   C1334     1.0  0.22686  0.89046  0.69383  1.0000
  C   C1335     1.0  0.22433  0.87492  0.70519  1.0000
  C   C1336     1.0  0.12183  0.80994  0.49324  1.0000
  H   H1054     1.0  0.17209  0.75907  0.52610  1.0000
  H   H1055     1.0  0.16590  0.76151  0.87595  1.0000
  C   C1337     1.0  0.21207  0.93950  0.89939  1.0000
  C   C1338     1.0  0.13709  0.72138  0.52541  1.0000
  C   C1339     1.0  0.17248  0.77217  0.86976  1.0000
  H   H1056     1.0  0.16199  0.75181  0.55755  1.0000
  C   C1340     1.0  0.14730  0.78055  0.50174  1.0000
  S   S184      1.0  0.20637  0.91745  0.95780  1.0000
  C   C1341     1.0  0.21755  0.87821  0.76352  1.0000
  C   C1342     1.0  0.23525  0.86729  0.71713  1.0000
  C   C1343     1.0  0.17574  0.74856  0.55194  1.0000
  C   C1344     1.0  0.18153  0.75262  0.53407  1.0000
  C   C1345     1.0  0.20847  0.92581  0.93530  1.0000
  H   H1057     1.0  0.17390  0.94739  0.58706  1.0000
  C   C1346     1.0  0.09235  0.76177  0.79562  1.0000
  C   C1347     1.0  0.12176  0.74585  0.79731  1.0000
  H   H1058     1.0  0.22226  0.69543  0.51864  1.0000
  H   H1059     1.0  0.15538  0.79610  0.51494  1.0000
  C   C1348     1.0  0.14876  0.94696  0.55856  1.0000
  C   C1349     1.0  0.21142  0.74200  0.53769  1.0000
  C   C1350     1.0  0.18132  0.85377  0.79660  1.0000
  C   C1351     1.0  0.22639  0.95014  0.62100  1.0000
  C   C1352     1.0  0.18008  0.77910  0.87933  1.0000
  C   C1353     1.0  0.24036  0.85023  0.66839  1.0000
  H   H1060     1.0  0.11781  0.97035  0.72521  1.0000
  C   C1354     1.0  0.17051  0.91127  0.49010  1.0000
  H   H1061     1.0  0.20383  0.81276  0.80728  1.0000
  C   C1355     1.0  0.22629  0.92680  0.55823  1.0000
  C   C1356     1.0  0.18771  0.74081  0.56266  1.0000
  H   H1062     1.0  0.18317  0.73768  0.57652  1.0000
  H   H1063     1.0  0.08113  0.86582  0.54246  1.0000
  H   H1064     1.0  0.15135  0.72904  0.60273  1.0000
  H   H1065     1.0  0.14093  0.74098  0.82622  1.0000
  H   H1066     1.0  0.23098  0.72207  0.51020  1.0000
  H   H1067     1.0  0.16021  0.70599  0.58576  1.0000
  H   H1068     1.0  0.18723  0.89120  0.61542  1.0000
  C   C1357     1.0  0.20880  0.81727  0.68858  1.0000
  C   C1358     1.0  0.18641  0.70476  0.54972  1.0000
  H   H1069     1.0  0.16916  0.69514  0.52011  1.0000
  C   C1359     1.0  0.16897  0.89537  0.57863  1.0000
  H   H1070     1.0  0.20976  0.93841  0.84448  1.0000
  C   C1360     1.0  0.14413  0.71965  0.56695  1.0000
  H   H1071     1.0  0.11559  0.77089  0.78102  1.0000
  H   H1072     1.0  0.14807  0.83459  0.95290  1.0000
  C   C1361     1.0  0.18235  0.70724  0.81269  1.0000
  C   C1362     1.0  0.19938  0.74879  0.52669  1.0000
  H   H1073     1.0  0.17883  0.73383  0.51253  1.0000
  H   H1074     1.0  0.17926  0.77388  0.89304  1.0000
  C   C1363     1.0  0.23541  0.74322  0.86533  1.0000
  C   C1364     1.0  0.14516  0.83331  0.96676  1.0000
  C   C1365     1.0  0.19306  0.93102  0.78294  1.0000
  H   H1075     1.0  0.19302  0.94844  0.79896  1.0000
  S   S185      1.0  0.21356  0.85035  0.92709  1.0000
  H   H1076     1.0  0.21365  0.95827  0.67326  1.0000
  C   C1366     1.0  0.19289  0.94984  0.66786  1.0000
  H   H1077     1.0  0.22470  0.76489  0.62219  1.0000
  C   C1367     1.0  0.20554  0.73785  0.55557  1.0000
  C   C1368     1.0  0.14570  0.73040  0.59163  1.0000
  S   S186      1.0  0.17955  0.68171  0.48800  1.0000
  C   C1369     1.0  0.15089  0.71754  0.58178  1.0000
  C   C1370     1.0  0.18890  0.81392  0.49130  1.0000
  H   H1078     1.0  0.22459  0.78897  0.95435  1.0000
  C   C1371     1.0  0.21203  0.94989  0.91065  1.0000
  C   C1372     1.0  0.23362  0.83467  0.49579  1.0000
  H   H1079     1.0  0.19711  0.89704  0.79813  1.0000
  H   H1080     1.0  0.13640  0.76838  0.48759  1.0000
  H   H1081     1.0  0.23047  0.91085  0.75500  1.0000
  H   H1082     1.0  0.21014  0.95115  0.93721  1.0000
  C   C1373     1.0  0.17856  0.69776  0.52600  1.0000
  C   C1374     1.0  0.23983  0.87375  0.89482  1.0000
  H   H1083     1.0  0.14106  0.90030  0.58013  1.0000
  H   H1084     1.0  0.15720  0.76926  0.50470  1.0000
  C   C1375     1.0  0.18996  0.84313  0.88136  1.0000
  H   H1085     1.0  0.16990  0.78959  0.61236  1.0000
  C   C1376     1.0  0.13042  0.67548  0.49159  1.0000
  H   H1086     1.0  0.21820  0.89131  0.61289  1.0000
  H   H1087     1.0  0.13923  0.94475  0.63656  1.0000
  H   H1088     1.0  0.11639  0.75871  0.56927  1.0000
  H   H1089     1.0  0.13278  0.96930  0.54558  1.0000
  C   C1377     1.0  0.12536  0.89048  0.52391  1.0000
  H   H1090     1.0  0.20468  0.76518  0.96331  1.0000
  C   C1378     1.0  0.17100  0.78931  0.62537  1.0000
  H   H1091     1.0  0.14319  0.79434  0.63478  1.0000
  H   H1092     1.0  0.22534  0.74020  0.53273  1.0000
  C   C1379     1.0  0.08804  0.84100  0.53533  1.0000
  C   C1380     1.0  0.12371  0.96426  0.71422  1.0000
  C   C1381     1.0  0.21445  0.87919  0.61412  1.0000
  C   C1382     1.0  0.15592  0.79199  0.63803  1.0000
  C   C1383     1.0  0.18744  0.78651  0.62935  1.0000
  C   C1384     1.0  0.23324  0.95416  0.80108  1.0000
  C   C1385     1.0  0.20326  0.96168  0.66619  1.0000
  C   C1386     1.0  0.21967  0.81612  0.94262  1.0000
  P   P44       1.0  0.15137  0.70301  0.55410  1.0000
  H   H1093     1.0  0.10787  0.73118  0.84593  1.0000
  H   H1094     1.0  0.13570  0.74497  0.79291  1.0000
  C   C1387     1.0  0.23675  0.81828  0.49197  1.0000
  H   H1095     1.0  0.20212  0.81344  0.51135  1.0000
  H   H1096     1.0  0.18163  0.85154  0.83856  1.0000
  H   H1097     1.0  0.12521  0.73638  0.55194  1.0000
  C   C1388     1.0  0.22522  0.69544  0.90141  1.0000
  C   C1389     1.0  0.21474  0.75940  0.66296  1.0000
  C   C1390     1.0  0.19722  0.74524  0.49118  1.0000
  C   C1391     1.0  0.09831  0.84089  0.50469  1.0000
  C   C1392     1.0  0.19997  0.81268  0.66413  1.0000
  H   H1098     1.0  0.08479  0.83396  0.54850  1.0000
  H   H1099     1.0  0.10901  0.68831  0.52824  1.0000
  C   C1393     1.0  0.15723  0.79235  0.65464  1.0000
  C   C1394     1.0  0.14008  0.92531  0.62264  1.0000
  H   H1100     1.0  0.22338  0.78038  0.85076  1.0000
  H   H1101     1.0  0.19276  0.81779  0.65378  1.0000
  H   H1102     1.0  0.19218  0.83657  0.67330  1.0000
  H   H1103     1.0  0.19488  0.67156  0.91885  1.0000
  C   C1395     1.0  0.11667  0.69764  0.52771  1.0000
  Fe  Fe94      1.0  0.07500  0.75758  0.48312  1.0000
  C   C1396     1.0  0.13360  0.81033  0.50312  1.0000
  C   C1397     1.0  0.19969  0.82345  0.67511  1.0000
  H   H1104     1.0  0.14548  0.79511  0.66428  1.0000
  H   H1105     1.0  0.22002  0.97110  0.70104  1.0000
  C   C1398     1.0  0.21859  0.78942  0.68013  1.0000
  C   C1399     1.0  0.09438  0.83201  0.52182  1.0000
  C   C1400     1.0  0.21892  0.74138  0.86433  1.0000
  H   H1106     1.0  0.14859  0.70721  0.78395  1.0000
  C   C1401     1.0  0.18894  0.78639  0.64617  1.0000
  C   C1402     1.0  0.17364  0.78963  0.65870  1.0000
  C   C1403     1.0  0.19700  0.75535  0.96946  1.0000
  C   C1404     1.0  0.20590  0.88809  0.79054  1.0000
  C   C1405     1.0  0.22681  0.97985  0.69088  1.0000
  H   H1107     1.0  0.20750  0.75099  0.86791  1.0000
  H   H1108     1.0  0.17432  0.79013  0.67164  1.0000
  H   H1109     1.0  0.19641  0.72318  0.81903  1.0000
  H   H1110     1.0  0.17686  0.86282  0.78560  1.0000
  H   H1111     1.0  0.23500  0.92478  0.65902  1.0000
  C   C1406     1.0  0.18245  0.79225  0.84387  1.0000
  C   C1407     1.0  0.20392  0.70225  0.54123  1.0000
  H   H1112     1.0  0.21737  0.87279  0.81210  1.0000
  S   S187      1.0  0.19904  0.67479  0.85847  1.0000
  H   H1113     1.0  0.14412  0.90696  0.60679  1.0000
  H   H1114     1.0  0.11724  0.86857  0.54237  1.0000
  P   P45       1.0  0.16978  0.91794  0.57515  1.0000
  C   C1408     1.0  0.16866  0.95384  0.79069  1.0000
  H   H1115     1.0  0.12587  0.69111  0.58434  1.0000
  C   C1409     1.0  0.14481  0.93981  0.62478  1.0000
  C   C1410     1.0  0.11921  0.68518  0.81274  1.0000
  H   H1116     1.0  0.14959  0.68518  0.76761  1.0000
  C   C1411     1.0  0.20402  0.82766  0.85800  1.0000
  C   C1412     1.0  0.18560  0.94467  0.79168  1.0000
  Fe  Fe95      1.0  0.17207  0.67352  0.85648  1.0000
  H   H1117     1.0  0.13069  0.91913  0.63269  1.0000
  H   H1118     1.0  0.23626  0.83318  0.90107  1.0000
  H   H1119     1.0  0.23659  0.75416  0.86976  1.0000
  C   C1413     1.0  0.21719  0.72733  0.85841  1.0000
  H   H1120     1.0  0.14261  0.97353  0.67173  1.0000
  C   C1414     1.0  0.23358  0.82356  0.91265  1.0000
  H   H1121     1.0  0.07239  0.82071  0.50930  1.0000
  S   S188      1.0  0.24054  0.76955  0.56206  1.0000
  C   C1415     1.0  0.14055  0.69763  0.78953  1.0000
  C   C1416     1.0  0.12196  0.70595  0.84106  1.0000
  C   C1417     1.0  0.12303  0.79472  0.48761  1.0000
  H   H1122     1.0  0.21144  0.82010  0.95409  1.0000
  C   C1418     1.0  0.13966  0.95609  0.54546  1.0000
  H   H1123     1.0  0.20261  0.67707  0.94390  1.0000
  C   C1419     1.0  0.22676  0.86358  0.61506  1.0000
  C   C1420     1.0  0.16886  0.73404  0.82244  1.0000
  S   S189      1.0  0.22735  0.86985  0.95886  1.0000
  C   C1421     1.0  0.22102  0.84032  0.87026  1.0000
  C   C1422     1.0  0.23379  0.66282  0.54979  1.0000
  C   C1423     1.0  0.20868  0.69778  0.52506  1.0000
  H   H1124     1.0  0.19380  0.69731  0.80989  1.0000
  H   H1125     1.0  0.23179  0.82674  0.84955  1.0000
  C   C1424     1.0  0.23186  0.74958  0.66034  1.0000
  C   C1425     1.0  0.11166  0.71762  0.85146  1.0000
  H   H1126     1.0  0.14848  0.92506  0.52168  1.0000
  C   C1426     1.0  0.17803  0.85876  0.81246  1.0000
  H   H1127     1.0  0.15331  0.66015  0.50130  1.0000
  C   C1427     1.0  0.20638  0.89047  0.77279  1.0000
  C   C1428     1.0  0.17373  0.77868  0.85205  1.0000
  H   H1128     1.0  0.21412  0.70405  0.89661  1.0000
  H   H1129     1.0  0.21189  0.78194  0.51736  1.0000
  H   H1130     1.0  0.19972  0.69215  0.50490  1.0000
  H   H1131     1.0  0.16511  0.69325  0.80877  1.0000
  P   P46       1.0  0.21003  0.78181  0.65212  1.0000
  C   C1429     1.0  0.22200  0.72454  0.67960  1.0000
  H   H1132     1.0  0.17769  0.86390  0.61934  1.0000
  H   H1133     1.0  0.17051  0.90064  0.50116  1.0000
  C   C1430     1.0  0.11040  0.76052  0.79044  1.0000
  P   P47       1.0  0.12953  0.71325  0.81824  1.0000
  C   C1431     1.0  0.13951  0.94821  0.53217  1.0000
  C   C1432     1.0  0.23129  0.85750  0.54681  1.0000
  C   C1433     1.0  0.14277  0.86696  0.50244  1.0000
  H   H1134     1.0  0.19660  0.91550  0.59435  1.0000
  C   C1434     1.0  0.21830  0.80028  0.69105  1.0000
  C   C1435     1.0  0.15698  0.94772  0.61188  1.0000
  H   H1135     1.0  0.22766  0.84934  0.64878  1.0000
  C   C1436     1.0  0.16013  0.92620  0.59480  1.0000
  C   C1437     1.0  0.19140  0.86375  0.61798  1.0000
  H   H1136     1.0  0.18187  0.92583  0.50134  1.0000
  C   C1438     1.0  0.22937  0.92944  0.64763  1.0000
  S   S190      1.0  0.17351  0.66256  0.83279  1.0000
  H   H1137     1.0  0.17558  0.66905  0.55540  1.0000
  C   C1439     1.0  0.13290  0.86139  0.51872  1.0000
  H   H1138     1.0  0.12779  0.68283  0.54935  1.0000
  C   C1440     1.0  0.13711  0.68426  0.65900  1.0000
  C   C1441     1.0  0.13769  0.96602  0.68412  1.0000
  H   H1139     1.0  0.20645  0.92445  0.78333  1.0000
  H   H1140     1.0  0.19055  0.80355  0.96460  1.0000
  H   H1141     1.0  0.17833  0.84780  0.89031  1.0000
  C   C1442     1.0  0.17700  0.92552  0.49022  1.0000
  H   H1142     1.0  0.12617  0.68919  0.65250  1.0000
  C   C1443     1.0  0.21672  0.92808  0.54574  1.0000
  S   S191      1.0  0.23834  0.87953  0.48801  1.0000
  H   H1143     1.0  0.10830  0.69025  0.89070  1.0000
  C   C1444     1.0  0.19977  0.92487  0.55074  1.0000
  C   C1445     1.0  0.10661  0.71190  0.86929  1.0000
  H   H1144     1.0  0.22957  0.96144  0.61181  1.0000
  H   H1145     1.0  0.19909  0.83621  0.62098  1.0000
  H   H1146     1.0  0.19871  0.78451  0.61915  1.0000
  H   H1147     1.0  0.16088  0.95878  0.61368  1.0000
  C   C1446     1.0  0.17583  0.73050  0.48830  1.0000
  C   C1447     1.0  0.21902  0.92206  0.57573  1.0000
  C   C1448     1.0  0.22883  0.86249  0.78908  1.0000
  C   C1449     1.0  0.22975  0.73030  0.94289  1.0000
  H   H1148     1.0  0.23926  0.92963  0.55435  1.0000
  H   H1149     1.0  0.23048  0.84529  0.67882  1.0000
  C   C1450     1.0  0.22757  0.89868  0.83504  1.0000
  C   C1451     1.0  0.21963  0.92720  0.84159  1.0000
  H   H1150     1.0  0.04909  0.81017  0.50339  1.0000
  C   C1452     1.0  0.23753  0.79743  0.63190  1.0000
  H   H1151     1.0  0.22539  0.79554  0.70150  1.0000
  H   H1152     1.0  0.19023  0.97506  0.61086  1.0000
  C   C1453     1.0  0.20367  0.66172  0.92566  1.0000
  H   H1153     1.0  0.12125  0.67523  0.68357  1.0000
  H   H1154     1.0  0.23005  0.82799  0.81464  1.0000
  S   S192      1.0  0.20641  0.97723  0.83578  1.0000
  H   H1155     1.0  0.22378  0.65381  0.69233  1.0000
  H   H1156     1.0  0.23822  0.85227  0.79506  1.0000
  H   H1157     1.0  0.17821  0.65795  0.63200  1.0000
  C   C1454     1.0  0.07326  0.81919  0.49633  1.0000
  C   C1455     1.0  0.23974  0.97322  0.67790  1.0000
  H   H1158     1.0  0.22794  0.69676  0.48464  1.0000
  S   S193      1.0  0.22125  0.92119  0.48347  1.0000
  C   C1456     1.0  0.24080  0.65254  0.84318  1.0000
  H   H1159     1.0  0.17989  0.65530  0.60208  1.0000
  C   C1457     1.0  0.16341  0.65174  0.57653  1.0000
  H   H1160     1.0  0.23407  0.81686  0.48010  1.0000
  H   H1161     1.0  0.24118  0.96164  0.72887  1.0000
  C   C1458     1.0  0.16089  0.65046  0.82742  1.0000
  C   C1459     1.0  0.18431  0.80405  0.48214  1.0000
  C   C1460     1.0  0.23708  0.92670  0.84140  1.0000
  H   H1162     1.0  0.18675  0.65081  0.97427  1.0000
  H   H1163     1.0  0.24255  0.75520  0.65192  1.0000
  H   H1164     1.0  0.23949  0.87347  0.86865  1.0000
  C   C1461     1.0  0.23795  0.79364  0.92776  1.0000
  C   C1462     1.0  0.24097  0.80614  0.91270  1.0000
  H   H1165     1.0  0.23770  0.85519  0.76425  1.0000
  H   H1166     1.0  0.23934  0.93861  0.70276  1.0000
  H   H1167     1.0  0.24195  0.65936  0.52354  1.0000
  H   H1168     1.0  0.23381  0.65103  0.83412  1.0000
  S   S194      1.0  0.24039  0.98251  0.84713  1.0000
  C   C1463     1.0  0.24044  0.89814  0.69425  1.0000
  H   H1169     1.0  0.08782  0.80406  0.97370  1.0000
  H   H1170     1.0  0.24021  0.93756  0.84440  1.0000
  H   H1171     1.0  0.24357  0.68331  0.93690  1.0000
  H   H1172     1.0  0.24239  0.91012  0.68544  1.0000
  S   S195      1.0  0.21730  0.65088  0.55520  1.0000
  H   H1173     1.0  0.24293  0.87086  0.92071  1.0000
  H   H1174     1.0  0.18532  0.77884  0.47872  1.0000
  C   C1464     1.0  0.24339  0.80372  0.50346  1.0000
  H   H1175     1.0  0.17693  0.65045  0.80195  1.0000
  C   C1465     1.0  0.24392  0.82205  0.52254  1.0000
  C   C1466     1.0  0.24372  0.66544  0.53303  1.0000
  H   H1176     1.0  0.17593  0.64980  0.94890  1.0000
  C   C1467     1.0  0.14907  0.64977  0.59008  1.0000
  C   C1468     1.0  0.13389  0.82248  0.97711  1.0000
  H   H1177     1.0  0.11829  0.90351  0.47838  1.0000
  H   H1178     1.0  0.45865  0.00969  0.21283  1.0000
  C   C1469     1.0  0.47589  0.98496  0.21190  1.0000
  C   C1470     1.0  0.47048  0.00682  0.18661  1.0000
  C   C1471     1.0  0.46752  0.00134  0.20457  1.0000
  H   H1179     1.0  0.46378  0.01943  0.18093  1.0000
  H   H1180     1.0  0.48390  0.00043  0.16216  1.0000
  C   C1472     1.0  0.48194  0.99597  0.17600  1.0000
  Fe  Fe96      1.0  0.39933  0.27214  0.69289  1.0000
  S   S196      1.0  0.39151  0.27559  0.66772  1.0000
  Fe  Fe97      1.0  0.37854  0.24403  0.71044  1.0000
  S   S197      1.0  0.36880  0.24537  0.68669  1.0000
  S   S198      1.0  0.37146  0.22357  0.73364  1.0000
  Fe  Fe98      1.0  0.39623  0.24681  0.67291  1.0000
  S   S199      1.0  0.41049  0.22970  0.65419  1.0000
  Fe  Fe99      1.0  0.36482  0.27403  0.68375  1.0000
  S   S200      1.0  0.40635  0.24319  0.69683  1.0000
  S   S201      1.0  0.37217  0.27280  0.70887  1.0000
  Fe  Fe100     1.0  0.39289  0.21079  0.82195  1.0000
  S   S202      1.0  0.37202  0.21614  0.84501  1.0000
  S   S203      1.0  0.39740  0.23074  0.79766  1.0000
  Fe  Fe101     1.0  0.40616  0.17425  0.83957  1.0000
  S   S204      1.0  0.38660  0.17690  0.86410  1.0000
  S   S205      1.0  0.42528  0.14935  0.83641  1.0000
  Fe  Fe102     1.0  0.36757  0.18950  0.84644  1.0000
  S   S206      1.0  0.34091  0.18240  0.85127  1.0000
  Fe  Fe103     1.0  0.39340  0.20296  0.86004  1.0000
  S   S207      1.0  0.39817  0.21259  0.88198  1.0000
  S   S208      1.0  0.38698  0.18551  0.82216  1.0000
  S   S209      1.0  0.41434  0.19926  0.83688  1.0000
  Fe  Fe104     1.0  0.26952  0.11251  0.80060  1.0000
  Fe  Fe105     1.0  0.30383  0.10426  0.77603  1.0000
  S   S210      1.0  0.30762  0.13139  0.76997  1.0000
  S   S211      1.0  0.32592  0.08490  0.76464  1.0000
  Fe  Fe106     1.0  0.29946  0.13060  0.79847  1.0000
  S   S212      1.0  0.32043  0.14043  0.80546  1.0000
  Fe  Fe107     1.0  0.27941  0.13903  0.76872  1.0000
  S   S213      1.0  0.29715  0.10254  0.80461  1.0000
  S   S214      1.0  0.27625  0.11198  0.77226  1.0000
  H   H1181     1.0  0.46364  0.09328  0.86670  1.0000
  C   C1473     1.0  0.24443  0.08112  0.82497  1.0000
  H   H1182     1.0  0.46849  0.09408  0.91054  1.0000
  H   H1183     1.0  0.28986  0.27362  0.75247  1.0000
  H   H1184     1.0  0.47045  0.30264  0.60739  1.0000
  H   H1185     1.0  0.29388  0.27849  0.72062  1.0000
  H   H1186     1.0  0.47085  0.12586  0.84553  1.0000
  S   S215      1.0  0.45553  0.24398  0.89896  1.0000
  H   H1187     1.0  0.43813  0.08678  0.82005  1.0000
  C   C1474     1.0  0.35886  0.98615  0.62762  1.0000
  C   C1475     1.0  0.32738  0.30335  0.68852  1.0000
  C   C1476     1.0  0.28725  0.04200  0.77980  1.0000
  S   S216      1.0  0.38063  0.99692  0.69492  1.0000
  Fe  Fe108     1.0  0.33730  0.02877  0.70476  1.0000
  S   S217      1.0  0.35750  0.03446  0.68098  1.0000
  S   S218      1.0  0.31260  0.04759  0.71177  1.0000
  Fe  Fe109     1.0  0.35951  0.00708  0.67910  1.0000
  S   S219      1.0  0.36343  0.99844  0.65372  1.0000
  Fe  Fe110     1.0  0.37652  0.02428  0.69888  1.0000
  S   S220      1.0  0.39439  0.04319  0.69536  1.0000
  C   C1477     1.0  0.29864  0.00829  0.80239  1.0000
  S   S221      1.0  0.35596  0.01996  0.72269  1.0000
  C   C1478     1.0  0.46671  0.29723  0.62101  1.0000
  C   C1479     1.0  0.49026  0.11082  0.71949  1.0000
  C   C1480     1.0  0.48041  0.16101  0.63639  1.0000
  S   S222      1.0  0.24698  0.98766  0.59488  1.0000
  C   C1481     1.0  0.47862  0.20304  0.70641  1.0000
  Fe  Fe111     1.0  0.25898  0.00941  0.59594  1.0000
  H   H1188     1.0  0.40554  0.26138  0.81817  1.0000
  S   S223      1.0  0.28390  0.00073  0.57741  1.0000
  C   C1482     1.0  0.42365  0.03819  0.65882  1.0000
  Fe  Fe112     1.0  0.44616  0.07866  0.74719  1.0000
  S   S224      1.0  0.43608  0.10628  0.73550  1.0000
  S   S225      1.0  0.43727  0.05465  0.74590  1.0000
  Fe  Fe113     1.0  0.43324  0.11044  0.76228  1.0000
  S   S226      1.0  0.40833  0.12342  0.77739  1.0000
  S   S227      1.0  0.44234  0.08295  0.77410  1.0000
  S   S228      1.0  0.47727  0.25250  0.60277  1.0000
  H   H1189     1.0  0.44384  0.13718  0.70537  1.0000
  C   C1483     1.0  0.40498  0.04683  0.71032  1.0000
  C   C1484     1.0  0.41248  0.06153  0.70603  1.0000
  C   C1485     1.0  0.42187  0.06447  0.71705  1.0000
  C   C1486     1.0  0.42416  0.05253  0.73233  1.0000
  C   C1487     1.0  0.41657  0.03788  0.73667  1.0000
  C   C1488     1.0  0.40684  0.03514  0.72585  1.0000
  H   H1190     1.0  0.41118  0.07059  0.69400  1.0000
  H   H1191     1.0  0.42780  0.07567  0.71347  1.0000
  H   H1192     1.0  0.41837  0.02851  0.74841  1.0000
  H   H1193     1.0  0.40118  0.02378  0.72931  1.0000
  C   C1489     1.0  0.35016  0.99469  0.64119  1.0000
  P   P48       1.0  0.44465  0.00861  0.67499  1.0000
  C   C1490     1.0  0.40195  0.01946  0.65290  1.0000
  C   C1491     1.0  0.46906  0.04567  0.67799  1.0000
  C   C1492     1.0  0.32260  0.99708  0.63248  1.0000
  C   C1493     1.0  0.33186  1.00000  0.64377  1.0000
  H   H1194     1.0  0.47415  0.12521  0.81485  1.0000
  C   C1494     1.0  0.24541  0.04875  0.60915  1.0000
  H   H1195     1.0  0.30861  0.00149  0.63420  1.0000
  H   H1196     1.0  0.32485  0.00641  0.65429  1.0000
  C   C1495     1.0  0.46599  0.18775  0.80231  1.0000
  H   H1197     1.0  0.38825  0.28427  0.58589  1.0000
  H   H1198     1.0  0.25132  0.13538  0.74545  1.0000
  C   C1496     1.0  0.37131  0.25027  0.87212  1.0000
  H   H1199     1.0  0.41710  0.04844  0.84560  1.0000
  Fe  Fe114     1.0  0.29332  0.98613  0.60185  1.0000
  C   C1497     1.0  0.47096  0.29879  0.83712  1.0000
  H   H1200     1.0  0.27969  0.99629  0.78565  1.0000
  C   C1498     1.0  0.32170  0.07619  0.74892  1.0000
  C   C1499     1.0  0.33577  0.06800  0.73795  1.0000
  C   C1500     1.0  0.33291  0.05995  0.72600  1.0000
  C   C1501     1.0  0.31597  0.05955  0.72529  1.0000
  C   C1502     1.0  0.30184  0.06819  0.73590  1.0000
  C   C1503     1.0  0.30468  0.07664  0.74763  1.0000
  H   H1201     1.0  0.34893  0.06785  0.73862  1.0000
  H   H1202     1.0  0.34387  0.05449  0.71699  1.0000
  H   H1203     1.0  0.28874  0.06789  0.73540  1.0000
  H   H1204     1.0  0.29373  0.08291  0.75607  1.0000
  H   H1205     1.0  0.28049  0.17178  0.71056  1.0000
  H   H1206     1.0  0.45156  0.27431  0.58482  1.0000
  H   H1207     1.0  0.36817  0.23819  0.87195  1.0000
  C   C1504     1.0  0.33548  0.17021  0.83883  1.0000
  C   C1505     1.0  0.31819  0.16793  0.84188  1.0000
  C   C1506     1.0  0.31325  0.15890  0.83184  1.0000
  C   C1507     1.0  0.32561  0.15198  0.81863  1.0000
  C   C1508     1.0  0.34290  0.15419  0.81566  1.0000
  C   C1509     1.0  0.34783  0.16315  0.82571  1.0000
  H   H1208     1.0  0.30850  0.17337  0.85196  1.0000
  H   H1209     1.0  0.29990  0.15740  0.83425  1.0000
  H   H1210     1.0  0.35252  0.14908  0.80536  1.0000
  H   H1211     1.0  0.36116  0.16475  0.82315  1.0000
  C   C1510     1.0  0.41981  0.13969  0.82205  1.0000
  C   C1511     1.0  0.43290  0.12921  0.81228  1.0000
  C   C1512     1.0  0.42918  0.12322  0.79923  1.0000
  C   C1513     1.0  0.41235  0.12789  0.79578  1.0000
  C   C1514     1.0  0.39897  0.13744  0.80628  1.0000
  C   C1515     1.0  0.40269  0.14318  0.81950  1.0000
  H   H1212     1.0  0.44605  0.12626  0.81435  1.0000
  H   H1213     1.0  0.43951  0.11550  0.79148  1.0000
  H   H1214     1.0  0.38587  0.14098  0.80380  1.0000
  H   H1215     1.0  0.39229  0.15038  0.82764  1.0000
  C   C1516     1.0  0.41479  0.22194  0.88469  1.0000
  C   C1517     1.0  0.41170  0.22813  0.89990  1.0000
  C   C1518     1.0  0.42431  0.23484  0.90368  1.0000
  C   C1519     1.0  0.44042  0.23561  0.89238  1.0000
  C   C1520     1.0  0.44371  0.22955  0.87694  1.0000
  C   C1521     1.0  0.43088  0.22275  0.87306  1.0000
  H   H1216     1.0  0.39945  0.22756  0.90901  1.0000
  H   H1217     1.0  0.42156  0.23939  0.91563  1.0000
  H   H1218     1.0  0.45617  0.22989  0.86817  1.0000
  H   H1219     1.0  0.43353  0.21789  0.86131  1.0000
  H   H1220     1.0  0.40616  0.19971  0.68104  1.0000
  C   C1522     1.0  0.37999  0.22423  0.75113  1.0000
  C   C1523     1.0  0.37434  0.21464  0.76752  1.0000
  C   C1524     1.0  0.37973  0.21639  0.78193  1.0000
  C   C1525     1.0  0.39126  0.22730  0.77985  1.0000
  C   C1526     1.0  0.39765  0.23610  0.76331  1.0000
  C   C1527     1.0  0.39189  0.23474  0.74897  1.0000
  H   H1221     1.0  0.36520  0.20646  0.76917  1.0000
  H   H1222     1.0  0.37444  0.20981  0.79466  1.0000
  H   H1223     1.0  0.40688  0.24419  0.76168  1.0000
  H   H1224     1.0  0.39646  0.24202  0.73631  1.0000
  C   C1528     1.0  0.42904  0.23641  0.64030  1.0000
  C   C1529     1.0  0.43098  0.25358  0.63686  1.0000
  C   C1530     1.0  0.44587  0.25856  0.62544  1.0000
  C   C1531     1.0  0.45886  0.24636  0.61755  1.0000
  C   C1532     1.0  0.45689  0.22923  0.62114  1.0000
  C   C1533     1.0  0.44210  0.22428  0.63253  1.0000
  H   H1225     1.0  0.42098  0.26305  0.64281  1.0000
  H   H1226     1.0  0.44721  0.27184  0.62259  1.0000
  H   H1227     1.0  0.46666  0.21971  0.61507  1.0000
  H   H1228     1.0  0.44099  0.21090  0.63553  1.0000
  C   C1534     1.0  0.46263  0.99930  0.65962  1.0000
  C   C1535     1.0  0.39500  0.24455  0.57491  1.0000
  H   H1229     1.0  0.32630  0.20534  0.82177  1.0000
  C   C1536     1.0  0.49024  0.22141  0.65959  1.0000
  C   C1537     1.0  0.45927  0.31414  0.81158  1.0000
  H   H1230     1.0  0.35120  0.30864  0.70798  1.0000
  C   C1538     1.0  0.29793  0.00075  0.69238  1.0000
  C   C1539     1.0  0.30460  0.21381  0.80879  1.0000
  S   S229      1.0  0.27105  0.14057  0.79677  1.0000
  H   H1231     1.0  0.46315  0.23869  0.83497  1.0000
  C   C1540     1.0  0.42227  0.26335  0.83426  1.0000
  S   S230      1.0  0.47886  0.17089  0.61495  1.0000
  H   H1232     1.0  0.40238  0.98651  0.72583  1.0000
  C   C1541     1.0  0.28570  0.99946  0.66872  1.0000
  S   S231      1.0  0.47378  0.08216  0.74118  1.0000
  H   H1233     1.0  0.25818  0.17753  0.79813  1.0000
  C   C1542     1.0  0.27997  0.13417  0.64527  1.0000
  C   C1543     1.0  0.29331  0.14294  0.63613  1.0000
  C   C1544     1.0  0.31058  0.13543  0.63754  1.0000
  C   C1545     1.0  0.31448  0.11922  0.64820  1.0000
  C   C1546     1.0  0.30106  0.11050  0.65772  1.0000
  C   C1547     1.0  0.28380  0.11799  0.65599  1.0000
  P   P49       1.0  0.30613  0.08920  0.67077  1.0000
  C   C1548     1.0  0.30903  0.07328  0.65787  1.0000
  C   C1549     1.0  0.32638  0.08741  0.67756  1.0000
  C   C1550     1.0  0.34249  0.08102  0.66744  1.0000
  C   C1551     1.0  0.35814  0.07942  0.67263  1.0000
  C   C1552     1.0  0.35795  0.08477  0.68761  1.0000
  C   C1553     1.0  0.34213  0.09194  0.69727  1.0000
  C   C1554     1.0  0.32639  0.09308  0.69243  1.0000
  C   C1555     1.0  0.31906  0.05674  0.66242  1.0000
  C   C1556     1.0  0.32236  0.04459  0.65205  1.0000
  C   C1557     1.0  0.31484  0.04853  0.63752  1.0000
  C   C1558     1.0  0.30410  0.06471  0.63336  1.0000
  C   C1559     1.0  0.30121  0.07707  0.64347  1.0000
  C   C1560     1.0  0.28836  0.08599  0.68915  1.0000
  C   C1561     1.0  0.28142  0.09831  0.69967  1.0000
  C   C1562     1.0  0.26843  0.09519  0.71442  1.0000
  C   C1563     1.0  0.26158  0.08029  0.71828  1.0000
  C   C1564     1.0  0.26804  0.06821  0.70763  1.0000
  C   C1565     1.0  0.28130  0.07108  0.69311  1.0000
  H   H1234     1.0  0.26656  0.14006  0.64434  1.0000
  H   H1235     1.0  0.29021  0.15554  0.62799  1.0000
  H   H1236     1.0  0.32095  0.14215  0.63034  1.0000
  H   H1237     1.0  0.32795  0.11356  0.64895  1.0000
  H   H1238     1.0  0.27325  0.11140  0.66298  1.0000
  H   H1239     1.0  0.34303  0.07704  0.65561  1.0000
  H   H1240     1.0  0.37043  0.07367  0.66525  1.0000
  H   H1241     1.0  0.37005  0.08304  0.69188  1.0000
  H   H1242     1.0  0.34197  0.09588  0.70901  1.0000
  H   H1243     1.0  0.31437  0.09802  0.70060  1.0000
  H   H1244     1.0  0.32442  0.05334  0.67397  1.0000
  C   C1566     1.0  0.29336  0.26267  0.74618  1.0000
  C   C1567     1.0  0.39381  0.25379  0.54444  1.0000
  H   H1245     1.0  0.29791  0.06770  0.62234  1.0000
  H   H1246     1.0  0.29271  0.08943  0.64008  1.0000
  H   H1247     1.0  0.28604  0.11027  0.69655  1.0000
  H   H1248     1.0  0.26379  0.10424  0.72297  1.0000
  H   H1249     1.0  0.24658  0.99310  0.74489  1.0000
  H   H1250     1.0  0.26281  0.05662  0.71059  1.0000
  H   H1251     1.0  0.28625  0.06139  0.68528  1.0000
  H   H1252     1.0  0.30436  0.01206  0.72318  1.0000
  C   C1568     1.0  0.43660  0.19777  0.79710  1.0000
  C   C1569     1.0  0.44857  0.18616  0.80640  1.0000
  C   C1570     1.0  0.45959  0.21221  0.77909  1.0000
  C   C1571     1.0  0.44199  0.21103  0.78380  1.0000
  P   P50       1.0  0.46664  0.22965  0.76254  1.0000
  C   C1572     1.0  0.45489  0.23727  0.74510  1.0000
  H   H1253     1.0  0.49291  0.19423  0.66087  1.0000
  C   C1573     1.0  0.45365  0.26162  0.77253  1.0000
  C   C1574     1.0  0.42977  0.24313  0.81491  1.0000
  C   C1575     1.0  0.44574  0.22671  0.74120  1.0000
  C   C1576     1.0  0.43859  0.23201  0.72634  1.0000
  C   C1577     1.0  0.44111  0.24752  0.71497  1.0000
  C   C1578     1.0  0.45027  0.25802  0.71868  1.0000
  C   C1579     1.0  0.45721  0.25291  0.73363  1.0000
  H   H1254     1.0  0.38800  0.04403  0.64135  1.0000
  H   H1255     1.0  0.39239  0.24864  0.85028  1.0000
  C   C1580     1.0  0.48816  0.22117  0.75160  1.0000
  C   C1581     1.0  0.38391  0.22775  0.56098  1.0000
  C   C1582     1.0  0.42176  0.04184  0.89100  1.0000
  H   H1256     1.0  0.30387  0.99436  0.70342  1.0000
  H   H1257     1.0  0.42301  0.19672  0.80034  1.0000
  H   H1258     1.0  0.43233  0.22039  0.77737  1.0000
  H   H1259     1.0  0.43411  0.22725  0.57885  1.0000
  C   C1583     1.0  0.43880  0.25699  0.83861  1.0000
  H   H1260     1.0  0.44441  0.21422  0.74929  1.0000
  H   H1261     1.0  0.43125  0.22402  0.72350  1.0000
  H   H1262     1.0  0.43601  0.25149  0.70323  1.0000
  H   H1263     1.0  0.45203  0.27012  0.70986  1.0000
  H   H1264     1.0  0.46476  0.26098  0.73599  1.0000
  H   H1265     1.0  0.40972  0.26990  0.73044  1.0000
  H   H1266     1.0  0.27266  0.02297  0.81073  1.0000
  H   H1267     1.0  0.38597  0.22085  0.58768  1.0000
  C   C1584     1.0  0.31768  0.19562  0.74682  1.0000
  C   C1585     1.0  0.31297  0.18118  0.74423  1.0000
  C   C1586     1.0  0.32414  0.17128  0.73261  1.0000
  C   C1587     1.0  0.34013  0.17560  0.72366  1.0000
  C   C1588     1.0  0.34505  0.18973  0.72642  1.0000
  C   C1589     1.0  0.33383  0.19978  0.73785  1.0000
  C   C1590     1.0  0.40023  0.08118  0.80704  1.0000
  C   C1591     1.0  0.32487  0.02307  0.77447  1.0000
  C   C1592     1.0  0.42502  0.31067  0.70781  1.0000
  S   S232      1.0  0.48437  0.27762  0.89510  1.0000
  H   H1268     1.0  0.27277  0.21877  0.74319  1.0000
  H   H1269     1.0  0.30061  0.17759  0.75092  1.0000
  H   H1270     1.0  0.32029  0.16027  0.73059  1.0000
  H   H1271     1.0  0.34873  0.16794  0.71468  1.0000
  C   C1593     1.0  0.41251  0.30337  0.70468  1.0000
  C   C1594     1.0  0.25135  0.13835  0.71827  1.0000
  C   C1595     1.0  0.28059  0.99279  0.76025  1.0000
  H   H1272     1.0  0.25309  0.08523  0.78038  1.0000
  C   C1596     1.0  0.33782  0.26207  0.74829  1.0000
  C   C1597     1.0  0.33626  0.24682  0.76045  1.0000
  C   C1598     1.0  0.34022  0.24469  0.77662  1.0000
  C   C1599     1.0  0.34625  0.25754  0.78049  1.0000
  C   C1600     1.0  0.34792  0.27294  0.76834  1.0000
  C   C1601     1.0  0.34356  0.27515  0.75220  1.0000
  P   P51       1.0  0.35690  0.28913  0.77277  1.0000
  C   C1602     1.0  0.35522  0.28584  0.79581  1.0000
  C   C1603     1.0  0.37973  0.28696  0.76254  1.0000
  C   C1604     1.0  0.29330  0.98798  0.83587  1.0000
  H   H1273     1.0  0.36500  0.99964  0.75994  1.0000
  C   C1605     1.0  0.42808  0.29327  0.58156  1.0000
  C   C1606     1.0  0.47857  0.24365  0.78410  1.0000
  C   C1607     1.0  0.38673  0.27821  0.74881  1.0000
  C   C1608     1.0  0.36742  0.27287  0.80382  1.0000
  C   C1609     1.0  0.36546  0.26906  0.82177  1.0000
  C   C1610     1.0  0.35156  0.27847  0.83189  1.0000
  C   C1611     1.0  0.33956  0.29169  0.82401  1.0000
  C   C1612     1.0  0.34130  0.29532  0.80603  1.0000
  C   C1613     1.0  0.48486  0.27611  0.68143  1.0000
  H   H1274     1.0  0.48948  0.27703  0.62080  1.0000
  C   C1614     1.0  0.38676  0.23955  0.54536  1.0000
  H   H1275     1.0  0.38557  0.30079  0.77892  1.0000
  H   H1276     1.0  0.25413  0.06685  0.76002  1.0000
  C   C1615     1.0  0.25365  0.20479  0.75977  1.0000
  H   H1277     1.0  0.33506  0.26346  0.73568  1.0000
  H   H1278     1.0  0.33256  0.23642  0.75713  1.0000
  H   H1279     1.0  0.33936  0.23275  0.78593  1.0000
  H   H1280     1.0  0.34992  0.25512  0.79285  1.0000
  H   H1281     1.0  0.34507  0.28676  0.74247  1.0000
  S   S233      1.0  0.25338  0.07963  0.64556  1.0000
  C   C1616     1.0  0.26850  0.15828  0.69875  1.0000
  H   H1282     1.0  0.39344  0.01224  0.65074  1.0000
  C   C1617     1.0  0.27452  0.06826  0.79105  1.0000
  H   H1283     1.0  0.37867  0.27261  0.74397  1.0000
  H   H1284     1.0  0.37811  0.26526  0.79619  1.0000
  H   H1285     1.0  0.37453  0.25849  0.82778  1.0000
  H   H1286     1.0  0.35001  0.27536  0.84584  1.0000
  H   H1287     1.0  0.33681  0.26111  0.61692  1.0000
  C   C1618     1.0  0.25666  0.05410  0.84253  1.0000
  C   C1619     1.0  0.24456  0.00195  0.66432  1.0000
  C   C1620     1.0  0.47851  0.25645  0.79271  1.0000
  H   H1288     1.0  0.47512  0.17909  0.80987  1.0000
  C   C1621     1.0  0.43773  0.27645  0.58505  1.0000
  C   C1622     1.0  0.41211  0.05773  0.83510  1.0000
  C   C1623     1.0  0.41715  0.29062  0.85438  1.0000
  C   C1624     1.0  0.40978  0.04676  0.65048  1.0000
  H   H1289     1.0  0.45439  0.16383  0.68599  1.0000
  C   C1625     1.0  0.31133  0.99375  0.80733  1.0000
  H   H1290     1.0  0.45960  0.14746  0.64047  1.0000
  C   C1626     1.0  0.25612  0.14174  0.73241  1.0000
  H   H1291     1.0  0.33678  0.19499  0.77091  1.0000
  C   C1627     1.0  0.28562  0.99936  0.77208  1.0000
  C   C1628     1.0  0.29765  0.01033  0.76625  1.0000
  H   H1292     1.0  0.48137  0.09373  0.83698  1.0000
  C   C1629     1.0  0.39559  0.10332  0.85514  1.0000
  H   H1293     1.0  0.25196  0.02152  0.76213  1.0000
  C   C1630     1.0  0.39480  0.07066  0.88596  1.0000
  H   H1294     1.0  0.47083  0.28848  0.84833  1.0000
  C   C1631     1.0  0.44591  0.23653  0.81974  1.0000
  H   H1295     1.0  0.45486  0.22600  0.81436  1.0000
  C   C1632     1.0  0.26261  0.07324  0.78011  1.0000
  C   C1633     1.0  0.40719  0.04447  0.90427  1.0000
  C   C1634     1.0  0.47236  0.17411  0.71327  1.0000
  H   H1296     1.0  0.42881  0.28299  0.74056  1.0000
  C   C1635     1.0  0.29373  0.99090  0.68280  1.0000
  C   C1636     1.0  0.38506  0.25630  0.85978  1.0000
  H   H1297     1.0  0.39592  0.25543  0.62759  1.0000
  C   C1637     1.0  0.48831  0.11830  0.87393  1.0000
  C   C1638     1.0  0.41572  0.01086  0.66132  1.0000
  H   H1298     1.0  0.48789  0.07038  0.89661  1.0000
  C   C1639     1.0  0.33766  0.00938  0.76867  1.0000
  C   C1640     1.0  0.47704  0.09709  0.89811  1.0000
  H   H1299     1.0  0.42066  0.26863  0.87547  1.0000
  C   C1641     1.0  0.46642  0.24632  0.77357  1.0000
  C   C1642     1.0  0.29573  0.26544  0.72822  1.0000
  C   C1643     1.0  0.43929  0.16918  0.87252  1.0000
  C   C1644     1.0  0.43943  0.17676  0.88600  1.0000
  C   C1645     1.0  0.45459  0.17343  0.89253  1.0000
  C   C1646     1.0  0.46962  0.16241  0.88566  1.0000
  C   C1647     1.0  0.46970  0.15496  0.87188  1.0000
  C   C1648     1.0  0.45433  0.15831  0.86547  1.0000
  H   H1300     1.0  0.34663  0.19318  0.79757  1.0000
  H   H1301     1.0  0.26870  0.07645  0.83331  1.0000
  H   H1302     1.0  0.43142  0.04582  0.66146  1.0000
  H   H1303     1.0  0.32037  0.30229  0.76899  1.0000
  H   H1304     1.0  0.46630  0.28184  0.79759  1.0000
  C   C1649     1.0  0.25785  0.14637  0.70138  1.0000
  C   C1650     1.0  0.41800  0.25651  0.82207  1.0000
  C   C1651     1.0  0.48354  0.14441  0.67038  1.0000
  C   C1652     1.0  0.38022  0.28070  0.87338  1.0000
  C   C1653     1.0  0.28733  0.99732  0.74260  1.0000
  H   H1305     1.0  0.45137  0.24953  0.66732  1.0000
  C   C1654     1.0  0.32765  0.20045  0.78123  1.0000
  H   H1306     1.0  0.43736  0.24951  0.59216  1.0000
  C   C1655     1.0  0.36671  0.27443  0.88589  1.0000
  C   C1656     1.0  0.35534  0.01016  0.76474  1.0000
  H   H1307     1.0  0.42748  0.17175  0.86752  1.0000
  H   H1308     1.0  0.42775  0.18520  0.89140  1.0000
  H   H1309     1.0  0.45461  0.17946  0.90293  1.0000
  H   H1310     1.0  0.24581  0.02711  0.79173  1.0000
  H   H1311     1.0  0.45377  0.15264  0.85506  1.0000
  C   C1657     1.0  0.39719  0.29596  0.82707  1.0000
  H   H1312     1.0  0.42633  0.23781  0.80566  1.0000
  C   C1658     1.0  0.28650  0.05260  0.79117  1.0000
  H   H1313     1.0  0.39968  0.10095  0.82016  1.0000
  C   C1659     1.0  0.38947  0.27172  0.86017  1.0000
  C   C1660     1.0  0.46068  0.23761  0.66610  1.0000
  C   C1661     1.0  0.48392  0.20631  0.66248  1.0000
  P   P52       1.0  0.30216  0.02118  0.78078  1.0000
  C   C1662     1.0  0.46063  0.09028  0.82688  1.0000
  C   C1663     1.0  0.41174  0.26496  0.58916  1.0000
  H   H1314     1.0  0.38425  0.08177  0.88438  1.0000
  C   C1664     1.0  0.41024  0.29602  0.58193  1.0000
  C   C1665     1.0  0.30464  0.01450  0.74856  1.0000
  H   H1315     1.0  0.45901  0.10818  0.69611  1.0000
  H   H1316     1.0  0.40717  0.06071  0.64672  1.0000
  C   C1666     1.0  0.42960  0.26233  0.58903  1.0000
  H   H1317     1.0  0.33075  0.03214  0.65535  1.0000
  C   C1667     1.0  0.39679  0.08468  0.76042  1.0000
  C   C1668     1.0  0.39136  0.07071  0.75801  1.0000
  C   C1669     1.0  0.38028  0.07338  0.74655  1.0000
  C   C1670     1.0  0.37431  0.09008  0.73776  1.0000
  C   C1671     1.0  0.37918  0.10428  0.74067  1.0000
  C   C1672     1.0  0.39070  0.10139  0.75186  1.0000
  P   P53       1.0  0.37302  0.12573  0.72834  1.0000
  C   C1673     1.0  0.39054  0.12967  0.70997  1.0000
  C   C1674     1.0  0.35282  0.12783  0.72140  1.0000
  C   C1675     1.0  0.35066  0.13632  0.70458  1.0000
  C   C1676     1.0  0.33481  0.13826  0.69960  1.0000
  C   C1677     1.0  0.32105  0.13159  0.71127  1.0000
  C   C1678     1.0  0.32324  0.12275  0.72784  1.0000
  C   C1679     1.0  0.33902  0.12089  0.73289  1.0000
  C   C1680     1.0  0.39131  0.14662  0.70087  1.0000
  C   C1681     1.0  0.40503  0.14975  0.68690  1.0000
  C   C1682     1.0  0.41818  0.13605  0.68199  1.0000
  C   C1683     1.0  0.41749  0.11915  0.69094  1.0000
  C   C1684     1.0  0.40370  0.11594  0.70482  1.0000
  C   C1685     1.0  0.37000  0.14075  0.74236  1.0000
  C   C1686     1.0  0.38372  0.14859  0.74208  1.0000
  C   C1687     1.0  0.38147  0.15994  0.75310  1.0000
  C   C1688     1.0  0.36572  0.16327  0.76478  1.0000
  C   C1689     1.0  0.35213  0.15536  0.76535  1.0000
  C   C1690     1.0  0.35428  0.14407  0.75430  1.0000
  H   H1318     1.0  0.40625  0.08249  0.76843  1.0000
  H   H1319     1.0  0.39645  0.05772  0.76436  1.0000
  H   H1320     1.0  0.37686  0.06239  0.74402  1.0000
  H   H1321     1.0  0.36617  0.09180  0.72854  1.0000
  H   H1322     1.0  0.39534  0.11198  0.75366  1.0000
  H   H1323     1.0  0.36110  0.14153  0.69526  1.0000
  H   H1324     1.0  0.33314  0.14492  0.68667  1.0000
  H   H1325     1.0  0.30872  0.13313  0.70747  1.0000
  H   H1326     1.0  0.31269  0.11726  0.73681  1.0000
  H   H1327     1.0  0.34044  0.11399  0.74580  1.0000
  H   H1328     1.0  0.38135  0.15742  0.70464  1.0000
  H   H1329     1.0  0.40547  0.16283  0.67986  1.0000
  H   H1330     1.0  0.42887  0.13853  0.67122  1.0000
  H   H1331     1.0  0.42763  0.10848  0.68711  1.0000
  H   H1332     1.0  0.40344  0.10272  0.71152  1.0000
  H   H1333     1.0  0.39631  0.14567  0.73369  1.0000
  H   H1334     1.0  0.39205  0.16593  0.75287  1.0000
  H   H1335     1.0  0.36416  0.17177  0.77357  1.0000
  H   H1336     1.0  0.33994  0.15782  0.77451  1.0000
  H   H1337     1.0  0.34364  0.13793  0.75531  1.0000
  H   H1338     1.0  0.28533  0.22055  0.79308  1.0000
  H   H1339     1.0  0.46873  0.12451  0.89626  1.0000
  C   C1691     1.0  0.33333  0.19937  0.79637  1.0000
  C   C1692     1.0  0.34976  0.25975  0.61922  1.0000
  C   C1693     1.0  0.41743  0.19985  0.62346  1.0000
  C   C1694     1.0  0.43320  0.19352  0.61309  1.0000
  C   C1695     1.0  0.43918  0.20351  0.59710  1.0000
  C   C1696     1.0  0.41376  0.22651  0.60197  1.0000
  C   C1697     1.0  0.40774  0.21627  0.61795  1.0000
  H   H1340     1.0  0.47212  0.05264  0.70070  1.0000
  H   H1341     1.0  0.44217  0.31130  0.87607  1.0000
  S   S234      1.0  0.27122  0.16019  0.74690  1.0000
  C   C1698     1.0  0.46799  0.09201  0.83992  1.0000
  C   C1699     1.0  0.42293  0.05367  0.87524  1.0000
  H   H1342     1.0  0.25136  0.01051  0.65390  1.0000
  H   H1343     1.0  0.41298  0.19228  0.63602  1.0000
  H   H1344     1.0  0.44099  0.18101  0.61754  1.0000
  H   H1345     1.0  0.39571  0.22093  0.62637  1.0000
  H   H1346     1.0  0.28685  0.18579  0.79009  1.0000
  C   C1700     1.0  0.29884  0.21483  0.79373  1.0000
  C   C1701     1.0  0.48150  0.13259  0.81851  1.0000
  C   C1702     1.0  0.30024  0.23158  0.74787  1.0000
  H   H1347     1.0  0.45305  0.19752  0.71640  1.0000
  C   C1703     1.0  0.43476  0.30575  0.87030  1.0000
  H   H1348     1.0  0.43869  0.30657  0.70240  1.0000
  C   C1704     1.0  0.37279  0.30661  0.63444  1.0000
  C   C1705     1.0  0.42014  0.30742  0.84723  1.0000
  C   C1706     1.0  0.45053  0.24363  0.83138  1.0000
  H   H1349     1.0  0.48762  0.13318  0.73202  1.0000
  H   H1350     1.0  0.26673  0.04654  0.84950  1.0000
  H   H1351     1.0  0.44407  0.28641  0.78004  1.0000
  C   C1707     1.0  0.36064  0.11001  0.80958  1.0000
  C   C1708     1.0  0.36157  0.10927  0.79247  1.0000
  C   C1709     1.0  0.35291  0.09821  0.78885  1.0000
  C   C1710     1.0  0.34341  0.08781  0.80235  1.0000
  C   C1711     1.0  0.34261  0.08834  0.81960  1.0000
  C   C1712     1.0  0.35102  0.09977  0.82308  1.0000
  P   P54       1.0  0.33024  0.07510  0.83720  1.0000
  C   C1713     1.0  0.30886  0.08755  0.84484  1.0000
  C   C1714     1.0  0.32985  0.05599  0.82992  1.0000
  C   C1715     1.0  0.31417  0.05186  0.82938  1.0000
  C   C1716     1.0  0.31431  0.03614  0.82539  1.0000
  C   C1717     1.0  0.33012  0.02509  0.82052  1.0000
  C   C1718     1.0  0.34583  0.02960  0.81990  1.0000
  C   C1719     1.0  0.34570  0.04489  0.82471  1.0000
  C   C1720     1.0  0.29529  0.07938  0.85514  1.0000
  C   C1721     1.0  0.27865  0.08913  0.86021  1.0000
  C   C1722     1.0  0.27552  0.10713  0.85546  1.0000
  C   C1723     1.0  0.28912  0.11541  0.84597  1.0000
  C   C1724     1.0  0.30574  0.10569  0.84083  1.0000
  C   C1725     1.0  0.34200  0.06741  0.85473  1.0000
  C   C1726     1.0  0.33296  0.06496  0.87201  1.0000
  C   C1727     1.0  0.34205  0.05809  0.88548  1.0000
  C   C1728     1.0  0.36023  0.05354  0.88186  1.0000
  C   C1729     1.0  0.36938  0.05615  0.86477  1.0000
  C   C1730     1.0  0.36035  0.06312  0.85124  1.0000
  H   H1352     1.0  0.36709  0.11882  0.81233  1.0000
  H   H1353     1.0  0.36883  0.11746  0.78205  1.0000
  H   H1354     1.0  0.35330  0.09786  0.77557  1.0000
  H   H1355     1.0  0.33652  0.07960  0.79922  1.0000
  H   H1356     1.0  0.34980  0.10102  0.83621  1.0000
  H   H1357     1.0  0.30178  0.06062  0.83188  1.0000
  H   H1358     1.0  0.30211  0.03260  0.82595  1.0000
  H   H1359     1.0  0.33023  0.01313  0.81702  1.0000
  H   H1360     1.0  0.35810  0.02119  0.81575  1.0000
  H   H1361     1.0  0.35802  0.04809  0.82419  1.0000
  H   H1362     1.0  0.29745  0.06547  0.85921  1.0000
  H   H1363     1.0  0.26809  0.08272  0.86763  1.0000
  H   H1364     1.0  0.26255  0.11466  0.85911  1.0000
  H   H1365     1.0  0.28678  0.12938  0.84228  1.0000
  H   H1366     1.0  0.31594  0.11244  0.83334  1.0000
  H   H1367     1.0  0.31889  0.06818  0.87524  1.0000
  H   H1368     1.0  0.33492  0.05614  0.89875  1.0000
  H   H1369     1.0  0.36720  0.04790  0.89231  1.0000
  H   H1370     1.0  0.38346  0.05260  0.86202  1.0000
  H   H1371     1.0  0.36772  0.06503  0.83808  1.0000
  S   S235      1.0  0.45929  0.11754  0.75700  1.0000
  C   C1731     1.0  0.31038  0.20834  0.77971  1.0000
  C   C1732     1.0  0.40210  0.28194  0.58569  1.0000
  C   C1733     1.0  0.46474  0.11321  0.70392  1.0000
  P   P55       1.0  0.41145  0.08364  0.85236  1.0000
  C   C1734     1.0  0.29555  0.24582  0.75599  1.0000
  H   H1372     1.0  0.38362  0.29243  0.87414  1.0000
  C   C1735     1.0  0.27257  0.16225  0.71280  1.0000
  C   C1736     1.0  0.48208  0.10367  0.70860  1.0000
  H   H1373     1.0  0.45266  0.29048  0.82762  1.0000
  C   C1737     1.0  0.26324  0.06289  0.76866  1.0000
  C   C1738     1.0  0.41526  0.28370  0.74698  1.0000
  C   C1739     1.0  0.26135  0.18667  0.78624  1.0000
  P   P56       1.0  0.48708  0.25689  0.65653  1.0000
  H   H1374     1.0  0.26837  0.00512  0.83997  1.0000
  H   H1375     1.0  0.38365  0.23758  0.53393  1.0000
  C   C1740     1.0  0.26966  0.21002  0.75536  1.0000
  H   H1376     1.0  0.39092  0.14153  0.86692  1.0000
  C   C1741     1.0  0.46039  0.30013  0.82550  1.0000
  H   H1377     1.0  0.40637  0.03538  0.91654  1.0000
  H   H1378     1.0  0.27050  0.03330  0.61291  1.0000
  H   H1379     1.0  0.29517  0.04886  0.80011  1.0000
  S   S236      1.0  0.26918  0.99588  0.62003  1.0000
  H   H1380     1.0  0.48049  0.19975  0.74637  1.0000
  H   H1381     1.0  0.44357  0.01256  0.71041  1.0000
  C   C1742     1.0  0.45587  0.13027  0.70943  1.0000
  C   C1743     1.0  0.37052  0.13341  0.86034  1.0000
  H   H1382     1.0  0.47610  0.05505  0.66905  1.0000
  H   H1383     1.0  0.39623  0.26281  0.53227  1.0000
  S   S237      1.0  0.34261  0.29275  0.67309  1.0000
  C   C1744     1.0  0.43688  0.99185  0.69223  1.0000
  H   H1384     1.0  0.29566  0.21873  0.81960  1.0000
  C   C1745     1.0  0.37960  0.30443  0.83009  1.0000
  C   C1746     1.0  0.40780  0.30040  0.81087  1.0000
  H   H1385     1.0  0.29362  0.24408  0.76984  1.0000
  H   H1386     1.0  0.33153  0.28221  0.70980  1.0000
  S   S238      1.0  0.48770  0.21188  0.58177  1.0000
  H   H1387     1.0  0.44726  0.00054  0.64089  1.0000
  C   C1747     1.0  0.24945  0.19321  0.77525  1.0000
  H   H1388     1.0  0.38256  0.06105  0.91214  1.0000
  C   C1748     1.0  0.39893  0.03740  0.64754  1.0000
  Fe  Fe115     1.0  0.46442  0.11177  0.72915  1.0000
  C   C1749     1.0  0.39376  0.05890  0.90177  1.0000
  C   C1750     1.0  0.47410  0.98933  0.63252  1.0000
  H   H1389     1.0  0.33162  0.30529  0.80021  1.0000
  H   H1390     1.0  0.41368  0.00911  0.70244  1.0000
  H   H1391     1.0  0.41673  0.29832  0.76486  1.0000
  H   H1392     1.0  0.44356  0.26363  0.76530  1.0000
  C   C1751     1.0  0.28161  0.20367  0.76646  1.0000
  C   C1752     1.0  0.39989  0.11657  0.86029  1.0000
  C   C1753     1.0  0.38308  0.25649  0.62518  1.0000
  C   C1754     1.0  0.45804  0.09167  0.85664  1.0000
  C   C1755     1.0  0.31253  0.30388  0.71827  1.0000
  H   H1393     1.0  0.36099  0.14521  0.86203  1.0000
  C   C1756     1.0  0.36452  0.25445  0.60699  1.0000
  H   H1394     1.0  0.39272  0.28898  0.62080  1.0000
  P   P57       1.0  0.48904  0.14041  0.86334  1.0000
  H   H1395     1.0  0.48815  0.23170  0.78564  1.0000
  Fe  Fe116     1.0  0.48141  0.25320  0.88872  1.0000
  C   C1757     1.0  0.26660  0.15389  0.72966  1.0000
  C   C1758     1.0  0.41002  0.05177  0.82126  1.0000
  H   H1396     1.0  0.37475  0.09496  0.84932  1.0000
  C   C1759     1.0  0.46004  0.99676  0.64414  1.0000
  C   C1760     1.0  0.49107  0.20624  0.74490  1.0000
  H   H1397     1.0  0.48168  0.99575  0.67535  1.0000
  C   C1761     1.0  0.26039  0.04413  0.61622  1.0000
  H   H1398     1.0  0.43651  0.28181  0.88909  1.0000
  H   H1399     1.0  0.36269  0.25195  0.59525  1.0000
  H   H1400     1.0  0.43323  0.18123  0.66803  1.0000
  P   P58       1.0  0.30268  0.20965  0.76034  1.0000
  C   C1762     1.0  0.38735  0.13141  0.86307  1.0000
  C   C1763     1.0  0.40228  0.08716  0.82083  1.0000
  H   H1401     1.0  0.31035  0.29756  0.73174  1.0000
  C   C1764     1.0  0.40842  0.29241  0.76064  1.0000
  H   H1402     1.0  0.47412  0.21685  0.70560  1.0000
  C   C1765     1.0  0.46924  0.14985  0.64618  1.0000
  C   C1766     1.0  0.43189  0.15802  0.75276  1.0000
  H   H1403     1.0  0.33771  0.21091  0.73957  1.0000
  C   C1767     1.0  0.28301  0.01223  0.81425  1.0000
  H   H1404     1.0  0.43382  0.30278  0.65586  1.0000
  H   H1405     1.0  0.44431  0.17602  0.81689  1.0000
  H   H1406     1.0  0.36978  0.26470  0.64906  1.0000
  C   C1768     1.0  0.30257  0.23455  0.72978  1.0000
  Fe  Fe117     1.0  0.35813  0.99380  0.71756  1.0000
  C   C1769     1.0  0.40446  0.27649  0.74117  1.0000
  C   C1770     1.0  0.40124  0.31364  0.79814  1.0000
  C   C1771     1.0  0.45102  0.30461  0.63077  1.0000
  H   H1407     1.0  0.25123  0.07815  0.72945  1.0000
  C   C1772     1.0  0.47868  0.23731  0.66092  1.0000
  C   C1773     1.0  0.25779  0.07103  0.83342  1.0000
  C   C1774     1.0  0.45686  0.28267  0.65594  1.0000
  H   H1408     1.0  0.35167  0.04989  0.77290  1.0000
  C   C1775     1.0  0.42274  0.28165  0.86976  1.0000
  H   H1409     1.0  0.47120  0.16897  0.74701  1.0000
  H   H1410     1.0  0.43448  0.30412  0.57859  1.0000
  H   H1411     1.0  0.42984  0.16686  0.79178  1.0000
  H   H1412     1.0  0.46416  0.03597  0.65794  1.0000
  C   C1776     1.0  0.30042  0.25140  0.72003  1.0000
  H   H1413     1.0  0.35993  0.28116  0.89630  1.0000
  H   H1414     1.0  0.45155  0.19860  0.58921  1.0000
  C   C1777     1.0  0.42675  0.02014  0.66431  1.0000
  C   C1778     1.0  0.40944  0.06815  0.87257  1.0000
  H   H1415     1.0  0.35752  0.19304  0.71966  1.0000
  H   H1416     1.0  0.32084  0.04847  0.78025  1.0000
  H   H1417     1.0  0.46245  0.13266  0.67054  1.0000
  P   P59       1.0  0.40664  0.28023  0.84393  1.0000
  S   S239      1.0  0.24461  0.10290  0.81448  1.0000
  C   C1779     1.0  0.46419  0.13788  0.71970  1.0000
  C   C1780     1.0  0.43044  0.18126  0.68174  1.0000
  C   C1781     1.0  0.44236  0.17128  0.69197  1.0000
  C   C1782     1.0  0.45193  0.16793  0.77044  1.0000
  C   C1783     1.0  0.43507  0.16547  0.77850  1.0000
  C   C1784     1.0  0.44344  0.08801  0.83049  1.0000
  C   C1785     1.0  0.26253  0.05381  0.62726  1.0000
  C   C1786     1.0  0.28682  0.02717  0.67351  1.0000
  H   H1418     1.0  0.39604  0.09039  0.79603  1.0000
  C   C1787     1.0  0.40406  0.06349  0.80724  1.0000
  H   H1419     1.0  0.37862  0.21661  0.56166  1.0000
  H   H1420     1.0  0.43225  0.03073  0.89298  1.0000
  C   C1788     1.0  0.42494  0.16096  0.76948  1.0000
  H   H1421     1.0  0.41174  0.15944  0.77559  1.0000
  H   H1422     1.0  0.27433  0.05034  0.63234  1.0000
  C   C1789     1.0  0.27752  0.19158  0.78172  1.0000
  S   S240      1.0  0.41938  0.28700  0.69263  1.0000
  C   C1790     1.0  0.42939  0.21982  0.59142  1.0000
  H   H1423     1.0  0.48926  0.19068  0.89181  1.0000
  H   H1424     1.0  0.42185  0.18453  0.72973  1.0000
  C   C1791     1.0  0.34786  0.03837  0.77203  1.0000
  C   C1792     1.0  0.47154  0.20065  0.78863  1.0000
  C   C1793     1.0  0.46603  0.20682  0.66723  1.0000
  H   H1425     1.0  0.46122  0.19518  0.66902  1.0000
  H   H1426     1.0  0.40272  0.30906  0.57930  1.0000
  C   C1794     1.0  0.29462  0.01883  0.68767  1.0000
  C   C1795     1.0  0.32186  0.20618  0.81006  1.0000
  H   H1427     1.0  0.37410  0.02558  0.76261  1.0000
  C   C1796     1.0  0.41527  0.19176  0.68902  1.0000
  C   C1797     1.0  0.44842  0.16137  0.74427  1.0000
  H   H1428     1.0  0.42415  0.15367  0.74627  1.0000
  C   C1798     1.0  0.48136  0.12787  0.72491  1.0000
  C   C1799     1.0  0.43164  0.28912  0.87759  1.0000
  H   H1429     1.0  0.42133  0.29387  0.80826  1.0000
  C   C1800     1.0  0.43924  0.17157  0.70960  1.0000
  C   C1801     1.0  0.38997  0.29977  0.62716  1.0000
  H   H1430     1.0  0.31721  0.03901  0.62959  1.0000
  H   H1431     1.0  0.37105  0.30116  0.84239  1.0000
  H   H1432     1.0  0.32323  0.99002  0.79831  1.0000
  C   C1802     1.0  0.45372  0.27445  0.78106  1.0000
  C   C1803     1.0  0.45443  0.22236  0.66941  1.0000
  C   C1804     1.0  0.36045  0.02473  0.76625  1.0000
  C   C1805     1.0  0.33019  0.03754  0.77618  1.0000
  C   C1806     1.0  0.46217  0.03492  0.67176  1.0000
  C   C1807     1.0  0.32452  0.29521  0.70594  1.0000
  C   C1808     1.0  0.47082  0.14149  0.66320  1.0000
  H   H1433     1.0  0.28193  0.99241  0.66123  1.0000
  C   C1809     1.0  0.42110  0.99598  0.70379  1.0000
  S   S241      1.0  0.33762  0.00227  0.70155  1.0000
  H   H1434     1.0  0.40373  0.26721  0.55800  1.0000
  C   C1810     1.0  0.45843  0.16630  0.75326  1.0000
  C   C1811     1.0  0.39798  0.25628  0.55913  1.0000
  H   H1435     1.0  0.45988  0.17128  0.77742  1.0000
  H   H1436     1.0  0.35302  0.12198  0.85304  1.0000
  C   C1812     1.0  0.40804  0.07551  0.83508  1.0000
  C   C1813     1.0  0.47753  0.28263  0.62871  1.0000
  C   C1814     1.0  0.44604  0.29725  0.64821  1.0000
  H   H1437     1.0  0.48464  0.29057  0.70032  1.0000
  H   H1438     1.0  0.45633  0.03105  0.72111  1.0000
  C   C1815     1.0  0.46690  0.04430  0.69578  1.0000
  C   C1816     1.0  0.33153  0.98819  0.61910  1.0000
  C   C1817     1.0  0.34484  0.31044  0.76518  1.0000
  H   H1439     1.0  0.27449  0.07660  0.79944  1.0000
  H   H1440     1.0  0.35201  0.25412  0.89509  1.0000
  H   H1441     1.0  0.31367  0.02322  0.74378  1.0000
  C   C1818     1.0  0.45792  0.03215  0.70731  1.0000
  H   H1442     1.0  0.44051  0.22271  0.67304  1.0000
  H   H1443     1.0  0.48115  0.15976  0.89109  1.0000
  H   H1444     1.0  0.28426  0.04114  0.66973  1.0000
  H   H1445     1.0  0.40280  0.05891  0.79635  1.0000
  C   C1819     1.0  0.49000  0.14178  0.84072  1.0000
  S   S242      1.0  0.25359  0.14196  0.68295  1.0000
  C   C1820     1.0  0.41215  0.19250  0.70645  1.0000
  S   S243      1.0  0.48705  0.13398  0.69119  1.0000
  C   C1821     1.0  0.40367  0.30656  0.62848  1.0000
  C   C1822     1.0  0.29937  0.00814  0.73680  1.0000
  C   C1823     1.0  0.45068  0.02164  0.70114  1.0000
  P   P60       1.0  0.45625  0.16048  0.72177  1.0000
  C   C1824     1.0  0.42417  0.18270  0.71664  1.0000
  H   H1446     1.0  0.40064  0.20111  0.71195  1.0000
  H   H1447     1.0  0.41341  0.03807  0.82119  1.0000
  H   H1448     1.0  0.29817  0.02643  0.69489  1.0000
  C   C1825     1.0  0.28239  0.01747  0.66406  1.0000
  H   H1449     1.0  0.38524  0.30321  0.70921  1.0000
  H   H1450     1.0  0.41293  0.11579  0.86192  1.0000
  H   H1451     1.0  0.34029  0.26767  0.64384  1.0000
  C   C1826     1.0  0.48796  0.08373  0.89028  1.0000
  C   C1827     1.0  0.36608  0.12029  0.85523  1.0000
  C   C1828     1.0  0.36223  0.25923  0.88523  1.0000
  C   C1829     1.0  0.36833  0.26178  0.63734  1.0000
  C   C1830     1.0  0.47277  0.27530  0.64629  1.0000
  H   H1452     1.0  0.44276  0.26210  0.84767  1.0000
  H   H1453     1.0  0.48510  0.20175  0.78575  1.0000
  H   H1454     1.0  0.45289  0.27728  0.66952  1.0000
  Fe  Fe118     1.0  0.46891  0.08954  0.76673  1.0000
  H   H1455     1.0  0.27642  0.02395  0.65305  1.0000
  C   C1831     1.0  0.45271  0.02297  0.68328  1.0000
  C   C1832     1.0  0.37847  0.10517  0.85291  1.0000
  C   C1833     1.0  0.44084  0.08933  0.86036  1.0000
  H   H1456     1.0  0.30592  0.22387  0.72314  1.0000
  C   C1834     1.0  0.43338  0.08753  0.84728  1.0000
  H   H1457     1.0  0.27590  0.03986  0.75916  1.0000
  H   H1458     1.0  0.41698  0.30101  0.62303  1.0000
  C   C1835     1.0  0.28045  0.00212  0.83091  1.0000
  H   H1459     1.0  0.43334  0.08900  0.87341  1.0000
  H   H1460     1.0  0.46817  0.09086  0.81385  1.0000
  C   C1836     1.0  0.38132  0.25272  0.60995  1.0000
  C   C1837     1.0  0.35167  0.26344  0.63437  1.0000
  C   C1838     1.0  0.39075  0.29395  0.76844  1.0000
  P   P61       1.0  0.40069  0.24712  0.59399  1.0000
  C   C1839     1.0  0.46672  0.19203  0.71244  1.0000
  C   C1840     1.0  0.27560  0.04743  0.76836  1.0000
  H   H1461     1.0  0.43449  0.05164  0.86520  1.0000
  C   C1841     1.0  0.38807  0.23020  0.57569  1.0000
  C   C1842     1.0  0.47721  0.11433  0.88998  1.0000
  C   C1843     1.0  0.46622  0.27190  0.79102  1.0000
  H   H1462     1.0  0.30236  0.25360  0.70608  1.0000
  H   H1463     1.0  0.36860  0.31357  0.67848  1.0000
  H   H1464     1.0  0.41641  0.31453  0.83517  1.0000
  H   H1465     1.0  0.27101  0.98466  0.76473  1.0000
  H   H1466     1.0  0.41770  0.99696  0.66555  1.0000
  C   C1844     1.0  0.47986  0.13285  0.83587  1.0000
  C   C1845     1.0  0.49235  0.30524  0.73444  1.0000
  H   H1467     1.0  0.32868  0.29888  0.83186  1.0000
  C   C1846     1.0  0.24963  0.06800  0.63169  1.0000
  H   H1468     1.0  0.36215  0.30112  0.63380  1.0000
  H   H1469     1.0  0.24460  0.20949  0.75105  1.0000
  C   C1847     1.0  0.49080  0.98431  0.63630  1.0000
  C   C1848     1.0  0.39487  0.30887  0.71156  1.0000
  H   H1470     1.0  0.47203  0.98750  0.62055  1.0000
  C   C1849     1.0  0.47943  0.99408  0.66339  1.0000
  H   H1471     1.0  0.48113  0.30900  0.74418  1.0000
  H   H1472     1.0  0.28302  0.99270  0.73340  1.0000
  C   C1850     1.0  0.49025  0.16751  0.70802  1.0000
  C   C1851     1.0  0.32705  0.31302  0.76488  1.0000
  H   H1473     1.0  0.27348  0.16463  0.68575  1.0000
  H   H1474     1.0  0.48880  0.09193  0.70399  1.0000
  C   C1852     1.0  0.48096  0.31116  0.83466  1.0000
  H   H1475     1.0  0.33403  0.99812  0.76697  1.0000
  H   H1476     1.0  0.35247  0.31434  0.87609  1.0000
  H   H1477     1.0  0.48792  0.25442  0.80077  1.0000
  C   C1853     1.0  0.49290  0.16403  0.64372  1.0000
  S   S244      1.0  0.48835  0.07824  0.78448  1.0000
  C   C1854     1.0  0.48930  0.25976  0.67700  1.0000
  H   H1478     1.0  0.47952  0.28752  0.67282  1.0000
  C   C1855     1.0  0.48790  0.27794  0.69694  1.0000
  C   C1856     1.0  0.24869  0.98423  0.66476  1.0000
  C   C1857     1.0  0.30872  0.98373  0.82404  1.0000
  C   C1858     1.0  0.41470  0.98320  0.71707  1.0000
  C   C1859     1.0  0.49345  0.98666  0.65174  1.0000
  S   S245      1.0  0.49350  0.25967  0.86059  1.0000
  C   C1860     1.0  0.49307  0.14138  0.80585  1.0000
  C   C1861     1.0  0.42886  0.31495  0.85523  1.0000
  S   S246      1.0  0.32129  0.98304  0.60472  1.0000
  S   S247      1.0  0.44470  0.31555  0.79834  1.0000
  H   H1479     1.0  0.49334  0.14928  0.75950  1.0000
  H   H1480     1.0  0.44271  0.31594  0.62478  1.0000
  Fe  Fe119     1.0  0.48503  0.63902  0.18750  1.0000
  C   C1862     1.0  0.48032  0.64192  0.34821  1.0000
  C   C1863     1.0  0.42577  0.63568  0.20163  1.0000
  C   C1864     1.0  0.33307  0.62702  0.04170  1.0000
  C   C1865     1.0  0.25091  0.60801  0.04945  1.0000
  S   S248      1.0  0.26158  0.63647  0.99418  1.0000
  H   H1481     1.0  0.24925  0.56334  0.02665  1.0000
  H   H1482     1.0  0.31799  0.56893  0.09135  1.0000
  H   H1483     1.0  0.46444  0.61653  0.32676  1.0000
  C   C1866     1.0  0.36093  0.62362  0.04972  1.0000
  H   H1484     1.0  0.28622  0.62932  0.07586  1.0000
  Fe  Fe120     1.0  0.25826  0.60914  0.00464  1.0000
  C   C1867     1.0  0.29665  0.64301  0.45763  1.0000
  S   S249      1.0  0.28295  0.59774  0.98792  1.0000
  H   H1485     1.0  0.33300  0.61819  0.00989  1.0000
  H   H1486     1.0  0.29265  0.59479  0.04678  1.0000
  P   P62       1.0  0.31225  0.62101  0.04499  1.0000
  C   C1868     1.0  0.37712  0.64814  0.27282  1.0000
  S   S250      1.0  0.46118  0.62721  0.19671  1.0000
  C   C1869     1.0  0.30676  0.64616  0.42665  1.0000
  H   H1487     1.0  0.27921  0.61256  0.10543  1.0000
  H   H1488     1.0  0.32542  0.58567  0.06170  1.0000
  C   C1870     1.0  0.40521  0.63830  0.25535  1.0000
  C   C1871     1.0  0.30357  0.58428  0.02395  1.0000
  C   C1872     1.0  0.46226  0.64404  0.35032  1.0000
  H   H1489     1.0  0.37513  0.64500  0.10258  1.0000
  C   C1873     1.0  0.38738  0.64540  0.25683  1.0000
  H   H1490     1.0  0.28071  0.62918  0.03018  1.0000
  C   C1874     1.0  0.24786  0.62450  0.07698  1.0000
  C   C1875     1.0  0.30098  0.63614  0.44269  1.0000
  C   C1876     1.0  0.31566  0.58512  0.00829  1.0000
  H   H1491     1.0  0.26422  0.61213  0.44699  1.0000
  H   H1492     1.0  0.48879  0.64274  0.22965  1.0000
  C   C1877     1.0  0.31134  0.58224  0.08801  1.0000
  H   H1493     1.0  0.26158  0.58490  0.06611  1.0000
  C   C1878     1.0  0.28965  0.60687  0.09599  1.0000
  H   H1494     1.0  0.42684  0.62341  0.19826  1.0000
  H   H1495     1.0  0.29498  0.58240  0.11333  1.0000
  H   H1496     1.0  0.34142  0.60916  0.06410  1.0000
  H   H1497     1.0  0.44938  0.61687  0.23272  1.0000
  C   C1879     1.0  0.26140  0.62610  0.44443  1.0000
  C   C1880     1.0  0.34472  0.61898  0.05291  1.0000
  H   H1498     1.0  0.46956  0.59163  0.31254  1.0000
  H   H1499     1.0  0.45848  0.55920  0.29133  1.0000
  H   H1500     1.0  0.29480  0.57533  0.02743  1.0000
  H   H1501     1.0  0.47774  0.57167  0.26508  1.0000
  C   C1881     1.0  0.32496  0.60858  0.01423  1.0000
  C   C1882     1.0  0.40932  0.64629  0.20542  1.0000
  C   C1883     1.0  0.31549  0.59174  0.07123  1.0000
  H   H1502     1.0  0.41306  0.63660  0.24276  1.0000
  C   C1884     1.0  0.30235  0.59541  0.03487  1.0000
  H   H1503     1.0  0.31641  0.57668  0.99969  1.0000
  C   C1885     1.0  0.47233  0.55713  0.29096  1.0000
  H   H1504     1.0  0.49014  0.62704  0.27280  1.0000
  H   H1505     1.0  0.47066  0.54179  0.31679  1.0000
  C   C1886     1.0  0.31333  0.60738  0.03029  1.0000
  C   C1887     1.0  0.36565  0.63625  0.03533  1.0000
  H   H1506     1.0  0.39778  0.64219  0.20491  1.0000
  H   H1507     1.0  0.27713  0.64492  0.09978  1.0000
  H   H1508     1.0  0.37821  0.63983  0.03280  1.0000
  C   C1888     1.0  0.44084  0.64103  0.20173  1.0000
  H   H1509     1.0  0.45337  0.59072  0.22157  1.0000
  H   H1510     1.0  0.26947  0.62844  0.41687  1.0000
  H   H1511     1.0  0.48926  0.59712  0.20429  1.0000
  H   H1512     1.0  0.25923  0.59934  0.08996  1.0000
  H   H1513     1.0  0.29945  0.62314  0.44354  1.0000
  C   C1889     1.0  0.46547  0.63499  0.24541  1.0000
  P   P63       1.0  0.43598  0.62489  0.26743  1.0000
  C   C1890     1.0  0.44398  0.62152  0.28699  1.0000
  C   C1891     1.0  0.41288  0.63375  0.26991  1.0000
  C   C1892     1.0  0.40241  0.63617  0.28605  1.0000
  C   C1893     1.0  0.30677  0.60895  0.06674  1.0000
  H   H1514     1.0  0.36989  0.61734  0.05837  1.0000
  C   C1894     1.0  0.48334  0.56409  0.27608  1.0000
  C   C1895     1.0  0.38461  0.64349  0.28742  1.0000
  C   C1896     1.0  0.44150  0.63559  0.29489  1.0000
  C   C1897     1.0  0.44878  0.63377  0.30920  1.0000
  C   C1898     1.0  0.45881  0.61791  0.31565  1.0000
  C   C1899     1.0  0.46164  0.60389  0.30767  1.0000
  C   C1900     1.0  0.45435  0.60571  0.29331  1.0000
  C   C1901     1.0  0.43940  0.60546  0.25925  1.0000
  C   C1902     1.0  0.43397  0.59069  0.27017  1.0000
  C   C1903     1.0  0.43615  0.57577  0.26373  1.0000
  C   C1904     1.0  0.44344  0.57563  0.24630  1.0000
  C   C1905     1.0  0.44829  0.59049  0.23525  1.0000
  C   C1906     1.0  0.44615  0.60536  0.24167  1.0000
  C   C1907     1.0  0.26440  0.63534  0.42737  1.0000
  C   C1908     1.0  0.25440  0.63478  0.45816  1.0000
  C   C1909     1.0  0.35411  0.64431  0.02416  1.0000
  H   H1515     1.0  0.45713  0.59490  0.28702  1.0000
  H   H1516     1.0  0.47166  0.62145  0.24749  1.0000
  H   H1517     1.0  0.40783  0.63254  0.29756  1.0000
  H   H1518     1.0  0.29235  0.63478  0.46973  1.0000
  H   H1519     1.0  0.33475  0.59879  0.99073  1.0000
  C   C1910     1.0  0.29370  0.61639  0.07919  1.0000
  C   C1911     1.0  0.29843  0.58982  0.10040  1.0000
  C   C1912     1.0  0.44782  0.64036  0.25258  1.0000
  C   C1913     1.0  0.33792  0.63973  0.02738  1.0000
  C   C1914     1.0  0.32610  0.59748  0.00330  1.0000
  H   H1520     1.0  0.30967  0.64099  0.41503  1.0000
  H   H1521     1.0  0.25676  0.56987  0.99464  1.0000
  H   H1522     1.0  0.42781  0.59083  0.28357  1.0000
  H   H1523     1.0  0.43182  0.56444  0.27215  1.0000
  H   H1524     1.0  0.44493  0.56419  0.24121  1.0000
  H   H1525     1.0  0.45549  0.63459  0.35953  1.0000
  C   C1915     1.0  0.47531  0.64709  0.23540  1.0000
  H   H1526     1.0  0.48501  0.56955  0.20039  1.0000
  H   H1527     1.0  0.49010  0.59677  0.27320  1.0000
  C   C1916     1.0  0.28187  0.64061  0.03386  1.0000
  H   H1528     1.0  0.38160  0.64920  0.24547  1.0000
  C   C1917     1.0  0.29580  0.64043  0.04129  1.0000
  C   C1918     1.0  0.25492  0.60682  0.07830  1.0000
  H   H1529     1.0  0.49367  0.54227  0.22083  1.0000
  H   H1530     1.0  0.44666  0.64473  0.31519  1.0000
  H   H1531     1.0  0.48759  0.63082  0.35572  1.0000
  S   S251      1.0  0.25287  0.59668  0.03300  1.0000
  C   C1919     1.0  0.47919  0.54732  0.30531  1.0000
  H   H1532     1.0  0.43405  0.64805  0.28982  1.0000
  H   H1533     1.0  0.37656  0.64585  0.29974  1.0000
  H   H1534     1.0  0.30843  0.64435  0.09770  1.0000
  C   C1920     1.0  0.25624  0.59862  0.06476  1.0000
  H   H1535     1.0  0.32911  0.64601  0.01864  1.0000
  S   S252      1.0  0.24745  0.63415  0.09429  1.0000
  C   C1921     1.0  0.49062  0.56969  0.21108  1.0000
  C   C1922     1.0  0.31539  0.64942  0.97887  1.0000
  C   C1923     1.0  0.24453  0.56594  0.00124  1.0000
  C   C1924     1.0  0.49314  0.58524  0.21323  1.0000
  Fe  Fe121     1.0  0.30155  0.58347  0.68984  1.0000
  S   S253      1.0  0.27849  0.57346  0.70696  1.0000
  S   S254      1.0  0.32757  0.57760  0.69756  1.0000
  Fe  Fe122     1.0  0.28196  0.60140  0.66099  1.0000
  S   S255      1.0  0.28637  0.61049  0.68293  1.0000
  S   S256      1.0  0.29919  0.57518  0.66653  1.0000
  H   H1536     1.0  0.30133  0.56100  0.79812  1.0000
  H   H1537     1.0  0.25323  0.63307  0.60050  1.0000
  Fe  Fe123     1.0  0.28382  0.36013  0.72005  1.0000
  S   S257      1.0  0.27764  0.37548  0.74079  1.0000
  S   S258      1.0  0.28808  0.33122  0.72865  1.0000
  Fe  Fe124     1.0  0.28565  0.39197  0.69107  1.0000
  S   S259      1.0  0.28001  0.40989  0.70935  1.0000
  S   S260      1.0  0.29429  0.39935  0.66223  1.0000
  Fe  Fe125     1.0  0.29826  0.38936  0.72389  1.0000
  S   S261      1.0  0.31915  0.39340  0.73510  1.0000
  H   H1538     1.0  0.35589  0.32529  0.64879  1.0000
  S   S262      1.0  0.30585  0.37268  0.70430  1.0000
  H   H1539     1.0  0.24955  0.51573  0.95985  1.0000
  C   C1925     1.0  0.29197  0.59310  0.86199  1.0000
  H   H1540     1.0  0.27027  0.56547  0.65289  1.0000
  S   S263      1.0  0.27124  0.62638  0.95535  1.0000
  Fe  Fe126     1.0  0.31583  0.46791  0.77056  1.0000
  S   S264      1.0  0.34365  0.45868  0.75790  1.0000
  S   S265      1.0  0.29252  0.45788  0.77032  1.0000
  Fe  Fe127     1.0  0.32444  0.49556  0.78363  1.0000
  S   S266      1.0  0.35296  0.48860  0.77246  1.0000
  S   S267      1.0  0.31174  0.51817  0.79651  1.0000
  Fe  Fe128     1.0  0.34430  0.48689  0.74911  1.0000
  S   S268      1.0  0.35842  0.49842  0.72291  1.0000
  Fe  Fe129     1.0  0.34983  0.46119  0.78224  1.0000
  S   S269      1.0  0.36882  0.44133  0.79656  1.0000
  S   S270      1.0  0.31596  0.49589  0.75950  1.0000
  S   S271      1.0  0.32191  0.46827  0.79566  1.0000
  S   S272      1.0  0.25720  0.59257  0.67546  1.0000
  H   H1541     1.0  0.26379  0.48591  0.76754  1.0000
  S   S273      1.0  0.27616  0.49523  0.87461  1.0000
  H   H1542     1.0  0.29940  0.51960  0.91907  1.0000
  H   H1543     1.0  0.24854  0.57334  0.85539  1.0000
  S   S274      1.0  0.31161  0.63341  0.96986  1.0000
  Fe  Fe130     1.0  0.43714  0.37195  0.75399  1.0000
  S   S275      1.0  0.41874  0.35525  0.77093  1.0000
  S   S276      1.0  0.43639  0.39922  0.75567  1.0000
  Fe  Fe131     1.0  0.45933  0.34328  0.73563  1.0000
  H   H1544     1.0  0.37616  0.32507  0.72770  1.0000
  Fe  Fe132     1.0  0.42021  0.34608  0.74685  1.0000
  S   S277      1.0  0.39622  0.34168  0.74078  1.0000
  Fe  Fe133     1.0  0.44302  0.33501  0.77366  1.0000
  H   H1545     1.0  0.30055  0.40800  0.62590  1.0000
  S   S278      1.0  0.43661  0.36453  0.72949  1.0000
  S   S279      1.0  0.46144  0.35231  0.75867  1.0000
  Fe  Fe134     1.0  0.27486  0.56722  0.68322  1.0000
  H   H1546     1.0  0.34332  0.36218  0.70936  1.0000
  C   C1926     1.0  0.40187  0.49815  0.75670  1.0000
  C   C1927     1.0  0.36929  0.32026  0.64307  1.0000
  C   C1928     1.0  0.36324  0.53311  0.75443  1.0000
  H   H1547     1.0  0.28031  0.53901  0.87202  1.0000
  C   C1929     1.0  0.28144  0.64184  0.56925  1.0000
  C   C1930     1.0  0.25684  0.45118  0.82508  1.0000
  C   C1931     1.0  0.34360  0.33334  0.85485  1.0000
  C   C1932     1.0  0.38683  0.43050  0.78346  1.0000
  C   C1933     1.0  0.38587  0.41570  0.77827  1.0000
  C   C1934     1.0  0.40103  0.40583  0.76979  1.0000
  C   C1935     1.0  0.41707  0.41091  0.76635  1.0000
  C   C1936     1.0  0.41785  0.42593  0.77116  1.0000
  C   C1937     1.0  0.40283  0.43559  0.77984  1.0000
  H   H1548     1.0  0.37356  0.41161  0.78114  1.0000
  H   H1549     1.0  0.40032  0.39435  0.76593  1.0000
  H   H1550     1.0  0.43021  0.42990  0.76848  1.0000
  H   H1551     1.0  0.40367  0.44687  0.78400  1.0000
  C   C1938     1.0  0.30125  0.51135  0.81789  1.0000
  C   C1939     1.0  0.30872  0.49608  0.82800  1.0000
  C   C1940     1.0  0.30108  0.49134  0.84548  1.0000
  C   C1941     1.0  0.28559  0.50152  0.85275  1.0000
  C   C1942     1.0  0.27778  0.51652  0.84248  1.0000
  C   C1943     1.0  0.28572  0.52153  0.82512  1.0000
  H   H1552     1.0  0.32059  0.48810  0.82242  1.0000
  H   H1553     1.0  0.30708  0.47969  0.85337  1.0000
  H   H1554     1.0  0.26573  0.52438  0.84793  1.0000
  H   H1555     1.0  0.27974  0.53322  0.81727  1.0000
  H   H1556     1.0  0.44544  0.53534  0.78850  1.0000
  C   C1944     1.0  0.24605  0.57868  0.78501  1.0000
  H   H1557     1.0  0.30149  0.54920  0.91982  1.0000
  H   H1558     1.0  0.37900  0.32581  0.87308  1.0000
  C   C1945     1.0  0.28510  0.54143  0.88225  1.0000
  S   S280      1.0  0.26824  0.54156  0.68570  1.0000
  C   C1946     1.0  0.27456  0.64434  0.49798  1.0000
  C   C1947     1.0  0.29430  0.58350  0.73796  1.0000
  C   C1948     1.0  0.30958  0.58914  0.86327  1.0000
  C   C1949     1.0  0.31093  0.40986  0.74694  1.0000
  C   C1950     1.0  0.32200  0.41463  0.75479  1.0000
  C   C1951     1.0  0.31604  0.42883  0.76287  1.0000
  C   C1952     1.0  0.29916  0.43857  0.76274  1.0000
  C   C1953     1.0  0.28786  0.43344  0.75550  1.0000
  C   C1954     1.0  0.29366  0.41893  0.74779  1.0000
  H   H1559     1.0  0.33531  0.40765  0.75431  1.0000
  H   H1560     1.0  0.32461  0.43237  0.76899  1.0000
  H   H1561     1.0  0.27491  0.44110  0.75523  1.0000
  H   H1562     1.0  0.28497  0.41523  0.74191  1.0000
  H   H1563     1.0  0.35924  0.32352  0.81929  1.0000
  H   H1564     1.0  0.36230  0.55751  0.69281  1.0000
  C   C1955     1.0  0.25695  0.52712  0.66502  1.0000
  H   H1565     1.0  0.35964  0.53030  0.79094  1.0000
  H   H1566     1.0  0.31100  0.63750  0.63506  1.0000
  C   C1956     1.0  0.25138  0.52737  0.65004  1.0000
  H   H1567     1.0  0.35421  0.64012  0.59250  1.0000
  C   C1957     1.0  0.28653  0.55817  0.88240  1.0000
  C   C1958     1.0  0.37781  0.50600  0.78870  1.0000
  C   C1959     1.0  0.25641  0.45079  0.70016  1.0000
  H   H1568     1.0  0.30601  0.54801  0.85100  1.0000
  C   C1960     1.0  0.36306  0.32440  0.68487  1.0000
  H   H1569     1.0  0.30403  0.33146  0.75865  1.0000
  H   H1570     1.0  0.31871  0.35643  0.74927  1.0000
  C   C1961     1.0  0.46915  0.32670  0.80903  1.0000
  H   H1571     1.0  0.39093  0.47756  0.64920  1.0000
  C   C1962     1.0  0.31141  0.61921  0.85223  1.0000
  C   C1963     1.0  0.31823  0.32017  0.68342  1.0000
  H   H1572     1.0  0.36081  0.36760  0.67970  1.0000
  C   C1964     1.0  0.41927  0.53061  0.79632  1.0000
  C   C1965     1.0  0.26977  0.42956  0.65418  1.0000
  H   H1573     1.0  0.26490  0.42876  0.66790  1.0000
  H   H1574     1.0  0.32045  0.32653  0.66996  1.0000
  C   C1966     1.0  0.28372  0.41681  0.64831  1.0000
  C   C1967     1.0  0.38978  0.32116  0.72212  1.0000
  C   C1968     1.0  0.35300  0.32469  0.75990  1.0000
  C   C1969     1.0  0.29718  0.54699  0.90917  1.0000
  C   C1970     1.0  0.29702  0.56373  0.81098  1.0000
  C   C1971     1.0  0.28022  0.63052  0.52647  1.0000
  C   C1972     1.0  0.35319  0.32150  0.70166  1.0000
  H   H1575     1.0  0.31599  0.57591  0.86747  1.0000
  C   C1973     1.0  0.38169  0.48837  0.79635  1.0000
  C   C1974     1.0  0.33562  0.55537  0.70398  1.0000
  C   C1975     1.0  0.32444  0.54417  0.71345  1.0000
  C   C1976     1.0  0.33134  0.52665  0.71942  1.0000
  C   C1977     1.0  0.34937  0.52025  0.71565  1.0000
  C   C1978     1.0  0.36045  0.53136  0.70574  1.0000
  C   C1979     1.0  0.35362  0.54891  0.70014  1.0000
  H   H1576     1.0  0.31055  0.54909  0.71654  1.0000
  H   H1577     1.0  0.32265  0.51810  0.72666  1.0000
  H   H1578     1.0  0.37438  0.52648  0.70272  1.0000
  C   C1980     1.0  0.28027  0.48505  0.62657  1.0000
  C   C1981     1.0  0.28179  0.50225  0.62034  1.0000
  C   C1982     1.0  0.28824  0.51045  0.62971  1.0000
  C   C1983     1.0  0.29273  0.50164  0.64553  1.0000
  C   C1984     1.0  0.29102  0.48434  0.65208  1.0000
  C   C1985     1.0  0.28485  0.47612  0.64233  1.0000
  P   P64       1.0  0.29803  0.47227  0.67195  1.0000
  C   C1986     1.0  0.31151  0.45175  0.66782  1.0000
  C   C1987     1.0  0.31034  0.48469  0.67802  1.0000
  C   C1988     1.0  0.32864  0.48032  0.67498  1.0000
  C   C1989     1.0  0.33813  0.49083  0.67833  1.0000
  C   C1990     1.0  0.32945  0.50567  0.68486  1.0000
  C   C1991     1.0  0.31126  0.51011  0.68795  1.0000
  C   C1992     1.0  0.30173  0.49975  0.68446  1.0000
  C   C1993     1.0  0.31172  0.43696  0.68111  1.0000
  C   C1994     1.0  0.32068  0.42077  0.67766  1.0000
  C   C1995     1.0  0.32929  0.41913  0.66085  1.0000
  C   C1996     1.0  0.32941  0.43378  0.64758  1.0000
  C   C1997     1.0  0.32082  0.45008  0.65109  1.0000
  C   C1998     1.0  0.27966  0.46711  0.68899  1.0000
  C   C1999     1.0  0.27765  0.47022  0.70563  1.0000
  C   C2000     1.0  0.26529  0.46354  0.71938  1.0000
  H   H1579     1.0  0.40977  0.31741  0.78589  1.0000
  Fe  Fe135     1.0  0.24889  0.51039  0.88118  1.0000
  C   C2001     1.0  0.26882  0.45739  0.68642  1.0000
  H   H1580     1.0  0.27558  0.47865  0.61910  1.0000
  H   H1581     1.0  0.27785  0.50929  0.60831  1.0000
  H   H1582     1.0  0.28929  0.52387  0.62490  1.0000
  H   H1583     1.0  0.29749  0.50858  0.65239  1.0000
  H   H1584     1.0  0.28412  0.46263  0.64650  1.0000
  H   H1585     1.0  0.33563  0.46894  0.66989  1.0000
  H   H1586     1.0  0.35224  0.48745  0.67601  1.0000
  H   H1587     1.0  0.33683  0.51378  0.68747  1.0000
  H   H1588     1.0  0.30453  0.52182  0.69270  1.0000
  H   H1589     1.0  0.28766  0.50380  0.68629  1.0000
  H   H1590     1.0  0.30447  0.43774  0.69405  1.0000
  H   H1591     1.0  0.32032  0.40936  0.68790  1.0000
  H   H1592     1.0  0.33542  0.40644  0.65807  1.0000
  H   H1593     1.0  0.33575  0.43244  0.63449  1.0000
  H   H1594     1.0  0.32093  0.46125  0.64059  1.0000
  H   H1595     1.0  0.28599  0.47719  0.70831  1.0000
  H   H1596     1.0  0.26420  0.46567  0.73221  1.0000
  C   C2002     1.0  0.26007  0.50637  0.80420  1.0000
  H   H1597     1.0  0.36667  0.32318  0.75995  1.0000
  H   H1598     1.0  0.27034  0.45430  0.67397  1.0000
  C   C2003     1.0  0.40019  0.32028  0.63704  1.0000
  C   C2004     1.0  0.37081  0.48154  0.81140  1.0000
  C   C2005     1.0  0.37007  0.33186  0.86434  1.0000
  H   H1599     1.0  0.38548  0.57114  0.72809  1.0000
  C   C2006     1.0  0.36299  0.51669  0.79654  1.0000
  C   C2007     1.0  0.42421  0.47274  0.75134  1.0000
  C   C2008     1.0  0.27795  0.57976  0.74644  1.0000
  C   C2009     1.0  0.25461  0.41262  0.77900  1.0000
  S   S281      1.0  0.25802  0.45917  0.60833  1.0000
  C   C2010     1.0  0.27131  0.63232  0.51334  1.0000
  H   H1600     1.0  0.28159  0.50559  0.74663  1.0000
  C   C2011     1.0  0.30475  0.55290  0.82436  1.0000
  H   H1601     1.0  0.42969  0.32853  0.72066  1.0000
  C   C2012     1.0  0.30340  0.32072  0.71317  1.0000
  H   H1602     1.0  0.29246  0.57382  0.89714  1.0000
  C   C2013     1.0  0.26207  0.44325  0.64215  1.0000
  C   C2014     1.0  0.25826  0.40564  0.79546  1.0000
  H   H1603     1.0  0.43181  0.32761  0.84928  1.0000
  C   C2015     1.0  0.26283  0.51564  0.73010  1.0000
  H   H1604     1.0  0.39463  0.61213  0.55869  1.0000
  H   H1605     1.0  0.42718  0.51939  0.75118  1.0000
  H   H1606     1.0  0.27446  0.54666  0.94200  1.0000
  H   H1607     1.0  0.26829  0.59268  0.83318  1.0000
  C   C2016     1.0  0.28980  0.52758  0.89539  1.0000
  H   H1608     1.0  0.25270  0.56288  0.80905  1.0000
  C   C2017     1.0  0.27828  0.58137  0.83095  1.0000
  C   C2018     1.0  0.35216  0.50980  0.81163  1.0000
  P   P65       1.0  0.25535  0.56207  0.77237  1.0000
  H   H1609     1.0  0.33282  0.59906  0.85956  1.0000
  Fe  Fe136     1.0  0.26282  0.59964  0.69800  1.0000
  C   C2019     1.0  0.30257  0.61513  0.57364  1.0000
  H   H1610     1.0  0.34039  0.36139  0.65940  1.0000
  H   H1611     1.0  0.46824  0.33764  0.79836  1.0000
  H   H1612     1.0  0.42307  0.46190  0.73033  1.0000
  H   H1613     1.0  0.27989  0.64180  0.60339  1.0000
  H   H1614     1.0  0.32333  0.38370  0.64044  1.0000
  H   H1615     1.0  0.41095  0.32551  0.63769  1.0000
  C   C2020     1.0  0.35516  0.32540  0.86602  1.0000
  C   C2021     1.0  0.28984  0.41778  0.63055  1.0000
  C   C2022     1.0  0.38173  0.62017  0.56121  1.0000
  H   H1616     1.0  0.39282  0.47967  0.79058  1.0000
  H   H1617     1.0  0.38339  0.62176  0.58667  1.0000
  C   C2023     1.0  0.30638  0.32892  0.69575  1.0000
  C   C2024     1.0  0.37540  0.62559  0.57697  1.0000
  H   H1618     1.0  0.31868  0.63222  0.60549  1.0000
  H   H1619     1.0  0.33771  0.39757  0.61159  1.0000
  H   H1620     1.0  0.34762  0.48691  0.83069  1.0000
  C   C2025     1.0  0.26906  0.50507  0.74449  1.0000
  H   H1621     1.0  0.30577  0.60115  0.57596  1.0000
  H   H1622     1.0  0.43968  0.36121  0.66338  1.0000
  H   H1623     1.0  0.34044  0.51794  0.81736  1.0000
  H   H1624     1.0  0.31900  0.62923  0.84824  1.0000
  H   H1625     1.0  0.41711  0.53376  0.80892  1.0000
  C   C2026     1.0  0.29936  0.55630  0.84103  1.0000
  H   H1626     1.0  0.26174  0.62450  0.51505  1.0000
  H   H1627     1.0  0.39233  0.37749  0.64387  1.0000
  S   S282      1.0  0.44284  0.32421  0.75110  1.0000
  C   C2027     1.0  0.35470  0.54644  0.74312  1.0000
  H   H1628     1.0  0.40095  0.54750  0.74759  1.0000
  H   H1629     1.0  0.36966  0.38839  0.60139  1.0000
  H   H1630     1.0  0.45037  0.52814  0.75966  1.0000
  S   S283      1.0  0.26404  0.37777  0.70512  1.0000
  H   H1631     1.0  0.25532  0.53783  0.92766  1.0000
  C   C2028     1.0  0.29215  0.56092  0.89622  1.0000
  H   H1632     1.0  0.34262  0.64568  0.96683  1.0000
  C   C2029     1.0  0.28388  0.57803  0.81422  1.0000
  C   C2030     1.0  0.31920  0.60221  0.85860  1.0000
  C   C2031     1.0  0.26796  0.44374  0.62432  1.0000
  H   H1633     1.0  0.24575  0.63662  0.88455  1.0000
  H   H1634     1.0  0.37635  0.62106  0.53643  1.0000
  C   C2032     1.0  0.29421  0.63196  0.89145  1.0000
  C   C2033     1.0  0.30032  0.61553  0.90077  1.0000
  C   C2034     1.0  0.28882  0.60697  0.91392  1.0000
  C   C2035     1.0  0.27125  0.61487  0.91778  1.0000
  C   C2036     1.0  0.26520  0.63131  0.90861  1.0000
  H   H1635     1.0  0.37808  0.46918  0.62872  1.0000
  C   C2037     1.0  0.41662  0.48577  0.76083  1.0000
  C   C2038     1.0  0.31767  0.32957  0.75920  1.0000
  H   H1636     1.0  0.38323  0.50619  0.73973  1.0000
  C   C2039     1.0  0.31099  0.64254  0.57046  1.0000
  H   H1637     1.0  0.25165  0.63736  0.91184  1.0000
  C   C2040     1.0  0.28190  0.43100  0.61868  1.0000
  H   H1638     1.0  0.37358  0.46782  0.81687  1.0000
  C   C2041     1.0  0.40608  0.52561  0.79163  1.0000
  H   H1639     1.0  0.29549  0.59318  0.72611  1.0000
  C   C2042     1.0  0.28573  0.62386  0.57169  1.0000
  C   C2043     1.0  0.27035  0.52683  0.77888  1.0000
  H   H1640     1.0  0.38713  0.36569  0.62017  1.0000
  C   C2044     1.0  0.31514  0.62439  0.57308  1.0000
  C   C2045     1.0  0.28580  0.57037  0.84457  1.0000
  C   C2046     1.0  0.38375  0.32200  0.80119  1.0000
  H   H1641     1.0  0.28786  0.63620  0.84540  1.0000
  H   H1642     1.0  0.31398  0.60943  0.89789  1.0000
  H   H1643     1.0  0.29345  0.59431  0.92132  1.0000
  H   H1644     1.0  0.26235  0.60837  0.92810  1.0000
  H   H1645     1.0  0.29932  0.63939  0.53438  1.0000
  C   C2047     1.0  0.34828  0.64092  0.56778  1.0000
  C   C2048     1.0  0.25765  0.57127  0.94482  1.0000
  H   H1646     1.0  0.34213  0.54578  0.74119  1.0000
  C   C2049     1.0  0.24774  0.64444  0.87168  1.0000
  H   H1647     1.0  0.29933  0.34190  0.69173  1.0000
  C   C2050     1.0  0.42486  0.52242  0.76386  1.0000
  H   H1648     1.0  0.28849  0.51473  0.89520  1.0000
  H   H1649     1.0  0.26464  0.39222  0.79859  1.0000
  C   C2051     1.0  0.29594  0.53033  0.90880  1.0000
  H   H1650     1.0  0.32792  0.61728  0.57519  1.0000
  C   C2052     1.0  0.27188  0.51001  0.78871  1.0000
  C   C2053     1.0  0.26002  0.55478  0.63696  1.0000
  C   C2054     1.0  0.39476  0.49711  0.74307  1.0000
  H   H1651     1.0  0.26377  0.55031  0.73982  1.0000
  H   H1652     1.0  0.26832  0.64851  0.56799  1.0000
  C   C2055     1.0  0.25159  0.55027  0.93139  1.0000
  C   C2056     1.0  0.27644  0.56679  0.76141  1.0000
  C   C2057     1.0  0.29133  0.55828  0.76826  1.0000
  C   C2058     1.0  0.30765  0.56201  0.75977  1.0000
  C   C2059     1.0  0.30917  0.57451  0.74451  1.0000
  C   C2060     1.0  0.35611  0.49226  0.81909  1.0000
  H   H1653     1.0  0.25842  0.40470  0.76931  1.0000
  C   C2061     1.0  0.40237  0.32789  0.72591  1.0000
  H   H1654     1.0  0.26162  0.49347  0.81197  1.0000
  H   H1655     1.0  0.28652  0.43126  0.60499  1.0000
  H   H1656     1.0  0.35689  0.52252  0.76132  1.0000
  C   C2062     1.0  0.34362  0.34116  0.75413  1.0000
  C   C2063     1.0  0.27651  0.63994  0.89527  1.0000
  C   C2064     1.0  0.29392  0.62318  0.85073  1.0000
  H   H1657     1.0  0.29037  0.54871  0.78015  1.0000
  H   H1658     1.0  0.31908  0.55508  0.76505  1.0000
  H   H1659     1.0  0.32182  0.57723  0.73764  1.0000
  H   H1660     1.0  0.31483  0.54174  0.82179  1.0000
  H   H1661     1.0  0.35609  0.57033  0.72468  1.0000
  H   H1662     1.0  0.26686  0.47610  0.84768  1.0000
  C   C2065     1.0  0.38400  0.38385  0.69298  1.0000
  C   C2066     1.0  0.37623  0.37505  0.70891  1.0000
  C   C2067     1.0  0.36581  0.38427  0.72137  1.0000
  C   C2068     1.0  0.36320  0.40227  0.71799  1.0000
  C   C2069     1.0  0.37063  0.41127  0.70190  1.0000
  C   C2070     1.0  0.38133  0.40190  0.68948  1.0000
  P   P66       1.0  0.36978  0.43407  0.69900  1.0000
  C   C2071     1.0  0.34891  0.44562  0.70865  1.0000
  C   C2072     1.0  0.38735  0.43479  0.70848  1.0000
  C   C2073     1.0  0.38402  0.43875  0.72491  1.0000
  C   C2074     1.0  0.39784  0.43794  0.73263  1.0000
  C   C2075     1.0  0.41504  0.43249  0.72435  1.0000
  C   C2076     1.0  0.41846  0.42832  0.70811  1.0000
  C   C2077     1.0  0.40468  0.42951  0.70015  1.0000
  C   C2078     1.0  0.34755  0.46189  0.71224  1.0000
  C   C2079     1.0  0.33139  0.47103  0.71952  1.0000
  C   C2080     1.0  0.31649  0.46412  0.72310  1.0000
  C   C2081     1.0  0.31760  0.44838  0.71872  1.0000
  C   C2082     1.0  0.33372  0.43910  0.71155  1.0000
  C   C2083     1.0  0.37314  0.44457  0.67658  1.0000
  C   C2084     1.0  0.36560  0.44011  0.66504  1.0000
  C   C2085     1.0  0.36756  0.44886  0.64778  1.0000
  C   C2086     1.0  0.37673  0.46230  0.64205  1.0000
  C   C2087     1.0  0.38401  0.46699  0.65357  1.0000
  C   C2088     1.0  0.38218  0.45821  0.67080  1.0000
  H   H1663     1.0  0.39253  0.37655  0.68365  1.0000
  H   H1664     1.0  0.37861  0.36105  0.71176  1.0000
  H   H1665     1.0  0.36005  0.37747  0.73383  1.0000
  H   H1666     1.0  0.35573  0.40912  0.72810  1.0000
  H   H1667     1.0  0.38809  0.40843  0.67738  1.0000
  H   H1668     1.0  0.37083  0.44198  0.73203  1.0000
  H   H1669     1.0  0.39517  0.44102  0.74531  1.0000
  H   H1670     1.0  0.42571  0.43107  0.73072  1.0000
  H   H1671     1.0  0.43180  0.42370  0.70194  1.0000
  H   H1672     1.0  0.40751  0.42581  0.68775  1.0000
  H   H1673     1.0  0.35896  0.46752  0.70953  1.0000
  H   H1674     1.0  0.33043  0.48345  0.72251  1.0000
  H   H1675     1.0  0.30413  0.47092  0.72937  1.0000
  H   H1676     1.0  0.30597  0.44320  0.72121  1.0000
  H   H1677     1.0  0.33424  0.42682  0.70848  1.0000
  H   H1678     1.0  0.35805  0.43004  0.66945  1.0000
  H   H1679     1.0  0.36181  0.44536  0.63887  1.0000
  H   H1680     1.0  0.38756  0.46227  0.67965  1.0000
  S   S284      1.0  0.27186  0.57697  0.95503  1.0000
  H   H1681     1.0  0.26113  0.59605  0.89192  1.0000
  C   C2089     1.0  0.37143  0.62518  0.54868  1.0000
  H   H1682     1.0  0.33195  0.32844  0.85627  1.0000
  C   C2090     1.0  0.35876  0.63598  0.58026  1.0000
  C   C2091     1.0  0.26245  0.55534  0.93949  1.0000
  H   H1683     1.0  0.25593  0.51641  0.67582  1.0000
  C   C2092     1.0  0.48007  0.32515  0.82056  1.0000
  H   H1684     1.0  0.33778  0.33276  0.72309  1.0000
  C   C2093     1.0  0.36265  0.56019  0.73371  1.0000
  H   H1685     1.0  0.28243  0.49983  0.78455  1.0000
  C   C2094     1.0  0.27529  0.63885  0.63084  1.0000
  C   C2095     1.0  0.26508  0.55479  0.65213  1.0000
  H   H1686     1.0  0.30336  0.63829  0.88141  1.0000
  H   H1687     1.0  0.39664  0.48324  0.72328  1.0000
  H   H1688     1.0  0.48828  0.32142  0.77422  1.0000
  C   C2096     1.0  0.26880  0.46689  0.83949  1.0000
  C   C2097     1.0  0.28569  0.45883  0.83273  1.0000
  C   C2098     1.0  0.28823  0.44719  0.82196  1.0000
  C   C2099     1.0  0.27391  0.44344  0.81806  1.0000
  H   H1689     1.0  0.34692  0.63941  0.54210  1.0000
  H   H1690     1.0  0.43305  0.33210  0.67566  1.0000
  C   C2100     1.0  0.40237  0.48404  0.73364  1.0000
  H   H1691     1.0  0.37864  0.33199  0.79111  1.0000
  C   C2101     1.0  0.40882  0.52137  0.77539  1.0000
  H   H1692     1.0  0.39382  0.52503  0.80073  1.0000
  H   H1693     1.0  0.35022  0.35192  0.74956  1.0000
  H   H1694     1.0  0.27966  0.52939  0.76691  1.0000
  C   C2102     1.0  0.38000  0.53323  0.75631  1.0000
  H   H1695     1.0  0.41932  0.38382  0.64734  1.0000
  H   H1696     1.0  0.25611  0.41022  0.82073  1.0000
  C   C2103     1.0  0.41715  0.47195  0.73769  1.0000
  C   C2104     1.0  0.25905  0.49391  0.75623  1.0000
  H   H1697     1.0  0.26951  0.64006  0.65777  1.0000
  H   H1698     1.0  0.29681  0.46178  0.83565  1.0000
  H   H1699     1.0  0.30132  0.44119  0.81642  1.0000
  H   H1700     1.0  0.27635  0.43469  0.80936  1.0000
  H   H1701     1.0  0.27807  0.58654  0.80373  1.0000
  C   C2105     1.0  0.37924  0.56057  0.73559  1.0000
  Fe  Fe137     1.0  0.26661  0.59974  0.96859  1.0000
  S   S285      1.0  0.28413  0.61656  0.63372  1.0000
  H   H1702     1.0  0.27591  0.61668  0.57236  1.0000
  C   C2106     1.0  0.36309  0.36962  0.77598  1.0000
  C   C2107     1.0  0.34532  0.37532  0.77577  1.0000
  C   C2108     1.0  0.33371  0.38067  0.79017  1.0000
  C   C2109     1.0  0.33983  0.38021  0.80488  1.0000
  C   C2110     1.0  0.35769  0.37453  0.80522  1.0000
  C   C2111     1.0  0.36926  0.36922  0.79064  1.0000
  P   P67       1.0  0.36550  0.37373  0.82439  1.0000
  C   C2112     1.0  0.38852  0.37425  0.81855  1.0000
  C   C2113     1.0  0.35341  0.39225  0.83367  1.0000
  C   C2114     1.0  0.34842  0.40822  0.82290  1.0000
  C   C2115     1.0  0.33879  0.42248  0.83002  1.0000
  C   C2116     1.0  0.33409  0.42096  0.84792  1.0000
  C   C2117     1.0  0.33910  0.40515  0.85875  1.0000
  C   C2118     1.0  0.34877  0.39085  0.85168  1.0000
  C   C2119     1.0  0.40102  0.35902  0.81652  1.0000
  C   C2120     1.0  0.41880  0.35943  0.81171  1.0000
  C   C2121     1.0  0.42423  0.37506  0.80845  1.0000
  C   C2122     1.0  0.41191  0.39025  0.81039  1.0000
  C   C2123     1.0  0.39412  0.38988  0.81548  1.0000
  C   C2124     1.0  0.36188  0.35433  0.84017  1.0000
  C   C2125     1.0  0.34691  0.34778  0.84200  1.0000
  H   H1703     1.0  0.43546  0.46311  0.75468  1.0000
  P   P68       1.0  0.39193  0.51479  0.76921  1.0000
  H   H1704     1.0  0.26155  0.56532  0.62597  1.0000
  C   C2126     1.0  0.37333  0.34636  0.85159  1.0000
  H   H1705     1.0  0.37216  0.36566  0.76470  1.0000
  H   H1706     1.0  0.34049  0.37590  0.76436  1.0000
  H   H1707     1.0  0.31999  0.38542  0.78979  1.0000
  H   H1708     1.0  0.33063  0.38447  0.81589  1.0000
  H   H1709     1.0  0.38307  0.36493  0.79041  1.0000
  H   H1710     1.0  0.35216  0.40979  0.80897  1.0000
  H   H1711     1.0  0.33531  0.43482  0.82157  1.0000
  H   H1712     1.0  0.32672  0.43208  0.85338  1.0000
  H   H1713     1.0  0.33556  0.40402  0.87264  1.0000
  H   H1714     1.0  0.35260  0.37878  0.86031  1.0000
  H   H1715     1.0  0.39707  0.34686  0.81835  1.0000
  H   H1716     1.0  0.42839  0.34770  0.81003  1.0000
  H   H1717     1.0  0.43798  0.37546  0.80412  1.0000
  H   H1718     1.0  0.41610  0.40244  0.80750  1.0000
  H   H1719     1.0  0.38487  0.40191  0.81656  1.0000
  H   H1720     1.0  0.33765  0.35389  0.83367  1.0000
  C   C2127     1.0  0.28422  0.61021  0.85565  1.0000
  Fe  Fe138     1.0  0.25979  0.39436  0.72459  1.0000
  H   H1721     1.0  0.40623  0.32536  0.67212  1.0000
  H   H1722     1.0  0.38465  0.35149  0.85091  1.0000
  H   H1723     1.0  0.42212  0.48603  0.77153  1.0000
  S   S286      1.0  0.48218  0.33693  0.71420  1.0000
  C   C2128     1.0  0.43523  0.53150  0.78483  1.0000
  C   C2129     1.0  0.25728  0.58452  0.87234  1.0000
  H   H1724     1.0  0.27055  0.52444  0.72107  1.0000
  C   C2130     1.0  0.38795  0.54710  0.74673  1.0000
  P   P69       1.0  0.28024  0.57609  0.86554  1.0000
  C   C2131     1.0  0.43800  0.52743  0.76859  1.0000
  H   H1725     1.0  0.27082  0.61347  0.85398  1.0000
  C   C2132     1.0  0.36344  0.38270  0.61422  1.0000
  C   C2133     1.0  0.34546  0.38784  0.61991  1.0000
  C   C2134     1.0  0.33735  0.38011  0.63623  1.0000
  C   C2135     1.0  0.34717  0.36749  0.64703  1.0000
  C   C2136     1.0  0.36534  0.36261  0.64163  1.0000
  C   C2137     1.0  0.37331  0.36995  0.62494  1.0000
  P   P70       1.0  0.37803  0.34539  0.65488  1.0000
  C   C2138     1.0  0.39761  0.35069  0.65711  1.0000
  C   C2139     1.0  0.36562  0.34111  0.67664  1.0000
  C   C2140     1.0  0.35874  0.35466  0.68570  1.0000
  C   C2141     1.0  0.34883  0.35166  0.70248  1.0000
  C   C2142     1.0  0.34583  0.33511  0.71032  1.0000
  H   H1726     1.0  0.26737  0.64561  0.48805  1.0000
  H   H1727     1.0  0.48771  0.33485  0.81865  1.0000
  C   C2143     1.0  0.40906  0.33812  0.66642  1.0000
  C   C2144     1.0  0.42424  0.34189  0.66850  1.0000
  C   C2145     1.0  0.42798  0.35832  0.66154  1.0000
  C   C2146     1.0  0.41650  0.37102  0.65250  1.0000
  C   C2147     1.0  0.40127  0.36730  0.65041  1.0000
  C   C2148     1.0  0.38297  0.32709  0.64458  1.0000
  C   C2149     1.0  0.25342  0.41588  0.80793  1.0000
  C   C2150     1.0  0.41994  0.32299  0.71831  1.0000
  H   H1728     1.0  0.26654  0.58689  0.74118  1.0000
  H   H1729     1.0  0.27748  0.62134  0.53845  1.0000
  H   H1730     1.0  0.29467  0.64568  0.92211  1.0000
  H   H1731     1.0  0.26182  0.60508  0.61991  1.0000
  C   C2151     1.0  0.26338  0.54102  0.66621  1.0000
  C   C2152     1.0  0.32593  0.34366  0.75390  1.0000
  C   C2153     1.0  0.25288  0.54123  0.63600  1.0000
  C   C2154     1.0  0.29249  0.64067  0.52417  1.0000
  Fe  Fe139     1.0  0.28535  0.62528  0.97625  1.0000
  C   C2155     1.0  0.25442  0.46327  0.83550  1.0000
  C   C2156     1.0  0.35478  0.63555  0.55193  1.0000
  Fe  Fe140     1.0  0.24731  0.63524  0.97439  1.0000
  C   C2157     1.0  0.25176  0.59382  0.88573  1.0000
  C   C2158     1.0  0.25722  0.54023  0.78479  1.0000
  C   C2159     1.0  0.24604  0.42981  0.77501  1.0000
  C   C2160     1.0  0.26918  0.64730  0.64478  1.0000
  C   C2161     1.0  0.25480  0.45366  0.71667  1.0000
  C   C2162     1.0  0.24820  0.61022  0.61932  1.0000
  C   C2163     1.0  0.27501  0.64838  0.61406  1.0000
  C   C2164     1.0  0.31382  0.64794  0.62425  1.0000
  H   H1732     1.0  0.25602  0.31805  0.75102  1.0000
  H   H1733     1.0  0.24442  0.49945  0.70347  1.0000
  C   C2165     1.0  0.37287  0.31724  0.81708  1.0000
  C   C2166     1.0  0.25022  0.55690  0.74181  1.0000
  H   H1734     1.0  0.25139  0.45312  0.64663  1.0000
  H   H1735     1.0  0.24841  0.44293  0.69811  1.0000
  C   C2167     1.0  0.24680  0.57548  0.80255  1.0000
  C   C2168     1.0  0.24635  0.51938  0.80962  1.0000
  S   S287      1.0  0.25113  0.62234  0.47938  1.0000
  H   H1736     1.0  0.24614  0.51679  0.64929  1.0000
  C   C2169     1.0  0.24490  0.43324  0.80401  1.0000
  H   H1737     1.0  0.24551  0.34970  0.74594  1.0000
  C   C2170     1.0  0.24662  0.51502  0.72740  1.0000
  S   S288      1.0  0.24643  0.54179  0.61694  1.0000
  H   H1738     1.0  0.24686  0.55452  0.71722  1.0000
  C   C2171     1.0  0.31818  0.64501  0.60739  1.0000
  C   C2172     1.0  0.24475  0.58117  0.86513  1.0000
  H   H1739     1.0  0.24587  0.49035  0.67654  1.0000
  C   C2173     1.0  0.24476  0.53618  0.79976  1.0000
  H   H1740     1.0  0.24568  0.44789  0.72737  1.0000
  H   H1741     1.0  0.24477  0.47907  0.79882  1.0000
  S   S289      1.0  0.30228  0.69155  0.38076  1.0000
  S   S290      1.0  0.32578  0.70481  0.41082  1.0000
  H   H1742     1.0  0.26570  0.76474  0.47304  1.0000
  S   S291      1.0  0.36973  0.70990  0.98676  1.0000
  Fe  Fe141     1.0  0.26440  0.82240  0.09152  1.0000
  S   S292      1.0  0.25720  0.81366  0.12054  1.0000
  H   H1743     1.0  0.45483  0.73748  0.23383  1.0000
  Fe  Fe142     1.0  0.29835  0.79705  0.08885  1.0000
  S   S293      1.0  0.29417  0.78587  0.11717  1.0000
  S   S294      1.0  0.32280  0.78652  0.07134  1.0000
  Fe  Fe143     1.0  0.26678  0.78681  0.11519  1.0000
  C   C2174     1.0  0.35037  0.66282  0.10291  1.0000
  Fe  Fe144     1.0  0.28522  0.81339  0.12072  1.0000
  S   S295      1.0  0.29406  0.81679  0.14405  1.0000
  S   S296      1.0  0.27183  0.79555  0.08651  1.0000
  S   S297      1.0  0.29156  0.82455  0.09214  1.0000
  Fe  Fe145     1.0  0.36184  0.85919  0.16875  1.0000
  S   S298      1.0  0.37800  0.83266  0.17562  1.0000
  S   S299      1.0  0.34008  0.86586  0.15337  1.0000
  Fe  Fe146     1.0  0.38365  0.87592  0.18417  1.0000
  S   S300      1.0  0.40083  0.85060  0.19230  1.0000
  S   S301      1.0  0.38669  0.90151  0.18837  1.0000
  Fe  Fe147     1.0  0.40088  0.84580  0.16652  1.0000
  S   S302      1.0  0.42680  0.83487  0.15147  1.0000
  Fe  Fe148     1.0  0.37645  0.83986  0.20084  1.0000
  S   S303      1.0  0.37303  0.82220  0.22704  1.0000
  S   S304      1.0  0.38514  0.87189  0.15754  1.0000
  S   S305      1.0  0.35882  0.86561  0.19476  1.0000
  Fe  Fe149     1.0  0.36819  0.69869  0.26778  1.0000
  S   S306      1.0  0.37525  0.72446  0.26318  1.0000
  S   S307      1.0  0.35641  0.68435  0.29369  1.0000
  Fe  Fe150     1.0  0.38338  0.69437  0.23059  1.0000
  S   S308      1.0  0.39169  0.71989  0.22244  1.0000
  S   S309      1.0  0.38685  0.67531  0.21377  1.0000
  Fe  Fe151     1.0  0.40053  0.71256  0.24770  1.0000
  S   S310      1.0  0.42660  0.71500  0.25068  1.0000
  Fe  Fe152     1.0  0.36575  0.72975  0.23844  1.0000
  S   S311      1.0  0.34849  0.75445  0.22803  1.0000
  S   S312      1.0  0.39435  0.68619  0.25450  1.0000
  S   S313      1.0  0.35647  0.70482  0.24434  1.0000
  Fe  Fe153     1.0  0.36663  0.72780  0.00495  1.0000
  H   H1744     1.0  0.24902  0.77237  0.09392  1.0000
  S   S314      1.0  0.38179  0.72639  0.02568  1.0000
  Fe  Fe154     1.0  0.33083  0.74676  0.99763  1.0000
  S   S315      1.0  0.30827  0.76675  0.00699  1.0000
  S   S316      1.0  0.42337  0.76669  0.07991  1.0000
  S   S317      1.0  0.41625  0.81247  0.08708  1.0000
  Fe  Fe155     1.0  0.30222  0.70652  0.40033  1.0000
  Fe  Fe156     1.0  0.44368  0.78354  0.33482  1.0000
  S   S318      1.0  0.44174  0.79745  0.30782  1.0000
  S   S319      1.0  0.42741  0.79771  0.35576  1.0000
  Fe  Fe157     1.0  0.46757  0.75168  0.32275  1.0000
  S   S320      1.0  0.46700  0.76276  0.29480  1.0000
  C   C2175     1.0  0.25456  0.66221  0.43756  1.0000
  Fe  Fe158     1.0  0.47034  0.78680  0.30096  1.0000
  S   S321      1.0  0.26197  0.71295  0.38043  1.0000
  Fe  Fe159     1.0  0.43842  0.77246  0.30398  1.0000
  S   S322      1.0  0.41618  0.77410  0.29138  1.0000
  S   S323      1.0  0.47289  0.77519  0.32846  1.0000
  S   S324      1.0  0.43848  0.75919  0.33145  1.0000
  C   C2176     1.0  0.41684  0.76474  0.44338  1.0000
  C   C2177     1.0  0.33109  0.85896  0.98012  1.0000
  Fe  Fe160     1.0  0.47733  0.89805  0.25785  1.0000
  S   S325      1.0  0.46462  0.92614  0.25102  1.0000
  S   S326      1.0  0.46835  0.88109  0.28324  1.0000
  Fe  Fe161     1.0  0.46520  0.91941  0.22564  1.0000
  S   S327      1.0  0.44265  0.92964  0.21131  1.0000
  C   C2178     1.0  0.24826  0.80083  0.43139  1.0000
  C   C2179     1.0  0.26676  0.82882  0.44717  1.0000
  S   S328      1.0  0.47633  0.89133  0.23314  1.0000
  H   H1745     1.0  0.30657  0.74190  0.06561  1.0000
  H   H1746     1.0  0.26538  0.84359  0.46608  1.0000
  Fe  Fe162     1.0  0.36617  0.76939  0.44200  1.0000
  S   S329      1.0  0.33991  0.78173  0.43561  1.0000
  S   S330      1.0  0.38779  0.75542  0.42375  1.0000
  Fe  Fe163     1.0  0.33941  0.80143  0.45057  1.0000
  S   S331      1.0  0.32779  0.82935  0.44148  1.0000
  Fe  Fe164     1.0  0.32945  0.76655  0.46137  1.0000
  S   S332      1.0  0.30670  0.75477  0.46339  1.0000
  C   C2180     1.0  0.29789  0.84314  0.00917  1.0000
  C   C2181     1.0  0.31447  0.83830  0.45904  1.0000
  H   H1747     1.0  0.34247  0.70437  0.10756  1.0000
  C   C2182     1.0  0.35082  0.90010  0.43561  1.0000
  C   C2183     1.0  0.41012  0.77400  0.47546  1.0000
  C   C2184     1.0  0.48148  0.85143  0.14145  1.0000
  C   C2185     1.0  0.30054  0.85220  0.45635  1.0000
  H   H1748     1.0  0.35988  0.72259  0.13715  1.0000
  H   H1749     1.0  0.29721  0.85657  0.44377  1.0000
  C   C2186     1.0  0.41537  0.78571  0.37373  1.0000
  C   C2187     1.0  0.40176  0.79444  0.38483  1.0000
  C   C2188     1.0  0.39277  0.78520  0.39993  1.0000
  C   C2189     1.0  0.39769  0.76724  0.40419  1.0000
  C   C2190     1.0  0.41099  0.75847  0.39287  1.0000
  C   C2191     1.0  0.41972  0.76766  0.37758  1.0000
  H   H1750     1.0  0.39829  0.80839  0.38182  1.0000
  H   H1751     1.0  0.38226  0.79196  0.40845  1.0000
  H   H1752     1.0  0.41476  0.74454  0.39611  1.0000
  H   H1753     1.0  0.43027  0.76082  0.36918  1.0000
  C   C2192     1.0  0.48364  0.82364  0.28187  1.0000
  S   S333      1.0  0.24666  0.84291  0.07557  1.0000
  C   C2193     1.0  0.43919  0.70538  0.33114  1.0000
  C   C2194     1.0  0.47470  0.85901  0.28261  1.0000
  C   C2195     1.0  0.46836  0.84697  0.29681  1.0000
  C   C2196     1.0  0.47261  0.82933  0.29639  1.0000
  C   C2197     1.0  0.49020  0.83742  0.13357  1.0000
  H   H1754     1.0  0.30321  0.88751  0.47808  1.0000
  H   H1755     1.0  0.46011  0.85132  0.30811  1.0000
  H   H1756     1.0  0.46752  0.82014  0.30739  1.0000
  H   H1757     1.0  0.32926  0.66362  0.46195  1.0000
  C   C2198     1.0  0.42384  0.77820  0.44496  1.0000
  C   C2199     1.0  0.39668  0.73861  0.02680  1.0000
  C   C2200     1.0  0.39772  0.74057  0.04311  1.0000
  C   C2201     1.0  0.41085  0.74807  0.04502  1.0000
  C   C2202     1.0  0.40859  0.74483  0.01228  1.0000
  H   H1758     1.0  0.38857  0.73588  0.05443  1.0000
  H   H1759     1.0  0.41152  0.74933  0.05768  1.0000
  C   C2203     1.0  0.42418  0.73200  0.26111  1.0000
  C   C2204     1.0  0.40969  0.74562  0.26058  1.0000
  C   C2205     1.0  0.40742  0.75870  0.26971  1.0000
  C   C2206     1.0  0.41968  0.75817  0.27933  1.0000
  C   C2207     1.0  0.43438  0.74479  0.27953  1.0000
  C   C2208     1.0  0.43669  0.73175  0.27034  1.0000
  H   H1760     1.0  0.40034  0.74623  0.25295  1.0000
  H   H1761     1.0  0.39613  0.76916  0.26938  1.0000
  H   H1762     1.0  0.44383  0.74442  0.28692  1.0000
  H   H1763     1.0  0.44801  0.72136  0.27055  1.0000
  H   H1764     1.0  0.47255  0.74621  0.37849  1.0000
  S   S334      1.0  0.29536  0.72948  0.33878  1.0000
  H   H1765     1.0  0.27072  0.78890  0.00841  1.0000
  C   C2209     1.0  0.40900  0.76722  0.21608  1.0000
  S   S335      1.0  0.27653  0.70166  0.41688  1.0000
  H   H1766     1.0  0.28510  0.68228  0.04631  1.0000
  C   C2210     1.0  0.33302  0.76167  0.27848  1.0000
  C   C2211     1.0  0.34695  0.77623  0.29199  1.0000
  H   H1767     1.0  0.35995  0.75392  0.28099  1.0000
  C   C2212     1.0  0.36571  0.80363  0.22749  1.0000
  C   C2213     1.0  0.35665  0.80331  0.21513  1.0000
  C   C2214     1.0  0.35110  0.78824  0.21556  1.0000
  C   C2215     1.0  0.35507  0.77333  0.22801  1.0000
  C   C2216     1.0  0.36413  0.77368  0.24034  1.0000
  C   C2217     1.0  0.36910  0.78893  0.24032  1.0000
  H   H1768     1.0  0.35381  0.81468  0.20530  1.0000
  H   H1769     1.0  0.34399  0.78809  0.20605  1.0000
  H   H1770     1.0  0.36745  0.76217  0.24978  1.0000
  H   H1771     1.0  0.37610  0.78915  0.24992  1.0000
  C   C2218     1.0  0.42406  0.82955  0.13302  1.0000
  C   C2219     1.0  0.43836  0.82077  0.12266  1.0000
  C   C2220     1.0  0.43602  0.81546  0.10850  1.0000
  C   C2221     1.0  0.41945  0.81929  0.10450  1.0000
  C   C2222     1.0  0.40527  0.82851  0.11455  1.0000
  C   C2223     1.0  0.40752  0.83349  0.12892  1.0000
  H   H1772     1.0  0.45118  0.81780  0.12576  1.0000
  H   H1773     1.0  0.44707  0.80861  0.10056  1.0000
  H   H1774     1.0  0.39248  0.83149  0.11146  1.0000
  H   H1775     1.0  0.39645  0.84031  0.13687  1.0000
  C   C2224     1.0  0.40354  0.90780  0.19437  1.0000
  C   C2225     1.0  0.40134  0.92533  0.19442  1.0000
  C   C2226     1.0  0.41357  0.93145  0.19950  1.0000
  C   C2227     1.0  0.42823  0.92021  0.20496  1.0000
  C   C2228     1.0  0.43069  0.90251  0.20493  1.0000
  C   C2229     1.0  0.41840  0.89634  0.19951  1.0000
  H   H1776     1.0  0.39001  0.93433  0.19049  1.0000
  H   H1777     1.0  0.41149  0.94510  0.19937  1.0000
  H   H1778     1.0  0.44202  0.89365  0.20894  1.0000
  H   H1779     1.0  0.42031  0.88280  0.19939  1.0000
  C   C2230     1.0  0.32746  0.85194  0.15096  1.0000
  C   C2231     1.0  0.32517  0.83667  0.16296  1.0000
  C   C2232     1.0  0.31461  0.82631  0.16079  1.0000
  C   C2233     1.0  0.30677  0.83069  0.14627  1.0000
  C   C2234     1.0  0.30915  0.84589  0.13421  1.0000
  C   C2235     1.0  0.31919  0.85657  0.13672  1.0000
  H   H1780     1.0  0.33137  0.83295  0.17401  1.0000
  H   H1781     1.0  0.31285  0.81462  0.17023  1.0000
  H   H1782     1.0  0.30317  0.84949  0.12304  1.0000
  H   H1783     1.0  0.32083  0.86836  0.12738  1.0000
  C   C2236     1.0  0.31842  0.78060  0.05385  1.0000
  C   C2237     1.0  0.33110  0.76900  0.04495  1.0000
  C   C2238     1.0  0.32788  0.76451  0.03075  1.0000
  C   C2239     1.0  0.31203  0.77168  0.02528  1.0000
  C   C2240     1.0  0.29939  0.78329  0.03415  1.0000
  C   C2241     1.0  0.30257  0.78769  0.04842  1.0000
  H   H1784     1.0  0.34346  0.76352  0.04893  1.0000
  H   H1785     1.0  0.33796  0.75593  0.02374  1.0000
  H   H1786     1.0  0.28722  0.78909  0.02988  1.0000
  H   H1787     1.0  0.29300  0.79716  0.05467  1.0000
  H   H1788     1.0  0.33261  0.85778  0.99321  1.0000
  H   H1789     1.0  0.32936  0.81280  0.02725  1.0000
  C   C2242     1.0  0.29161  0.84002  0.04026  1.0000
  C   C2243     1.0  0.24916  0.84684  0.38463  1.0000
  C   C2244     1.0  0.37626  0.67959  0.16158  1.0000
  H   H1790     1.0  0.32491  0.68118  0.04768  1.0000
  C   C2245     1.0  0.29974  0.81377  0.98386  1.0000
  H   H1791     1.0  0.39135  0.67540  0.32758  1.0000
  H   H1792     1.0  0.36606  0.70975  0.06060  1.0000
  C   C2246     1.0  0.31253  0.71687  0.32651  1.0000
  C   C2247     1.0  0.31687  0.69896  0.33199  1.0000
  C   C2248     1.0  0.33033  0.68906  0.32179  1.0000
  C   C2249     1.0  0.33937  0.69701  0.30600  1.0000
  C   C2250     1.0  0.33499  0.71492  0.30047  1.0000
  C   C2251     1.0  0.32172  0.72484  0.31084  1.0000
  H   H1793     1.0  0.30969  0.69268  0.34394  1.0000
  H   H1794     1.0  0.33366  0.67521  0.32611  1.0000
  H   H1795     1.0  0.34189  0.72113  0.28830  1.0000
  H   H1796     1.0  0.31851  0.73869  0.30672  1.0000
  C   C2252     1.0  0.32051  0.71911  0.42503  1.0000
  C   C2253     1.0  0.33344  0.72123  0.43244  1.0000
  C   C2254     1.0  0.32933  0.73269  0.44376  1.0000
  C   C2255     1.0  0.31210  0.74136  0.44837  1.0000
  C   C2256     1.0  0.29912  0.73918  0.44106  1.0000
  C   C2257     1.0  0.30340  0.72833  0.42912  1.0000
  H   H1797     1.0  0.34662  0.71399  0.42948  1.0000
  H   H1798     1.0  0.33940  0.73435  0.44937  1.0000
  H   H1799     1.0  0.28583  0.74605  0.44444  1.0000
  H   H1800     1.0  0.29336  0.72692  0.42333  1.0000
  C   C2258     1.0  0.36358  0.79777  0.04557  1.0000
  H   H1801     1.0  0.38878  0.84772  0.39605  1.0000
  C   C2259     1.0  0.42183  0.90097  0.14720  1.0000
  C   C2260     1.0  0.30012  0.71946  0.08479  1.0000
  H   H1802     1.0  0.35909  0.86218  0.43494  1.0000
  C   C2261     1.0  0.34091  0.86162  0.47751  1.0000
  H   H1803     1.0  0.26500  0.77195  0.33552  1.0000
  C   C2262     1.0  0.25112  0.76709  0.99103  1.0000
  C   C2263     1.0  0.36776  0.68686  0.10681  1.0000
  H   H1804     1.0  0.27023  0.86215  0.98044  1.0000
  C   C2264     1.0  0.28407  0.67056  0.04312  1.0000
  C   C2265     1.0  0.40229  0.68873  0.13317  1.0000
  H   H1805     1.0  0.26351  0.81677  0.05440  1.0000
  H   H1806     1.0  0.41923  0.83073  0.31622  1.0000
  C   C2266     1.0  0.35684  0.72945  0.12476  1.0000
  H   H1807     1.0  0.27993  0.87104  0.46770  1.0000
  C   C2267     1.0  0.24808  0.78515  0.37178  1.0000
  C   C2268     1.0  0.41537  0.77951  0.22060  1.0000
  C   C2269     1.0  0.43336  0.77874  0.21739  1.0000
  C   C2270     1.0  0.47351  0.77748  0.21729  1.0000
  C   C2271     1.0  0.42068  0.87347  0.30765  1.0000
  H   H1808     1.0  0.41837  0.68391  0.27472  1.0000
  C   C2272     1.0  0.30214  0.65856  0.98984  1.0000
  C   C2273     1.0  0.47955  0.78175  0.24347  1.0000
  C   C2274     1.0  0.47556  0.77121  0.23451  1.0000
  C   C2275     1.0  0.27044  0.85742  0.39315  1.0000
  H   H1809     1.0  0.45088  0.66100  0.20655  1.0000
  H   H1810     1.0  0.25506  0.87214  0.37423  1.0000
  H   H1811     1.0  0.40635  0.78966  0.22657  1.0000
  H   H1812     1.0  0.43804  0.78834  0.22101  1.0000
  C   C2276     1.0  0.31321  0.83040  0.00998  1.0000
  C   C2277     1.0  0.43596  0.71470  0.35798  1.0000
  H   H1813     1.0  0.28902  0.78976  0.47788  1.0000
  H   H1814     1.0  0.47406  0.75824  0.24106  1.0000
  H   H1815     1.0  0.32029  0.67070  0.08416  1.0000
  C   C2278     1.0  0.31790  0.81186  0.98132  1.0000
  H   H1816     1.0  0.36288  0.84963  0.09780  1.0000
  C   C2279     1.0  0.28818  0.72343  0.02276  1.0000
  C   C2280     1.0  0.46142  0.67105  0.32915  1.0000
  C   C2281     1.0  0.26036  0.78445  0.00564  1.0000
  H   H1817     1.0  0.32748  0.68330  0.10420  1.0000
  C   C2282     1.0  0.36679  0.78535  0.00480  1.0000
  C   C2283     1.0  0.33124  0.78795  0.29553  1.0000
  Fe  Fe165     1.0  0.49226  0.93044  0.24043  1.0000
  C   C2284     1.0  0.30834  0.68042  0.47597  1.0000
  C   C2285     1.0  0.31708  0.77314  0.28237  1.0000
  C   C2286     1.0  0.31634  0.78636  0.29083  1.0000
  P   P71       1.0  0.29789  0.77183  0.27563  1.0000
  C   C2287     1.0  0.29931  0.74976  0.27411  1.0000
  C   C2288     1.0  0.27919  0.77897  0.29172  1.0000
  C   C2289     1.0  0.47029  0.67928  0.10649  1.0000
  S   S336      1.0  0.33940  0.72364  0.01703  1.0000
  C   C2290     1.0  0.43179  0.68506  0.31059  1.0000
  H   H1818     1.0  0.39265  0.67625  0.29674  1.0000
  H   H1819     1.0  0.35810  0.83616  0.12854  1.0000
  C   C2291     1.0  0.30845  0.74411  0.25881  1.0000
  C   C2292     1.0  0.31082  0.72686  0.25768  1.0000
  C   C2293     1.0  0.30413  0.71503  0.27184  1.0000
  C   C2294     1.0  0.29474  0.72055  0.28702  1.0000
  C   C2295     1.0  0.29222  0.73785  0.28814  1.0000
  C   C2296     1.0  0.29697  0.78515  0.25438  1.0000
  C   C2297     1.0  0.30928  0.79557  0.24600  1.0000
  C   C2298     1.0  0.30868  0.80532  0.22931  1.0000
  C   C2299     1.0  0.29603  0.80456  0.22078  1.0000
  C   C2300     1.0  0.28386  0.79409  0.22897  1.0000
  C   C2301     1.0  0.28434  0.78439  0.24568  1.0000
  H   H1820     1.0  0.33053  0.79827  0.30192  1.0000
  C   C2302     1.0  0.25178  0.79149  0.31732  1.0000
  H   H1821     1.0  0.30428  0.79552  0.29376  1.0000
  H   H1822     1.0  0.35634  0.67366  0.03586  1.0000
  H   H1823     1.0  0.39777  0.79851  0.43013  1.0000
  H   H1824     1.0  0.31421  0.75292  0.24783  1.0000
  H   H1825     1.0  0.31825  0.72261  0.24591  1.0000
  H   H1826     1.0  0.30649  0.70153  0.27115  1.0000
  H   H1827     1.0  0.28995  0.71129  0.29818  1.0000
  H   H1828     1.0  0.28542  0.74148  0.30026  1.0000
  H   H1829     1.0  0.31963  0.79589  0.25204  1.0000
  H   H1830     1.0  0.31829  0.81321  0.22278  1.0000
  H   H1831     1.0  0.29582  0.81192  0.20774  1.0000
  C   C2303     1.0  0.31775  0.82276  0.02610  1.0000
  C   C2304     1.0  0.45848  0.82046  0.44347  1.0000
  C   C2305     1.0  0.34603  0.81673  0.12553  1.0000
  H   H1832     1.0  0.33319  0.79997  0.11880  1.0000
  H   H1833     1.0  0.34352  0.81126  0.13921  1.0000
  C   C2306     1.0  0.43174  0.85824  0.33348  1.0000
  C   C2307     1.0  0.42794  0.87349  0.32147  1.0000
  H   H1834     1.0  0.43762  0.85820  0.34403  1.0000
  H   H1835     1.0  0.43103  0.88527  0.32258  1.0000
  C   C2308     1.0  0.48470  0.69944  0.13599  1.0000
  C   C2309     1.0  0.24700  0.75943  0.09959  1.0000
  C   C2310     1.0  0.25189  0.79879  0.29987  1.0000
  C   C2311     1.0  0.31800  0.88999  0.43826  1.0000
  C   C2312     1.0  0.32174  0.87883  0.42664  1.0000
  C   C2313     1.0  0.30960  0.87938  0.41685  1.0000
  C   C2314     1.0  0.29351  0.89087  0.41879  1.0000
  C   C2315     1.0  0.28979  0.90222  0.43005  1.0000
  C   C2316     1.0  0.30205  0.90200  0.43953  1.0000
  H   H1836     1.0  0.47547  0.67408  0.22495  1.0000
  S   S337      1.0  0.48023  0.72458  0.33395  1.0000
  C   C2317     1.0  0.34701  0.91253  0.42095  1.0000
  C   C2318     1.0  0.40680  0.75585  0.45776  1.0000
  C   C2319     1.0  0.40658  0.68053  0.14923  1.0000
  H   H1837     1.0  0.33375  0.86934  0.42536  1.0000
  H   H1838     1.0  0.31239  0.87029  0.40841  1.0000
  H   H1839     1.0  0.28373  0.89084  0.41183  1.0000
  H   H1840     1.0  0.27722  0.91104  0.43162  1.0000
  H   H1841     1.0  0.36340  0.65417  0.27386  1.0000
  C   C2320     1.0  0.47758  0.74151  0.21364  1.0000
  H   H1842     1.0  0.33399  0.91602  0.41824  1.0000
  C   C2321     1.0  0.41658  0.71897  0.16775  1.0000
  C   C2322     1.0  0.40587  0.70725  0.17662  1.0000
  C   C2323     1.0  0.38783  0.71224  0.17785  1.0000
  C   C2324     1.0  0.38044  0.72901  0.17043  1.0000
  C   C2325     1.0  0.39106  0.74113  0.16216  1.0000
  C   C2326     1.0  0.40924  0.73580  0.16041  1.0000
  P   P72       1.0  0.38161  0.76340  0.15425  1.0000
  C   C2327     1.0  0.39318  0.77638  0.16047  1.0000
  C   C2328     1.0  0.38447  0.76805  0.13104  1.0000
  C   C2329     1.0  0.38553  0.75504  0.12221  1.0000
  C   C2330     1.0  0.38452  0.75935  0.10473  1.0000
  C   C2331     1.0  0.38252  0.77658  0.09601  1.0000
  C   C2332     1.0  0.38248  0.78942  0.10448  1.0000
  C   C2333     1.0  0.38335  0.78524  0.12195  1.0000
  C   C2334     1.0  0.40906  0.77993  0.14995  1.0000
  C   C2335     1.0  0.41874  0.78895  0.15510  1.0000
  C   C2336     1.0  0.41268  0.79462  0.17071  1.0000
  C   C2337     1.0  0.39688  0.79126  0.18119  1.0000
  C   C2338     1.0  0.38716  0.78217  0.17614  1.0000
  C   C2339     1.0  0.35835  0.76792  0.16323  1.0000
  C   C2340     1.0  0.35196  0.76335  0.18109  1.0000
  C   C2341     1.0  0.33399  0.76669  0.18784  1.0000
  C   C2342     1.0  0.32224  0.77454  0.17687  1.0000
  C   C2343     1.0  0.32841  0.77876  0.15909  1.0000
  C   C2344     1.0  0.34633  0.77537  0.15230  1.0000
  H   H1843     1.0  0.43060  0.71505  0.16653  1.0000
  H   H1844     1.0  0.37954  0.70310  0.18472  1.0000
  H   H1845     1.0  0.36646  0.73247  0.17148  1.0000
  H   H1846     1.0  0.41784  0.74458  0.15341  1.0000
  H   H1847     1.0  0.38687  0.74166  0.12885  1.0000
  H   H1848     1.0  0.38542  0.74940  0.09782  1.0000
  H   H1849     1.0  0.38175  0.77988  0.08248  1.0000
  H   H1850     1.0  0.38183  0.80266  0.09751  1.0000
  H   H1851     1.0  0.38273  0.79551  0.12842  1.0000
  H   H1852     1.0  0.41409  0.77565  0.13777  1.0000
  H   H1853     1.0  0.43084  0.79177  0.14684  1.0000
  H   H1854     1.0  0.42007  0.80189  0.17452  1.0000
  H   H1855     1.0  0.39206  0.79591  0.19317  1.0000
  H   H1856     1.0  0.37504  0.77980  0.18455  1.0000
  H   H1857     1.0  0.36083  0.75704  0.18983  1.0000
  H   H1858     1.0  0.32917  0.76323  0.20163  1.0000
  H   H1859     1.0  0.30835  0.77734  0.18211  1.0000
  H   H1860     1.0  0.31927  0.78479  0.15057  1.0000
  H   H1861     1.0  0.35064  0.77858  0.13847  1.0000
  C   C2345     1.0  0.38192  0.73392  0.30816  1.0000
  C   C2346     1.0  0.37286  0.72046  0.31265  1.0000
  C   C2347     1.0  0.35901  0.71993  0.32688  1.0000
  C   C2348     1.0  0.35396  0.73300  0.33641  1.0000
  C   C2349     1.0  0.36289  0.74670  0.33198  1.0000
  C   C2350     1.0  0.37699  0.74700  0.31773  1.0000
  P   P73       1.0  0.35638  0.76365  0.34445  1.0000
  C   C2351     1.0  0.33370  0.77438  0.34541  1.0000
  C   C2352     1.0  0.35907  0.75556  0.36663  1.0000
  C   C2353     1.0  0.35981  0.73804  0.37451  1.0000
  C   C2354     1.0  0.36099  0.73231  0.39189  1.0000
  C   C2355     1.0  0.36162  0.74394  0.40153  1.0000
  C   C2356     1.0  0.36103  0.76131  0.39381  1.0000
  C   C2357     1.0  0.35978  0.76711  0.37649  1.0000
  C   C2358     1.0  0.32710  0.78878  0.35331  1.0000
  C   C2359     1.0  0.30945  0.79679  0.35499  1.0000
  C   C2360     1.0  0.29818  0.79043  0.34890  1.0000
  C   C2361     1.0  0.30462  0.77620  0.34094  1.0000
  C   C2362     1.0  0.32232  0.76839  0.33889  1.0000
  C   C2363     1.0  0.36965  0.77974  0.33462  1.0000
  C   C2364     1.0  0.36440  0.79371  0.32169  1.0000
  C   C2365     1.0  0.37512  0.80563  0.31337  1.0000
  C   C2366     1.0  0.39097  0.80387  0.31817  1.0000
  C   C2367     1.0  0.39611  0.79021  0.33126  1.0000
  C   C2368     1.0  0.38568  0.77800  0.33927  1.0000
  H   H1862     1.0  0.39275  0.73423  0.29718  1.0000
  H   H1863     1.0  0.37644  0.71051  0.30504  1.0000
  H   H1864     1.0  0.35198  0.70948  0.33040  1.0000
  H   H1865     1.0  0.34292  0.73242  0.34717  1.0000
  H   H1866     1.0  0.38430  0.75725  0.31386  1.0000
  H   H1867     1.0  0.35940  0.72862  0.36756  1.0000
  H   H1868     1.0  0.36119  0.71885  0.39796  1.0000
  H   H1869     1.0  0.36260  0.73951  0.41500  1.0000
  H   H1870     1.0  0.36160  0.77028  0.40133  1.0000
  H   H1871     1.0  0.35954  0.78063  0.37085  1.0000
  H   H1872     1.0  0.33550  0.79379  0.35837  1.0000
  H   H1873     1.0  0.30439  0.80763  0.36148  1.0000
  H   H1874     1.0  0.48547  0.73233  0.28136  1.0000
  H   H1875     1.0  0.29588  0.77089  0.33667  1.0000
  H   H1876     1.0  0.32678  0.75764  0.33235  1.0000
  H   H1877     1.0  0.35219  0.79525  0.31786  1.0000
  H   H1878     1.0  0.37131  0.81606  0.30301  1.0000
  H   H1879     1.0  0.39948  0.81284  0.31154  1.0000
  H   H1880     1.0  0.40839  0.78885  0.33495  1.0000
  H   H1881     1.0  0.39025  0.76722  0.34900  1.0000
  C   C2369     1.0  0.48722  0.97409  0.20132  1.0000
  H   H1882     1.0  0.48518  0.81673  0.44588  1.0000
  C   C2370     1.0  0.42763  0.88366  0.14584  1.0000
  H   H1883     1.0  0.35515  0.79115  0.04238  1.0000
  C   C2371     1.0  0.44575  0.89875  0.16102  1.0000
  C   C2372     1.0  0.49370  0.77234  0.17628  1.0000
  H   H1884     1.0  0.47259  0.70753  0.06800  1.0000
  H   H1885     1.0  0.33000  0.91558  0.28723  1.0000
  H   H1886     1.0  0.43704  0.71384  0.05578  1.0000
  C   C2373     1.0  0.25312  0.80743  0.16750  1.0000
  H   H1887     1.0  0.30990  0.70594  0.03192  1.0000
  H   H1888     1.0  0.29572  0.67714  0.00627  1.0000
  H   H1889     1.0  0.49123  0.86244  0.25730  1.0000
  C   C2374     1.0  0.27245  0.73490  0.02691  1.0000
  C   C2375     1.0  0.34040  0.81029  0.11403  1.0000
  C   C2376     1.0  0.46778  0.66470  0.23277  1.0000
  H   H1890     1.0  0.41428  0.92260  0.24290  1.0000
  H   H1891     1.0  0.37746  0.82354  0.41743  1.0000
  H   H1892     1.0  0.47157  0.95510  0.18471  1.0000
  C   C2377     1.0  0.42033  0.78284  0.46112  1.0000
  C   C2378     1.0  0.39236  0.79949  0.04763  1.0000
  H   H1893     1.0  0.45207  0.90471  0.16741  1.0000
  H   H1894     1.0  0.48029  0.76596  0.02209  1.0000
  H   H1895     1.0  0.41716  0.69641  0.05313  1.0000
  C   C2379     1.0  0.32560  0.83609  0.24954  1.0000
  C   C2380     1.0  0.47439  0.68762  0.28684  1.0000
  C   C2381     1.0  0.44519  0.70415  0.34619  1.0000
  H   H1896     1.0  0.49340  0.96144  0.20729  1.0000
  C   C2382     1.0  0.29802  0.71497  0.03540  1.0000
  C   C2383     1.0  0.30247  0.73661  0.07923  1.0000
  C   C2384     1.0  0.46492  0.69098  0.09219  1.0000
  C   C2385     1.0  0.45855  0.77182  0.38141  1.0000
  C   C2386     1.0  0.46573  0.75458  0.38755  1.0000
  C   C2387     1.0  0.31787  0.83190  0.47570  1.0000
  C   C2388     1.0  0.45491  0.75895  0.41695  1.0000
  C   C2389     1.0  0.44729  0.77622  0.41088  1.0000
  C   C2390     1.0  0.44931  0.78260  0.39299  1.0000
  P   P74       1.0  0.43605  0.79019  0.42606  1.0000
  C   C2391     1.0  0.45171  0.79851  0.43231  1.0000
  H   H1897     1.0  0.40122  0.74565  0.45636  1.0000
  C   C2392     1.0  0.25438  0.82634  0.03044  1.0000
  C   C2393     1.0  0.42102  0.80834  0.41644  1.0000
  C   C2394     1.0  0.40296  0.80907  0.42116  1.0000
  C   C2395     1.0  0.39138  0.82328  0.41392  1.0000
  C   C2396     1.0  0.39776  0.83686  0.40185  1.0000
  C   C2397     1.0  0.41573  0.83629  0.39708  1.0000
  C   C2398     1.0  0.42732  0.82213  0.40440  1.0000
  H   H1898     1.0  0.45973  0.77678  0.36764  1.0000
  C   C2399     1.0  0.29999  0.65620  0.09276  1.0000
  C   C2400     1.0  0.29053  0.86017  0.47002  1.0000
  H   H1899     1.0  0.45377  0.75377  0.43068  1.0000
  H   H1900     1.0  0.44352  0.79573  0.38779  1.0000
  C   C2401     1.0  0.25510  0.82700  0.04731  1.0000
  Fe  Fe166     1.0  0.43465  0.78769  0.08322  1.0000
  H   H1901     1.0  0.43204  0.83101  0.34050  1.0000
  C   C2402     1.0  0.30181  0.92473  0.25998  1.0000
  H   H1902     1.0  0.39512  0.76781  0.21844  1.0000
  C   C2403     1.0  0.42864  0.84289  0.33145  1.0000
  H   H1903     1.0  0.41155  0.69426  0.18245  1.0000
  C   C2404     1.0  0.42342  0.75332  0.03068  1.0000
  C   C2405     1.0  0.48361  0.71534  0.12453  1.0000
  H   H1904     1.0  0.41809  0.88546  0.29847  1.0000
  H   H1905     1.0  0.30744  0.65577  0.05161  1.0000
  C   C2406     1.0  0.44503  0.76562  0.20961  1.0000
  C   C2407     1.0  0.36400  0.84075  0.45568  1.0000
  H   H1906     1.0  0.43886  0.66003  0.34305  1.0000
  C   C2408     1.0  0.35432  0.83077  0.11950  1.0000
  H   H1907     1.0  0.48848  0.74805  0.14125  1.0000
  C   C2409     1.0  0.48401  0.73821  0.02812  1.0000
  H   H1908     1.0  0.25440  0.74688  0.04694  1.0000
  H   H1909     1.0  0.41881  0.76129  0.43097  1.0000
  C   C2410     1.0  0.26911  0.65565  0.03120  1.0000
  H   H1910     1.0  0.34367  0.65352  0.10145  1.0000
  C   C2411     1.0  0.44226  0.87381  0.15233  1.0000
  C   C2412     1.0  0.46781  0.73178  0.22774  1.0000
  C   C2413     1.0  0.42052  0.75427  0.20818  1.0000
  C   C2414     1.0  0.41687  0.68140  0.32297  1.0000
  C   C2415     1.0  0.42289  0.71825  0.08092  1.0000
  S   S338      1.0  0.35570  0.75253  0.46689  1.0000
  H   H1911     1.0  0.33416  0.75167  0.27149  1.0000
  H   H1912     1.0  0.40629  0.79419  0.04602  1.0000
  H   H1913     1.0  0.47119  0.89573  0.18612  1.0000
  S   S339      1.0  0.36687  0.79070  0.45454  1.0000
  H   H1914     1.0  0.29284  0.72101  0.00978  1.0000
  C   C2416     1.0  0.24922  0.78293  0.43617  1.0000
  H   H1915     1.0  0.42057  0.87764  0.14014  1.0000
  C   C2417     1.0  0.41721  0.85813  0.30568  1.0000
  C   C2418     1.0  0.42150  0.84277  0.31757  1.0000
  C   C2419     1.0  0.37686  0.91665  0.41306  1.0000
  C   C2420     1.0  0.34395  0.81727  0.09635  1.0000
  C   C2421     1.0  0.38484  0.69249  0.13120  1.0000
  C   C2422     1.0  0.43847  0.75343  0.20498  1.0000
  H   H1916     1.0  0.41555  0.74487  0.20455  1.0000
  H   H1917     1.0  0.25838  0.65569  0.02549  1.0000
  C   C2423     1.0  0.36002  0.92072  0.40970  1.0000
  Fe  Fe167     1.0  0.28889  0.71694  0.36696  1.0000
  C   C2424     1.0  0.41260  0.91022  0.25121  1.0000
  H   H1918     1.0  0.38711  0.92021  0.26498  1.0000
  C   C2425     1.0  0.39730  0.90884  0.26361  1.0000
  H   H1919     1.0  0.43785  0.89690  0.24016  1.0000
  H   H1920     1.0  0.38364  0.89221  0.28436  1.0000
  H   H1921     1.0  0.44396  0.84215  0.27934  1.0000
  H   H1922     1.0  0.29131  0.74888  0.11804  1.0000
  C   C2426     1.0  0.29949  0.74709  0.09123  1.0000
  C   C2427     1.0  0.35722  0.83825  0.10193  1.0000
  H   H1923     1.0  0.33966  0.81194  0.08764  1.0000
  C   C2428     1.0  0.33601  0.66491  0.98262  1.0000
  C   C2429     1.0  0.33864  0.68345  0.46767  1.0000
  H   H1924     1.0  0.42684  0.66254  0.25561  1.0000
  P   P75       1.0  0.46833  0.76393  0.20565  1.0000
  C   C2430     1.0  0.27809  0.81709  0.47343  1.0000
  H   H1925     1.0  0.46076  0.67393  0.11705  1.0000
  S   S340      1.0  0.33069  0.73142  0.97851  1.0000
  C   C2431     1.0  0.42590  0.89567  0.24959  1.0000
  C   C2432     1.0  0.39531  0.89288  0.27441  1.0000
  C   C2433     1.0  0.40856  0.87810  0.27271  1.0000
  H   H1926     1.0  0.26166  0.77395  0.43465  1.0000
  H   H1927     1.0  0.33248  0.76732  0.10704  1.0000
  C   C2434     1.0  0.39764  0.70491  0.09320  1.0000
  C   C2435     1.0  0.30859  0.66294  0.42559  1.0000
  C   C2436     1.0  0.25074  0.76848  0.38213  1.0000
  H   H1928     1.0  0.37966  0.89307  0.03665  1.0000
  C   C2437     1.0  0.34776  0.76300  0.28368  1.0000
  H   H1929     1.0  0.41572  0.68171  0.33640  1.0000
  C   C2438     1.0  0.42399  0.87970  0.26034  1.0000
  P   P76       1.0  0.40703  0.85816  0.28833  1.0000
  C   C2439     1.0  0.43645  0.83499  0.27557  1.0000
  H   H1930     1.0  0.43480  0.86884  0.25920  1.0000
  H   H1931     1.0  0.45925  0.81701  0.26604  1.0000
  C   C2440     1.0  0.40292  0.67800  0.31803  1.0000
  C   C2441     1.0  0.35283  0.83102  0.09010  1.0000
  H   H1932     1.0  0.49197  0.66646  0.11895  1.0000
  C   C2442     1.0  0.34522  0.74546  0.12380  1.0000
  Fe  Fe168     1.0  0.27536  0.68889  0.39615  1.0000
  H   H1933     1.0  0.33929  0.75066  0.13537  1.0000
  H   H1934     1.0  0.31962  0.86601  0.02446  1.0000
  C   C2443     1.0  0.29398  0.74062  0.10880  1.0000
  H   H1935     1.0  0.28648  0.71896  0.12796  1.0000
  H   H1936     1.0  0.30119  0.76033  0.08688  1.0000
  H   H1937     1.0  0.35875  0.87385  0.04381  1.0000
  H   H1938     1.0  0.32332  0.85488  0.08618  1.0000
  H   H1939     1.0  0.44596  0.86023  0.15182  1.0000
  C   C2444     1.0  0.48639  0.72568  0.16165  1.0000
  H   H1940     1.0  0.28961  0.76168  0.31325  1.0000
  H   H1941     1.0  0.49319  0.78568  0.13332  1.0000
  C   C2445     1.0  0.41819  0.83987  0.27826  1.0000
  C   C2446     1.0  0.44518  0.82073  0.26804  1.0000
  H   H1942     1.0  0.38661  0.84682  0.32334  1.0000
  H   H1943     1.0  0.38942  0.81772  0.99284  1.0000
  H   H1944     1.0  0.36622  0.72729  0.08210  1.0000
  C   C2447     1.0  0.29134  0.72368  0.11439  1.0000
  H   H1945     1.0  0.44122  0.82183  0.40053  1.0000
  H   H1946     1.0  0.38690  0.92307  0.40436  1.0000
  H   H1947     1.0  0.44725  0.74323  0.19892  1.0000
  H   H1948     1.0  0.47658  0.86361  0.13352  1.0000
  C   C2448     1.0  0.38152  0.79117  0.04320  1.0000
  C   C2449     1.0  0.38435  0.85664  0.29652  1.0000
  C   C2450     1.0  0.37815  0.85036  0.31412  1.0000
  C   C2451     1.0  0.40076  0.69817  0.07822  1.0000
  H   H1949     1.0  0.33992  0.78833  0.00377  1.0000
  C   C2452     1.0  0.36997  0.86990  0.04983  1.0000
  H   H1950     1.0  0.29598  0.87078  0.07685  1.0000
  C   C2453     1.0  0.40358  0.67855  0.30066  1.0000
  C   C2454     1.0  0.34990  0.69156  0.10629  1.0000
  H   H1951     1.0  0.35699  0.93031  0.39843  1.0000
  S   S341      1.0  0.29101  0.73206  0.38542  1.0000
  H   H1952     1.0  0.48654  0.67867  0.31905  1.0000
  H   H1953     1.0  0.26214  0.72771  0.44842  1.0000
  H   H1954     1.0  0.35860  0.77741  0.29547  1.0000
  C   C2455     1.0  0.37285  0.86106  0.28505  1.0000
  H   H1955     1.0  0.37738  0.86589  0.27145  1.0000
  C   C2456     1.0  0.33117  0.89252  0.21918  1.0000
  P   P77       1.0  0.35753  0.83963  0.06716  1.0000
  C   C2457     1.0  0.38182  0.88090  0.04572  1.0000
  C   C2458     1.0  0.32275  0.85715  0.07265  1.0000
  H   H1956     1.0  0.25291  0.75116  0.30705  1.0000
  C   C2459     1.0  0.25243  0.83134  0.39649  1.0000
  H   H1957     1.0  0.29407  0.87667  0.04601  1.0000
  C   C2460     1.0  0.36083  0.84836  0.32005  1.0000
  H   H1958     1.0  0.35621  0.84337  0.33364  1.0000
  C   C2461     1.0  0.48788  0.67503  0.10754  1.0000
  C   C2462     1.0  0.29439  0.71309  0.10245  1.0000
  C   C2463     1.0  0.48119  0.79631  0.43590  1.0000
  C   C2464     1.0  0.37265  0.85413  0.06167  1.0000
  C   C2465     1.0  0.30723  0.86632  0.06739  1.0000
  H   H1959     1.0  0.27798  0.76852  0.98868  1.0000
  C   C2466     1.0  0.45294  0.71679  0.12623  1.0000
  C   C2467     1.0  0.45379  0.70116  0.13832  1.0000
  H   H1960     1.0  0.44231  0.69559  0.14349  1.0000
  H   H1961     1.0  0.40805  0.74333  0.99965  1.0000
  S   S342      1.0  0.32681  0.78717  0.47592  1.0000
  H   H1962     1.0  0.47275  0.72647  0.16189  1.0000
  C   C2468     1.0  0.34959  0.85248  0.30847  1.0000
  C   C2469     1.0  0.35562  0.85877  0.29096  1.0000
  C   C2470     1.0  0.43578  0.81106  0.26337  1.0000
  C   C2471     1.0  0.40885  0.83020  0.27325  1.0000
  C   C2472     1.0  0.32442  0.91460  0.27684  1.0000
  H   H1963     1.0  0.30423  0.91146  0.23967  1.0000
  H   H1964     1.0  0.47570  0.73794  0.01969  1.0000
  C   C2473     1.0  0.25079  0.65291  0.45471  1.0000
  C   C2474     1.0  0.38523  0.81439  0.05455  1.0000
  C   C2475     1.0  0.36716  0.82118  0.05695  1.0000
  C   C2476     1.0  0.39643  0.87626  0.05338  1.0000
  C   C2477     1.0  0.33728  0.85102  0.06054  1.0000
  H   H1965     1.0  0.40562  0.88475  0.05024  1.0000
  C   C2478     1.0  0.47949  0.84972  0.15937  1.0000
  H   H1966     1.0  0.39394  0.82021  0.05829  1.0000
  H   H1967     1.0  0.24543  0.82133  0.39744  1.0000
  H   H1968     1.0  0.25977  0.83973  0.43924  1.0000
  S   S343      1.0  0.44940  0.77078  0.10315  1.0000
  S   S344      1.0  0.45711  0.78558  0.06073  1.0000
  C   C2479     1.0  0.42196  0.75203  0.01425  1.0000
  H   H1969     1.0  0.30500  0.79373  0.42468  1.0000
  H   H1970     1.0  0.33624  0.85071  0.31306  1.0000
  H   H1971     1.0  0.44252  0.79972  0.25802  1.0000
  H   H1972     1.0  0.39481  0.83338  0.27516  1.0000
  C   C2480     1.0  0.46396  0.74815  0.40532  1.0000
  H   H1973     1.0  0.28743  0.70441  0.45362  1.0000
  H   H1974     1.0  0.29195  0.70013  0.10703  1.0000
  H   H1975     1.0  0.34704  0.86170  0.28190  1.0000
  C   C2481     1.0  0.32727  0.70027  0.06078  1.0000
  C   C2482     1.0  0.35640  0.81264  0.05248  1.0000
  C   C2483     1.0  0.38729  0.84973  0.06930  1.0000
  C   C2484     1.0  0.39914  0.86065  0.06519  1.0000
  H   H1976     1.0  0.46238  0.78348  0.14426  1.0000
  C   C2485     1.0  0.30617  0.86966  0.05001  1.0000
  H   H1977     1.0  0.34238  0.81711  0.05478  1.0000
  P   P78       1.0  0.30407  0.70606  0.06913  1.0000
  C   C2486     1.0  0.25797  0.85998  0.38313  1.0000
  Fe  Fe169     1.0  0.44640  0.76338  0.05839  1.0000
  Fe  Fe170     1.0  0.44068  0.74933  0.09742  1.0000
  S   S345      1.0  0.43365  0.72717  0.11870  1.0000
  C   C2487     1.0  0.45025  0.67018  0.24002  1.0000
  C   C2488     1.0  0.41763  0.81586  0.26591  1.0000
  H   H1978     1.0  0.41003  0.90837  0.14282  1.0000
  C   C2489     1.0  0.33607  0.85427  0.04311  1.0000
  H   H1979     1.0  0.38944  0.83785  0.07866  1.0000
  H   H1980     1.0  0.39205  0.69092  0.07654  1.0000
  C   C2490     1.0  0.47956  0.66894  0.32739  1.0000
  C   C2491     1.0  0.30701  0.82767  0.04114  1.0000
  C   C2492     1.0  0.34090  0.90371  0.20678  1.0000
  H   H1981     1.0  0.27172  0.73217  0.06919  1.0000
  C   C2493     1.0  0.41504  0.70123  0.06486  1.0000
  H   H1982     1.0  0.34604  0.75547  0.08061  1.0000
  C   C2494     1.0  0.30662  0.67119  0.08516  1.0000
  C   C2495     1.0  0.32059  0.86366  0.03786  1.0000
  H   H1983     1.0  0.41041  0.85692  0.07125  1.0000
  C   C2496     1.0  0.45160  0.88129  0.15982  1.0000
  H   H1984     1.0  0.46733  0.73614  0.11067  1.0000
  P   P79       1.0  0.37889  0.70180  0.11037  1.0000
  H   H1985     1.0  0.42069  0.84672  0.38757  1.0000
  P   P80       1.0  0.46958  0.86803  0.16956  1.0000
  H   H1986     1.0  0.38701  0.77951  0.03808  1.0000
  H   H1987     1.0  0.47333  0.79982  0.19620  1.0000
  H   H1988     1.0  0.39522  0.84717  0.23719  1.0000
  H   H1989     1.0  0.41035  0.80813  0.26255  1.0000
  C   C2497     1.0  0.48588  0.85329  0.26813  1.0000
  S   S346      1.0  0.26539  0.66425  0.40201  1.0000
  C   C2498     1.0  0.32561  0.90086  0.25328  1.0000
  C   C2499     1.0  0.43091  0.90852  0.15475  1.0000
  H   H1990     1.0  0.42604  0.92177  0.15635  1.0000
  H   H1991     1.0  0.34713  0.84960  0.03360  1.0000
  C   C2500     1.0  0.36047  0.73221  0.09385  1.0000
  C   C2501     1.0  0.46970  0.69248  0.14329  1.0000
  C   C2502     1.0  0.26127  0.65339  0.42383  1.0000
  H   H1992     1.0  0.28796  0.76814  0.38399  1.0000
  C   C2503     1.0  0.46033  0.85970  0.19177  1.0000
  H   H1993     1.0  0.33477  0.71804  0.07208  1.0000
  C   C2504     1.0  0.42273  0.66733  0.21061  1.0000
  H   H1994     1.0  0.42158  0.67957  0.21407  1.0000
  C   C2505     1.0  0.33914  0.70807  0.06453  1.0000
  S   S347      1.0  0.44147  0.76084  0.03279  1.0000
  C   C2506     1.0  0.49060  0.97956  0.18331  1.0000
  C   C2507     1.0  0.28300  0.80075  0.46922  1.0000
  H   H1995     1.0  0.25416  0.75820  0.98236  1.0000
  C   C2508     1.0  0.38763  0.86016  0.23737  1.0000
  H   H1996     1.0  0.41004  0.87160  0.23287  1.0000
  H   H1997     1.0  0.42001  0.67775  0.15073  1.0000
  H   H1998     1.0  0.44432  0.68382  0.23779  1.0000
  C   C2509     1.0  0.27662  0.72980  0.05621  1.0000
  C   C2510     1.0  0.47713  0.69834  0.07879  1.0000
  C   C2511     1.0  0.41505  0.72831  0.33955  1.0000
  C   C2512     1.0  0.29565  0.68659  0.07881  1.0000
  C   C2513     1.0  0.34133  0.75484  0.10789  1.0000
  C   C2514     1.0  0.34898  0.74820  0.09295  1.0000
  C   C2515     1.0  0.47585  0.81166  0.44211  1.0000
  H   H1999     1.0  0.32940  0.82549  0.24273  1.0000
  H   H2000     1.0  0.36844  0.77155  0.01002  1.0000
  H   H2001     1.0  0.37262  0.83250  0.44723  1.0000
  H   H2002     1.0  0.34464  0.89344  0.26971  1.0000
  S   S348      1.0  0.32789  0.68542  0.00698  1.0000
  C   C2516     1.0  0.42622  0.71110  0.06630  1.0000
  H   H2003     1.0  0.45520  0.93915  0.17482  1.0000
  H   H2004     1.0  0.26680  0.79080  0.39748  1.0000
  C   C2517     1.0  0.39595  0.87385  0.23496  1.0000
  C   C2518     1.0  0.26445  0.77297  0.99446  1.0000
  C   C2519     1.0  0.37856  0.81137  0.99510  1.0000
  C   C2520     1.0  0.29242  0.71817  0.05220  1.0000
  C   C2521     1.0  0.48855  0.78142  0.14704  1.0000
  H   H2005     1.0  0.44059  0.85042  0.18503  1.0000
  C   C2522     1.0  0.47494  0.93462  0.15226  1.0000
  C   C2523     1.0  0.36239  0.82095  0.99157  1.0000
  C   C2524     1.0  0.29166  0.77368  0.39291  1.0000
  H   H2006     1.0  0.36354  0.85236  0.24129  1.0000
  Fe  Fe171     1.0  0.34146  0.70830  0.99713  1.0000
  C   C2525     1.0  0.31507  0.83442  0.26604  1.0000
  H   H2007     1.0  0.28442  0.79637  0.35062  1.0000
  P   P81       1.0  0.33397  0.88984  0.45045  1.0000
  C   C2526     1.0  0.49133  0.70928  0.27115  1.0000
  C   C2527     1.0  0.42438  0.71797  0.32760  1.0000
  C   C2528     1.0  0.44593  0.85179  0.19541  1.0000
  S   S349      1.0  0.26360  0.90847  0.47413  1.0000
  C   C2529     1.0  0.30816  0.76765  0.39707  1.0000
  H   H2008     1.0  0.30234  0.84676  0.28763  1.0000
  C   C2530     1.0  0.27971  0.78663  0.40053  1.0000
  C   C2531     1.0  0.36947  0.86324  0.23952  1.0000
  H   H2009     1.0  0.31723  0.75718  0.39162  1.0000
  C   C2532     1.0  0.35703  0.70325  0.05823  1.0000
  S   S350      1.0  0.35769  0.75197  0.98637  1.0000
  C   C2533     1.0  0.26668  0.73812  0.04362  1.0000
  H   H2010     1.0  0.48060  0.81810  0.21219  1.0000
  C   C2534     1.0  0.47511  0.79456  0.20937  1.0000
  C   C2535     1.0  0.32502  0.90354  0.18535  1.0000
  C   C2536     1.0  0.38611  0.89060  0.23467  1.0000
  C   C2537     1.0  0.31064  0.84802  0.27487  1.0000
  H   H2011     1.0  0.31033  0.82260  0.27193  1.0000
  C   C2538     1.0  0.43932  0.65687  0.20627  1.0000
  H   H2012     1.0  0.26469  0.74121  0.01724  1.0000
  H   H2013     1.0  0.43152  0.75616  0.00303  1.0000
  C   C2539     1.0  0.28415  0.79365  0.41246  1.0000
  C   C2540     1.0  0.47112  0.78016  0.15324  1.0000
  H   H2014     1.0  0.39264  0.90130  0.23210  1.0000
  H   H2015     1.0  0.30543  0.68303  0.43924  1.0000
  S   S351      1.0  0.46324  0.74416  0.07570  1.0000
  S   S352      1.0  0.25395  0.76403  0.12936  1.0000
  H   H2016     1.0  0.30497  0.88855  0.19408  1.0000
  C   C2541     1.0  0.34411  0.86803  0.45956  1.0000
  C   C2542     1.0  0.35944  0.88008  0.23911  1.0000
  C   C2543     1.0  0.31287  0.77498  0.40848  1.0000
  H   H2017     1.0  0.35125  0.90785  0.20978  1.0000
  H   H2018     1.0  0.33966  0.85241  0.22891  1.0000
  C   C2544     1.0  0.31687  0.86326  0.26724  1.0000
  C   C2545     1.0  0.33156  0.85139  0.24176  1.0000
  C   C2546     1.0  0.26441  0.82896  0.40712  1.0000
  C   C2547     1.0  0.38070  0.90443  0.42772  1.0000
  C   C2548     1.0  0.43819  0.84572  0.21249  1.0000
  C   C2549     1.0  0.36450  0.72270  0.10975  1.0000
  H   H2019     1.0  0.32555  0.77008  0.41191  1.0000
  C   C2550     1.0  0.30401  0.66995  0.44044  1.0000
  C   C2551     1.0  0.27259  0.81264  0.44235  1.0000
  C   C2552     1.0  0.46789  0.94122  0.16732  1.0000
  H   H2020     1.0  0.48138  0.77687  0.25667  1.0000
  H   H2021     1.0  0.28377  0.78571  0.45091  1.0000
  H   H2022     1.0  0.39334  0.78612  0.00422  1.0000
  H   H2023     1.0  0.34609  0.91701  0.18026  1.0000
  H   H2024     1.0  0.31330  0.87359  0.27433  1.0000
  H   H2025     1.0  0.40608  0.72121  0.10534  1.0000
  C   C2553     1.0  0.30105  0.78818  0.41594  1.0000
  S   S353      1.0  0.48886  0.80164  0.28117  1.0000
  C   C2554     1.0  0.35063  0.79488  0.00130  1.0000
  C   C2555     1.0  0.47626  0.77054  0.18263  1.0000
  P   P82       1.0  0.44944  0.69018  0.31708  1.0000
  P   P83       1.0  0.26786  0.80932  0.42311  1.0000
  C   C2556     1.0  0.32572  0.67467  0.46807  1.0000
  C   C2557     1.0  0.32752  0.86502  0.25062  1.0000
  C   C2558     1.0  0.36799  0.89375  0.23666  1.0000
  H   H2026     1.0  0.42698  0.83978  0.21520  1.0000
  H   H2027     1.0  0.26921  0.69830  0.07528  1.0000
  H   H2028     1.0  0.36074  0.90694  0.23578  1.0000
  H   H2029     1.0  0.31040  0.82158  0.05359  1.0000
  C   C2559     1.0  0.33791  0.90908  0.18992  1.0000
  H   H2030     1.0  0.30978  0.87926  0.22396  1.0000
  P   P84       1.0  0.33601  0.88449  0.24059  1.0000
  C   C2560     1.0  0.35600  0.85751  0.44875  1.0000
  H   H2031     1.0  0.35193  0.67926  0.46115  1.0000
  C   C2561     1.0  0.47724  0.95033  0.17286  1.0000
  C   C2562     1.0  0.27386  0.84186  0.40494  1.0000
  C   C2563     1.0  0.48222  0.71991  0.28285  1.0000
  C   C2564     1.0  0.40857  0.71534  0.09421  1.0000
  H   H2032     1.0  0.26228  0.81556  0.02476  1.0000
  Fe  Fe172     1.0  0.47142  0.76676  0.08059  1.0000
  H   H2033     1.0  0.39696  0.66970  0.17584  1.0000
  C   C2565     1.0  0.48355  0.89256  0.17744  1.0000
  C   C2566     1.0  0.33269  0.90208  0.26687  1.0000
  C   C2567     1.0  0.39360  0.67593  0.16339  1.0000
  C   C2568     1.0  0.30591  0.67055  0.99740  1.0000
  C   C2569     1.0  0.46781  0.72397  0.11967  1.0000
  H   H2034     1.0  0.25823  0.67145  0.08733  1.0000
  C   C2570     1.0  0.32286  0.67368  0.99400  1.0000
  C   C2571     1.0  0.31004  0.91222  0.24997  1.0000
  C   C2572     1.0  0.33027  0.91595  0.46863  1.0000
  Fe  Fe173     1.0  0.26525  0.72595  0.40008  1.0000
  H   H2035     1.0  0.47365  0.98056  0.22584  1.0000
  C   C2573     1.0  0.27900  0.77186  0.30931  1.0000
  C   C2574     1.0  0.31482  0.89295  0.19775  1.0000
  C   C2575     1.0  0.31776  0.88757  0.21464  1.0000
  H   H2036     1.0  0.32317  0.90717  0.17211  1.0000
  C   C2576     1.0  0.27802  0.68668  0.08005  1.0000
  C   C2577     1.0  0.27160  0.67154  0.08716  1.0000
  H   H2037     1.0  0.27729  0.86760  0.39197  1.0000
  H   H2038     1.0  0.47160  0.67500  0.28831  1.0000
  H   H2039     1.0  0.46493  0.85561  0.23311  1.0000
  C   C2578     1.0  0.24778  0.73465  0.33207  1.0000
  H   H2040     1.0  0.26545  0.79868  0.27372  1.0000
  H   H2041     1.0  0.45705  0.69517  0.34883  1.0000
  H   H2042     1.0  0.47364  0.77782  0.42628  1.0000
  H   H2043     1.0  0.35842  0.69019  0.14429  1.0000
  C   C2579     1.0  0.26552  0.79257  0.28709  1.0000
  H   H2044     1.0  0.45432  0.83235  0.44832  1.0000
  H   H2045     1.0  0.28984  0.93352  0.25729  1.0000
  C   C2580     1.0  0.37190  0.68772  0.14554  1.0000
  C   C2581     1.0  0.33372  0.68742  0.05081  1.0000
  H   H2046     1.0  0.43843  0.84321  0.23919  1.0000
  C   C2582     1.0  0.44479  0.84745  0.22604  1.0000
  C   C2583     1.0  0.46739  0.86062  0.20548  1.0000
  P   P85       1.0  0.32720  0.82471  0.99030  1.0000
  H   H2047     1.0  0.28364  0.84003  0.41255  1.0000
  H   H2048     1.0  0.43129  0.72627  0.08189  1.0000
  C   C2584     1.0  0.41805  0.68277  0.28825  1.0000
  H   H2049     1.0  0.27417  0.79336  0.22225  1.0000
  C   C2585     1.0  0.30900  0.92594  0.27339  1.0000
  C   C2586     1.0  0.48663  0.75405  0.02942  1.0000
  C   C2587     1.0  0.40773  0.66213  0.20989  1.0000
  H   H2050     1.0  0.36624  0.67607  0.17266  1.0000
  C   C2588     1.0  0.49153  0.72287  0.03811  1.0000
  C   C2589     1.0  0.27010  0.67056  0.03599  1.0000
  H   H2051     1.0  0.43300  0.82087  0.43982  1.0000
  C   C2590     1.0  0.36772  0.89622  0.43900  1.0000
  H   H2052     1.0  0.26015  0.68216  0.03400  1.0000
  H   H2053     1.0  0.34181  0.91952  0.45978  1.0000
  H   H2054     1.0  0.41273  0.69185  0.12247  1.0000
  H   H2055     1.0  0.40363  0.73794  0.33682  1.0000
  C   C2591     1.0  0.46508  0.69829  0.29863  1.0000
  H   H2056     1.0  0.41987  0.71962  0.31575  1.0000
  C   C2592     1.0  0.48641  0.87979  0.16771  1.0000
  C   C2593     1.0  0.29772  0.66017  0.45660  1.0000
  C   C2594     1.0  0.46497  0.77468  0.17091  1.0000
  C   C2595     1.0  0.43202  0.68612  0.29310  1.0000
  H   H2057     1.0  0.25622  0.78791  0.35914  1.0000
  C   C2596     1.0  0.26023  0.71586  0.45763  1.0000
  H   H2058     1.0  0.30261  0.93568  0.28109  1.0000
  C   C2597     1.0  0.26524  0.77790  0.32201  1.0000
  C   C2598     1.0  0.36326  0.69079  0.04798  1.0000
  C   C2599     1.0  0.46927  0.71439  0.29670  1.0000
  C   C2600     1.0  0.27229  0.68706  0.47231  1.0000
  C   C2601     1.0  0.42070  0.72653  0.35485  1.0000
  H   H2059     1.0  0.41361  0.73476  0.36398  1.0000
  C   C2602     1.0  0.26968  0.83104  0.46254  1.0000
  S   S354      1.0  0.49140  0.92651  0.21432  1.0000
  C   C2603     1.0  0.35161  0.68287  0.04429  1.0000
  H   H2060     1.0  0.37706  0.68778  0.04239  1.0000
  H   H2061     1.0  0.44251  0.69016  0.28295  1.0000
  H   H2062     1.0  0.31336  0.67067  0.41323  1.0000
  H   H2063     1.0  0.44077  0.71386  0.36947  1.0000
  H   H2064     1.0  0.27500  0.77612  0.25178  1.0000
  C   C2604     1.0  0.45954  0.85464  0.22258  1.0000
  H   H2065     1.0  0.47892  0.86591  0.20311  1.0000
  H   H2066     1.0  0.46663  0.70699  0.24454  1.0000
  H   H2067     1.0  0.26585  0.79902  0.16516  1.0000
  C   C2605     1.0  0.27455  0.70255  0.46053  1.0000
  C   C2606     1.0  0.47906  0.80504  0.21842  1.0000
  H   H2068     1.0  0.48621  0.83269  0.18274  1.0000
  C   C2607     1.0  0.48135  0.79863  0.23542  1.0000
  C   C2608     1.0  0.49142  0.93701  0.14276  1.0000
  H   H2069     1.0  0.46773  0.92745  0.14809  1.0000
  H   H2070     1.0  0.46273  0.72261  0.30594  1.0000
  H   H2071     1.0  0.28306  0.84341  0.05201  1.0000
  C   C2609     1.0  0.38080  0.79357  0.00156  1.0000
  C   C2610     1.0  0.40343  0.76047  0.47379  1.0000
  H   H2072     1.0  0.26092  0.75836  0.37740  1.0000
  H   H2073     1.0  0.25201  0.67615  0.43498  1.0000
  H   H2074     1.0  0.45134  0.77403  0.17523  1.0000
  H   H2075     1.0  0.25994  0.72534  0.32979  1.0000
  H   H2076     1.0  0.37083  0.88696  0.45044  1.0000
  C   C2611     1.0  0.48746  0.69309  0.27318  1.0000
  H   H2077     1.0  0.39041  0.66599  0.10643  1.0000
  C   C2612     1.0  0.44644  0.81393  0.43860  1.0000
  C   C2613     1.0  0.46919  0.78973  0.43103  1.0000
  H   H2078     1.0  0.39371  0.90140  0.43041  1.0000
  H   H2079     1.0  0.27495  0.85720  0.02366  1.0000
  H   H2080     1.0  0.47050  0.68018  0.15227  1.0000
  H   H2081     1.0  0.45120  0.69463  0.09175  1.0000
  C   C2614     1.0  0.28016  0.79852  0.45381  1.0000
  C   C2615     1.0  0.49369  0.95308  0.16320  1.0000
  C   C2616     1.0  0.47455  0.71444  0.23401  1.0000
  H   H2082     1.0  0.32866  0.82126  0.47791  1.0000
  C   C2617     1.0  0.24529  0.73553  0.12400  1.0000
  H   H2083     1.0  0.29413  0.84929  0.99690  1.0000
  C   C2618     1.0  0.49036  0.83560  0.26776  1.0000
  C   C2619     1.0  0.37674  0.66994  0.10565  1.0000
  C   C2620     1.0  0.34835  0.81270  0.99443  1.0000
  H   H2084     1.0  0.35760  0.65421  0.01301  1.0000
  C   C2621     1.0  0.28709  0.84784  0.02426  1.0000
  H   H2085     1.0  0.29086  0.82214  0.99203  1.0000
  C   C2622     1.0  0.34127  0.67956  0.10439  1.0000
  H   H2086     1.0  0.29887  0.91121  0.44787  1.0000
  H   H2087     1.0  0.46950  0.73477  0.41008  1.0000
  H   H2088     1.0  0.24654  0.72979  0.13721  1.0000
  C   C2623     1.0  0.24543  0.84113  0.05466  1.0000
  H   H2089     1.0  0.42517  0.79340  0.46270  1.0000
  H   H2090     1.0  0.36099  0.83468  0.98655  1.0000
  H   H2091     1.0  0.49111  0.80031  0.08140  1.0000
  P   P86       1.0  0.29125  0.67003  0.47542  1.0000
  C   C2624     1.0  0.48677  0.83403  0.16912  1.0000
  C   C2625     1.0  0.25169  0.82371  0.17088  1.0000
  S   S355      1.0  0.48604  0.66597  0.18820  1.0000
  C   C2626     1.0  0.32366  0.90211  0.46727  1.0000
  C   C2627     1.0  0.36810  0.65802  0.10354  1.0000
  H   H2092     1.0  0.48466  0.80668  0.24234  1.0000
  C   C2628     1.0  0.48895  0.65438  0.33676  1.0000
  H   H2093     1.0  0.26332  0.82784  0.17122  1.0000
  H   H2094     1.0  0.24543  0.65973  0.46523  1.0000
  H   H2095     1.0  0.34421  0.70505  0.47449  1.0000
  C   C2629     1.0  0.36055  0.83445  0.47349  1.0000
  H   H2096     1.0  0.48840  0.70263  0.18140  1.0000
  C   C2630     1.0  0.29681  0.65554  0.04592  1.0000
  C   C2631     1.0  0.33432  0.69796  0.47520  1.0000
  H   H2097     1.0  0.29736  0.71223  0.98220  1.0000
  C   C2632     1.0  0.44031  0.65806  0.24996  1.0000
  H   H2098     1.0  0.28909  0.65610  0.99284  1.0000
  C   C2633     1.0  0.49136  0.70677  0.22668  1.0000
  H   H2099     1.0  0.49190  0.83871  0.11973  1.0000
  C   C2634     1.0  0.24845  0.75227  0.11674  1.0000
  C   C2635     1.0  0.45283  0.65857  0.34090  1.0000
  H   H2100     1.0  0.34922  0.66686  0.98021  1.0000
  C   C2636     1.0  0.28243  0.65643  0.09386  1.0000
  H   H2101     1.0  0.48920  0.71073  0.03707  1.0000
  C   C2637     1.0  0.34642  0.87440  0.62521  1.0000
  H   H2102     1.0  0.32123  0.69943  0.85039  1.0000
  H   H2103     1.0  0.35672  0.97603  0.60655  1.0000
  S   S356      1.0  0.32182  0.72963  0.57018  1.0000
  S   S357      1.0  0.28906  0.69961  0.57604  1.0000
  Fe  Fe174     1.0  0.27083  0.89901  0.76642  1.0000
  S   S358      1.0  0.29658  0.88417  0.77265  1.0000
  C   C2638     1.0  0.24685  0.80557  0.51875  1.0000
  Fe  Fe175     1.0  0.27967  0.89267  0.73001  1.0000
  S   S359      1.0  0.30620  0.87683  0.73304  1.0000
  H   H2104     1.0  0.45832  0.97104  0.68536  1.0000
  Fe  Fe176     1.0  0.29280  0.86499  0.75933  1.0000
  S   S360      1.0  0.29884  0.83668  0.77103  1.0000
  Fe  Fe177     1.0  0.30807  0.89730  0.74608  1.0000
  S   S361      1.0  0.33495  0.90344  0.73985  1.0000
  S   S362      1.0  0.26614  0.87882  0.75509  1.0000
  S   S363      1.0  0.28253  0.91421  0.74098  1.0000
  Fe  Fe178     1.0  0.30228  0.76791  0.88091  1.0000
  S   S364      1.0  0.28505  0.74891  0.89452  1.0000
  S   S365      1.0  0.33105  0.76606  0.87827  1.0000
  Fe  Fe179     1.0  0.27311  0.79426  0.86603  1.0000
  S   S366      1.0  0.25299  0.77784  0.87839  1.0000
  S   S367      1.0  0.26690  0.82159  0.85111  1.0000
  Fe  Fe180     1.0  0.26524  0.77202  0.90151  1.0000
  C   C2639     1.0  0.26625  0.73853  0.48682  1.0000
  Fe  Fe181     1.0  0.27410  0.75588  0.87044  1.0000
  S   S368      1.0  0.27141  0.73425  0.85932  1.0000
  S   S369      1.0  0.28346  0.79040  0.89003  1.0000
  S   S370      1.0  0.29319  0.77278  0.85605  1.0000
  H   H2105     1.0  0.31079  0.83506  0.50218  1.0000
  H   H2106     1.0  0.38216  0.93408  0.61908  1.0000
  S   S371      1.0  0.37084  0.73940  0.94072  1.0000
  C   C2640     1.0  0.29180  0.73825  0.94341  1.0000
  C   C2641     1.0  0.26284  0.66527  0.64183  1.0000
  S   S372      1.0  0.36319  0.77208  0.50347  1.0000
  C   C2642     1.0  0.32250  0.71551  0.89294  1.0000
  H   H2107     1.0  0.37291  0.98203  0.62540  1.0000
  S   S373      1.0  0.35506  0.97296  0.74159  1.0000
  C   C2643     1.0  0.30423  0.69469  0.48396  1.0000
  H   H2108     1.0  0.27539  0.95634  0.78258  1.0000
  C   C2644     1.0  0.29586  0.65264  0.50875  1.0000
  H   H2109     1.0  0.32217  0.92712  0.64896  1.0000
  H   H2110     1.0  0.25311  0.95443  0.75534  1.0000
  C   C2645     1.0  0.33444  0.70991  0.90402  1.0000
  H   H2111     1.0  0.30928  0.71343  0.89762  1.0000
  P   P87       1.0  0.29766  0.96761  0.68943  1.0000
  H   H2112     1.0  0.26014  0.70784  0.85017  1.0000
  H   H2113     1.0  0.36951  0.72387  0.87601  1.0000
  C   C2646     1.0  0.25129  0.67302  0.89730  1.0000
  S   S374      1.0  0.28249  0.86445  0.50358  1.0000
  C   C2647     1.0  0.34101  0.75923  0.89639  1.0000
  C   C2648     1.0  0.33150  0.75642  0.91343  1.0000
  C   C2649     1.0  0.34033  0.75038  0.92738  1.0000
  C   C2650     1.0  0.35865  0.74728  0.92419  1.0000
  C   C2651     1.0  0.36795  0.75040  0.90716  1.0000
  C   C2652     1.0  0.35920  0.75642  0.89338  1.0000
  H   H2114     1.0  0.31741  0.75895  0.91582  1.0000
  H   H2115     1.0  0.33301  0.74808  0.94050  1.0000
  H   H2116     1.0  0.38205  0.74809  0.90460  1.0000
  H   H2117     1.0  0.36661  0.75867  0.88028  1.0000
  H   H2118     1.0  0.29596  0.92643  0.88298  1.0000
  C   C2653     1.0  0.28932  0.83243  0.79309  1.0000
  C   C2654     1.0  0.29361  0.81586  0.80299  1.0000
  C   C2655     1.0  0.28669  0.81240  0.82077  1.0000
  C   C2656     1.0  0.27539  0.82546  0.82875  1.0000
  C   C2657     1.0  0.27085  0.84198  0.81880  1.0000
  C   C2658     1.0  0.27776  0.84545  0.80097  1.0000
  H   H2119     1.0  0.30239  0.80572  0.79691  1.0000
  H   H2120     1.0  0.29011  0.79962  0.82821  1.0000
  H   H2121     1.0  0.26207  0.85215  0.82487  1.0000
  H   H2122     1.0  0.27419  0.85824  0.79338  1.0000
  H   H2123     1.0  0.26887  0.67354  0.59801  1.0000
  S   S375      1.0  0.24689  0.95562  0.64044  1.0000
  H   H2124     1.0  0.30416  0.95853  0.72479  1.0000
  C   C2659     1.0  0.32178  0.79127  0.96302  1.0000
  C   C2660     1.0  0.30393  0.67619  0.93809  1.0000
  C   C2661     1.0  0.31132  0.69185  0.85676  1.0000
  H   H2125     1.0  0.31778  0.65537  0.89767  1.0000
  C   C2662     1.0  0.33947  0.92346  0.73985  1.0000
  C   C2663     1.0  0.35645  0.92620  0.73263  1.0000
  C   C2664     1.0  0.36087  0.94182  0.73228  1.0000
  C   C2665     1.0  0.34845  0.95474  0.73951  1.0000
  C   C2666     1.0  0.33143  0.95200  0.74698  1.0000
  C   C2667     1.0  0.32690  0.93640  0.74701  1.0000
  H   H2126     1.0  0.36625  0.91618  0.72723  1.0000
  H   H2127     1.0  0.37408  0.94367  0.72685  1.0000
  H   H2128     1.0  0.32856  0.88916  0.94302  1.0000
  H   H2129     1.0  0.31388  0.93420  0.75288  1.0000
  C   C2668     1.0  0.33287  0.74139  0.55128  1.0000
  C   C2669     1.0  0.34765  0.74682  0.55211  1.0000
  C   C2670     1.0  0.35679  0.75628  0.53739  1.0000
  C   C2671     1.0  0.35135  0.76021  0.52164  1.0000
  C   C2672     1.0  0.33665  0.75467  0.52068  1.0000
  C   C2673     1.0  0.32735  0.74533  0.53554  1.0000
  H   H2130     1.0  0.35201  0.74376  0.56422  1.0000
  H   H2131     1.0  0.36816  0.76050  0.53818  1.0000
  H   H2132     1.0  0.33239  0.75762  0.50854  1.0000
  H   H2133     1.0  0.31606  0.74108  0.53473  1.0000
  H   H2134     1.0  0.31852  0.97252  0.82775  1.0000
  C   C2674     1.0  0.26892  0.66632  0.61106  1.0000
  C   C2675     1.0  0.34450  0.72681  0.86970  1.0000
  C   C2676     1.0  0.30370  0.79322  0.96568  1.0000
  H   H2135     1.0  0.24489  0.89054  0.55436  1.0000
  C   C2677     1.0  0.25780  0.78902  0.81856  1.0000
  H   H2136     1.0  0.33189  0.86922  0.48631  1.0000
  C   C2678     1.0  0.25437  0.96954  0.53667  1.0000
  C   C2679     1.0  0.29572  0.66346  0.93706  1.0000
  C   C2680     1.0  0.29939  0.80121  0.53188  1.0000
  C   C2681     1.0  0.27004  0.86740  0.96689  1.0000
  C   C2682     1.0  0.29388  0.65115  0.56896  1.0000
  C   C2683     1.0  0.24752  0.96704  0.52337  1.0000
  H   H2137     1.0  0.32252  0.68578  0.58579  1.0000
  H   H2138     1.0  0.25819  0.67179  0.65262  1.0000
  C   C2684     1.0  0.25365  0.67277  0.91383  1.0000
  C   C2685     1.0  0.24621  0.73299  0.90817  1.0000
  C   C2686     1.0  0.28722  0.82027  0.58918  1.0000
  C   C2687     1.0  0.29761  0.66814  0.85864  1.0000
  H   H2139     1.0  0.30932  0.97104  0.65245  1.0000
  P   P88       1.0  0.32803  0.69799  0.92570  1.0000
  Fe  Fe182     1.0  0.26034  0.88562  0.49573  1.0000
  C   C2688     1.0  0.31706  0.68175  0.92439  1.0000
  H   H2140     1.0  0.25285  0.76635  0.83764  1.0000
  C   C2689     1.0  0.37116  0.79373  0.82320  1.0000
  H   H2141     1.0  0.36811  0.83262  0.81694  1.0000
  C   C2690     1.0  0.27165  0.91393  0.86150  1.0000
  C   C2691     1.0  0.34219  0.79146  0.79722  1.0000
  H   H2142     1.0  0.26685  0.88614  0.91895  1.0000
  C   C2692     1.0  0.33323  0.96760  0.68401  1.0000
  H   H2143     1.0  0.25257  0.73391  0.89473  1.0000
  C   C2693     1.0  0.30495  0.86325  0.84766  1.0000
  H   H2144     1.0  0.30015  0.68132  0.94976  1.0000
  C   C2694     1.0  0.36980  0.66344  0.94245  1.0000
  H   H2145     1.0  0.30271  0.81773  0.60792  1.0000
  H   H2146     1.0  0.32187  0.96182  0.75294  1.0000
  C   C2695     1.0  0.25531  0.68512  0.48101  1.0000
  C   C2696     1.0  0.26378  0.93478  0.78458  1.0000
  H   H2147     1.0  0.27585  0.69182  0.88941  1.0000
  C   C2697     1.0  0.35466  0.67064  0.93571  1.0000
  H   H2148     1.0  0.41883  0.95622  0.72902  1.0000
  H   H2149     1.0  0.26763  0.78946  0.59578  1.0000
  C   C2698     1.0  0.28563  0.68736  0.87885  1.0000
  C   C2699     1.0  0.31831  0.67799  0.54175  1.0000
  H   H2150     1.0  0.33735  0.94378  0.65924  1.0000
  C   C2700     1.0  0.32656  0.84671  0.95789  1.0000
  H   H2151     1.0  0.30957  0.67019  0.54126  1.0000
  C   C2701     1.0  0.37746  0.67373  0.94845  1.0000
  H   H2152     1.0  0.37836  0.84854  0.60169  1.0000
  H   H2153     1.0  0.31407  0.69084  0.61528  1.0000
  C   C2702     1.0  0.25643  0.72655  0.49730  1.0000
  H   H2154     1.0  0.25374  0.71325  0.94826  1.0000
  H   H2155     1.0  0.33290  0.94661  0.60335  1.0000
  C   C2703     1.0  0.31919  0.81245  0.84736  1.0000
  C   C2704     1.0  0.25058  0.66544  0.83869  1.0000
  C   C2705     1.0  0.34542  0.85919  0.78714  1.0000
  C   C2706     1.0  0.25151  0.89039  0.70602  1.0000
  H   H2156     1.0  0.36096  0.70903  0.90598  1.0000
  P   P89       1.0  0.32676  0.65431  0.57156  1.0000
  H   H2157     1.0  0.37884  0.87658  0.58103  1.0000
  H   H2158     1.0  0.31060  0.80333  0.52161  1.0000
  C   C2707     1.0  0.26446  0.79511  0.95049  1.0000
  H   H2159     1.0  0.24619  0.90756  0.87317  1.0000
  C   C2708     1.0  0.34917  0.84496  0.48440  1.0000
  C   C2709     1.0  0.25123  0.85967  0.63768  1.0000
  C   C2710     1.0  0.31328  0.71197  0.93944  1.0000
  H   H2160     1.0  0.32457  0.83609  0.95347  1.0000
  H   H2161     1.0  0.33245  0.67779  0.89929  1.0000
  C   C2711     1.0  0.33228  0.65282  0.97515  1.0000
  S   S376      1.0  0.27267  0.73616  0.58955  1.0000
  H   H2162     1.0  0.27530  0.84269  0.54157  1.0000
  C   C2712     1.0  0.34769  0.82613  0.80850  1.0000
  C   C2713     1.0  0.31954  0.69297  0.52904  1.0000
  C   C2714     1.0  0.33090  0.70336  0.52884  1.0000
  C   C2715     1.0  0.34124  0.69866  0.54129  1.0000
  C   C2716     1.0  0.34001  0.68372  0.55407  1.0000
  C   C2717     1.0  0.32887  0.94102  0.59468  1.0000
  C   C2718     1.0  0.33535  0.92812  0.64246  1.0000
  H   H2163     1.0  0.27812  0.97155  0.81762  1.0000
  H   H2164     1.0  0.28999  0.66502  0.56789  1.0000
  H   H2165     1.0  0.33160  0.71512  0.51914  1.0000
  H   H2166     1.0  0.34991  0.70685  0.54127  1.0000
  H   H2167     1.0  0.34813  0.68032  0.56362  1.0000
  C   C2719     1.0  0.27915  0.93793  0.66727  1.0000
  C   C2720     1.0  0.28565  0.94350  0.64970  1.0000
  C   C2721     1.0  0.29648  0.95547  0.64441  1.0000
  C   C2722     1.0  0.30053  0.96215  0.65666  1.0000
  C   C2723     1.0  0.29306  0.95765  0.67420  1.0000
  C   C2724     1.0  0.28308  0.94474  0.67956  1.0000
  H   H2168     1.0  0.25901  0.79187  0.56733  1.0000
  C   C2725     1.0  0.24877  0.87502  0.71758  1.0000
  C   C2726     1.0  0.32005  0.95796  0.69064  1.0000
  C   C2727     1.0  0.32457  0.94015  0.69712  1.0000
  C   C2728     1.0  0.34204  0.93212  0.69697  1.0000
  H   H2169     1.0  0.26456  0.66411  0.91886  1.0000
  P   P90       1.0  0.26791  0.66080  0.88308  1.0000
  C   C2729     1.0  0.25631  0.78846  0.60615  1.0000
  C   C2730     1.0  0.27942  0.95624  0.74164  1.0000
  C   C2731     1.0  0.29046  0.95925  0.72546  1.0000
  C   C2732     1.0  0.25576  0.91330  0.60347  1.0000
  C   C2733     1.0  0.29900  0.71670  0.96833  1.0000
  H   H2170     1.0  0.32651  0.96493  0.57595  1.0000
  C   C2734     1.0  0.33572  0.78005  0.79146  1.0000
  H   H2171     1.0  0.35888  0.90309  0.58845  1.0000
  C   C2735     1.0  0.30670  0.92148  0.49294  1.0000
  H   H2172     1.0  0.27089  0.92847  0.67138  1.0000
  H   H2173     1.0  0.28221  0.93867  0.64014  1.0000
  H   H2174     1.0  0.27830  0.93984  0.69310  1.0000
  H   H2175     1.0  0.31461  0.93243  0.70225  1.0000
  H   H2176     1.0  0.34540  0.91839  0.70219  1.0000
  C   C2736     1.0  0.24608  0.77662  0.60734  1.0000
  H   H2177     1.0  0.31369  0.71509  0.48878  1.0000
  H   H2178     1.0  0.24876  0.80250  0.90093  1.0000
  H   H2179     1.0  0.28475  0.95303  0.75320  1.0000
  H   H2180     1.0  0.25818  0.90547  0.93984  1.0000
  H   H2181     1.0  0.29625  0.81036  0.58283  1.0000
  H   H2182     1.0  0.31153  0.85495  0.85769  1.0000
  H   H2183     1.0  0.29826  0.78560  0.96012  1.0000
  H   H2184     1.0  0.29857  0.70828  0.87506  1.0000
  H   H2185     1.0  0.31821  0.69423  0.96300  1.0000
  H   H2186     1.0  0.29714  0.65732  0.85360  1.0000
  H   H2187     1.0  0.26279  0.71338  0.50176  1.0000
  H   H2188     1.0  0.30526  0.66047  0.50743  1.0000
  H   H2189     1.0  0.24585  0.79098  0.50058  1.0000
  C   C2737     1.0  0.24920  0.68061  0.55776  1.0000
  C   C2738     1.0  0.34657  0.89034  0.61360  1.0000
  H   H2190     1.0  0.33104  0.77660  0.84063  1.0000
  H   H2191     1.0  0.26826  0.71552  0.91741  1.0000
  C   C2739     1.0  0.35475  0.69842  0.94121  1.0000
  H   H2192     1.0  0.25547  0.85278  0.68553  1.0000
  C   C2740     1.0  0.32812  0.67352  0.55476  1.0000
  C   C2741     1.0  0.28572  0.91911  0.86454  1.0000
  H   H2193     1.0  0.29688  0.92115  0.85424  1.0000
  C   C2742     1.0  0.33111  0.87488  0.96864  1.0000
  C   C2743     1.0  0.30710  0.85800  0.83212  1.0000
  H   H2194     1.0  0.26038  0.96841  0.70026  1.0000
  H   H2195     1.0  0.25291  0.67348  0.49011  1.0000
  S   S377      1.0  0.27424  0.69664  0.53484  1.0000
  C   C2744     1.0  0.26582  0.96470  0.71174  1.0000
  C   C2745     1.0  0.25126  0.80634  0.81200  1.0000
  C   C2746     1.0  0.26365  0.95120  0.78704  1.0000
  H   H2196     1.0  0.28290  0.78560  0.92926  1.0000
  C   C2747     1.0  0.27239  0.94092  0.53788  1.0000
  S   S378      1.0  0.24843  0.71926  0.57400  1.0000
  C   C2748     1.0  0.32699  0.92374  0.59899  1.0000
  C   C2749     1.0  0.27555  0.94507  0.82707  1.0000
  H   H2197     1.0  0.30182  0.91134  0.80958  1.0000
  C   C2750     1.0  0.30781  0.83978  0.48942  1.0000
  C   C2751     1.0  0.28176  0.92791  0.82487  1.0000
  H   H2198     1.0  0.36721  0.94749  0.64443  1.0000
  H   H2199     1.0  0.29263  0.88286  0.86245  1.0000
  Fe  Fe183     1.0  0.26518  0.71056  0.59392  1.0000
  C   C2752     1.0  0.32027  0.67498  0.59627  1.0000
  C   C2753     1.0  0.24906  0.86755  0.90823  1.0000
  C   C2754     1.0  0.34706  0.68820  0.93504  1.0000
  H   H2200     1.0  0.29527  0.91466  0.61523  1.0000
  H   H2201     1.0  0.28435  0.75057  0.93793  1.0000
  H   H2202     1.0  0.29994  0.86423  0.80735  1.0000
  C   C2755     1.0  0.30073  0.65592  0.92254  1.0000
  H   H2203     1.0  0.31802  0.72898  0.86758  1.0000
  H   H2204     1.0  0.28103  0.89238  0.81162  1.0000
  C   C2756     1.0  0.27025  0.79501  0.55775  1.0000
  C   C2757     1.0  0.25199  0.79889  0.61839  1.0000
  H   H2205     1.0  0.36856  0.93566  0.69093  1.0000
  C   C2758     1.0  0.28353  0.95830  0.81619  1.0000
  C   C2759     1.0  0.29842  0.86849  0.81926  1.0000
  H   H2206     1.0  0.31221  0.81923  0.88821  1.0000
  H   H2207     1.0  0.33758  0.87340  0.63761  1.0000
  H   H2208     1.0  0.33020  0.98124  0.67858  1.0000
  C   C2760     1.0  0.26395  0.91538  0.58606  1.0000
  C   C2761     1.0  0.26743  0.90174  0.57746  1.0000
  C   C2762     1.0  0.26298  0.88592  0.58635  1.0000
  C   C2763     1.0  0.25495  0.88363  0.60393  1.0000
  H   H2209     1.0  0.24870  0.84857  0.58618  1.0000
  S   S379      1.0  0.27749  0.95937  0.55952  1.0000
  C   C2764     1.0  0.26384  0.84607  0.60548  1.0000
  H   H2210     1.0  0.30820  0.66682  0.64014  1.0000
  C   C2765     1.0  0.30860  0.89802  0.47900  1.0000
  C   C2766     1.0  0.32758  0.76748  0.80339  1.0000
  C   C2767     1.0  0.34361  0.92051  0.62807  1.0000
  C   C2768     1.0  0.26705  0.86115  0.65879  1.0000
  C   C2769     1.0  0.26537  0.86396  0.64161  1.0000
  C   C2770     1.0  0.25103  0.89759  0.61234  1.0000
  C   C2771     1.0  0.28528  0.92203  0.88082  1.0000
  C   C2772     1.0  0.39148  0.77046  0.83733  1.0000
  C   C2773     1.0  0.27195  0.82889  0.58323  1.0000
  S   S380      1.0  0.24797  0.90833  0.78624  1.0000
  C   C2774     1.0  0.31945  0.94498  0.56780  1.0000
  Fe  Fe184     1.0  0.35418  0.77479  0.47892  1.0000
  C   C2775     1.0  0.25606  0.67596  0.52851  1.0000
  H   H2211     1.0  0.41845  0.76755  0.82428  1.0000
  C   C2776     1.0  0.34966  0.98279  0.61684  1.0000
  C   C2777     1.0  0.36080  0.93973  0.64002  1.0000
  H   H2212     1.0  0.28847  0.90438  0.50068  1.0000
  H   H2213     1.0  0.26739  0.92767  0.57922  1.0000
  H   H2214     1.0  0.27356  0.90349  0.56387  1.0000
  H   H2215     1.0  0.26587  0.87553  0.57946  1.0000
  H   H2216     1.0  0.33031  0.78218  0.95535  1.0000
  Fe  Fe185     1.0  0.29527  0.72599  0.56992  1.0000
  C   C2778     1.0  0.24500  0.89798  0.83516  1.0000
  C   C2779     1.0  0.25493  0.96109  0.72789  1.0000
  H   H2217     1.0  0.27805  0.86423  0.66182  1.0000
  H   H2218     1.0  0.27511  0.86943  0.63142  1.0000
  H   H2219     1.0  0.36383  0.77598  0.84719  1.0000
  H   H2220     1.0  0.26458  0.94833  0.83725  1.0000
  C   C2780     1.0  0.42396  0.96614  0.71885  1.0000
  H   H2221     1.0  0.26922  0.82557  0.57233  1.0000
  H   H2222     1.0  0.32671  0.93645  0.48225  1.0000
  C   C2781     1.0  0.28562  0.88992  0.83727  1.0000
  H   H2223     1.0  0.41264  0.79143  0.79943  1.0000
  C   C2782     1.0  0.33745  0.81315  0.87195  1.0000
  C   C2783     1.0  0.24738  0.84589  0.54396  1.0000
  H   H2224     1.0  0.32446  0.86416  0.93350  1.0000
  C   C2784     1.0  0.36951  0.86017  0.60499  1.0000
  C   C2785     1.0  0.29740  0.89408  0.66311  1.0000
  C   C2786     1.0  0.28164  0.89795  0.65753  1.0000
  C   C2787     1.0  0.28109  0.90506  0.64020  1.0000
  H   H2225     1.0  0.28215  0.82347  0.52063  1.0000
  C   C2788     1.0  0.26518  0.93824  0.52494  1.0000
  H   H2226     1.0  0.29767  0.88883  0.67667  1.0000
  H   H2227     1.0  0.26979  0.89571  0.66676  1.0000
  H   H2228     1.0  0.26872  0.90850  0.63607  1.0000
  C   C2789     1.0  0.24843  0.96086  0.79539  1.0000
  C   C2790     1.0  0.29423  0.87914  0.85026  1.0000
  H   H2229     1.0  0.32464  0.89468  0.65607  1.0000
  C   C2791     1.0  0.28372  0.96329  0.71038  1.0000
  H   H2230     1.0  0.30575  0.73272  0.91878  1.0000
  C   C2792     1.0  0.26863  0.80976  0.54453  1.0000
  C   C2793     1.0  0.25899  0.66784  0.85067  1.0000
  H   H2231     1.0  0.26352  0.67821  0.51547  1.0000
  H   H2232     1.0  0.31192  0.81231  0.83797  1.0000
  C   C2794     1.0  0.33502  0.83241  0.79819  1.0000
  H   H2233     1.0  0.29999  0.92914  0.50265  1.0000
  C   C2795     1.0  0.37445  0.77973  0.83686  1.0000
  C   C2796     1.0  0.28771  0.88437  0.82178  1.0000
  C   C2797     1.0  0.33748  0.80889  0.84352  1.0000
  C   C2798     1.0  0.29792  0.95458  0.80308  1.0000
  C   C2799     1.0  0.28637  0.78360  0.55816  1.0000
  C   C2800     1.0  0.31013  0.81660  0.86326  1.0000
  H   H2234     1.0  0.31964  0.90394  0.59059  1.0000
  P   P91       1.0  0.33194  0.90989  0.61898  1.0000
  C   C2801     1.0  0.28946  0.73261  0.96132  1.0000
  C   C2802     1.0  0.31924  0.81664  0.87568  1.0000
  C   C2803     1.0  0.35839  0.89098  0.59763  1.0000
  C   C2804     1.0  0.35649  0.72123  0.88063  1.0000
  C   C2805     1.0  0.35067  0.95956  0.68418  1.0000
  H   H2235     1.0  0.31243  0.92302  0.56342  1.0000
  H   H2236     1.0  0.28231  0.93086  0.54318  1.0000
  C   C2806     1.0  0.26263  0.85095  0.54426  1.0000
  C   C2807     1.0  0.35784  0.85940  0.62090  1.0000
  C   C2808     1.0  0.35148  0.71291  0.89775  1.0000
  C   C2809     1.0  0.25699  0.91426  0.89135  1.0000
  C   C2810     1.0  0.34393  0.93765  0.64838  1.0000
  C   C2811     1.0  0.31222  0.90490  0.63393  1.0000
  H   H2237     1.0  0.30381  0.96492  0.79440  1.0000
  Fe  Fe186     1.0  0.27305  0.71055  0.55564  1.0000
  H   H2238     1.0  0.29600  0.81962  0.86597  1.0000
  C   C2812     1.0  0.29629  0.90854  0.62841  1.0000
  C   C2813     1.0  0.31262  0.89749  0.65139  1.0000
  C   C2814     1.0  0.33222  0.77782  0.82688  1.0000
  C   C2815     1.0  0.26169  0.95700  0.74285  1.0000
  C   C2816     1.0  0.24861  0.71707  0.85434  1.0000
  H   H2239     1.0  0.31542  0.84580  0.82997  1.0000
  H   H2240     1.0  0.29102  0.69912  0.49046  1.0000
  C   C2817     1.0  0.26032  0.84180  0.59124  1.0000
  P   P92       1.0  0.34901  0.80497  0.82242  1.0000
  H   H2241     1.0  0.35768  0.84716  0.62995  1.0000
  C   C2818     1.0  0.25000  0.91208  0.83821  1.0000
  H   H2242     1.0  0.27025  0.92239  0.90669  1.0000
  C   C2819     1.0  0.24851  0.92822  0.79016  1.0000
  H   H2243     1.0  0.34885  0.66245  0.93125  1.0000
  H   H2244     1.0  0.25916  0.81358  0.80124  1.0000
  H   H2245     1.0  0.25012  0.92347  0.72933  1.0000
  C   C2820     1.0  0.30096  0.78678  0.54531  1.0000
  C   C2821     1.0  0.26173  0.86695  0.54807  1.0000
  S   S381      1.0  0.24860  0.77208  0.92792  1.0000
  C   C2822     1.0  0.43971  0.96187  0.70740  1.0000
  C   C2823     1.0  0.32141  0.65852  0.59322  1.0000
  H   H2246     1.0  0.25736  0.86881  0.72655  1.0000
  C   C2824     1.0  0.31384  0.66128  0.90888  1.0000
  H   H2247     1.0  0.27560  0.92731  0.77821  1.0000
  H   H2248     1.0  0.33699  0.78102  0.77774  1.0000
  C   C2825     1.0  0.29635  0.92430  0.81165  1.0000
  C   C2826     1.0  0.32130  0.91719  0.58748  1.0000
  H   H2249     1.0  0.31607  0.95335  0.55600  1.0000
  H   H2250     1.0  0.31135  0.69667  0.51955  1.0000
  H   H2251     1.0  0.25428  0.88627  0.83310  1.0000
  H   H2252     1.0  0.28051  0.81889  0.48526  1.0000
  H   H2253     1.0  0.27363  0.87090  0.54776  1.0000
  C   C2827     1.0  0.36918  0.93218  0.62575  1.0000
  H   H2254     1.0  0.38917  0.66818  0.95367  1.0000
  C   C2828     1.0  0.27923  0.83726  0.61142  1.0000
  H   H2255     1.0  0.31339  0.77783  0.54552  1.0000
  Fe  Fe187     1.0  0.25808  0.74388  0.56803  1.0000
  C   C2829     1.0  0.26297  0.67484  0.62494  1.0000
  S   S382      1.0  0.24478  0.94934  0.49972  1.0000
  H   H2256     1.0  0.25169  0.68594  0.56751  1.0000
  C   C2830     1.0  0.26319  0.89179  0.94400  1.0000
  H   H2257     1.0  0.25979  0.89357  0.97057  1.0000
  C   C2831     1.0  0.31078  0.67752  0.85068  1.0000
  S   S383      1.0  0.28126  0.73605  0.54790  1.0000
  C   C2832     1.0  0.29272  0.80462  0.97590  1.0000
  C   C2833     1.0  0.38497  0.79763  0.80950  1.0000
  C   C2834     1.0  0.27086  0.91972  0.89418  1.0000
  H   H2258     1.0  0.32577  0.82481  0.79842  1.0000
  C   C2835     1.0  0.36064  0.92262  0.61977  1.0000
  P   P93       1.0  0.27218  0.91078  0.84021  1.0000
  C   C2836     1.0  0.36978  0.87596  0.59336  1.0000
  C   C2837     1.0  0.31225  0.66445  0.62711  1.0000
  H   H2259     1.0  0.32252  0.75867  0.79893  1.0000
  P   P94       1.0  0.24772  0.82398  0.54272  1.0000
  C   C2838     1.0  0.25733  0.91137  0.87509  1.0000
  C   C2839     1.0  0.28328  0.81258  0.53141  1.0000
  C   C2840     1.0  0.30377  0.72800  0.93252  1.0000
  C   C2841     1.0  0.35869  0.83692  0.80861  1.0000
  H   H2260     1.0  0.36066  0.80739  0.85308  1.0000
  C   C2842     1.0  0.35759  0.85336  0.79790  1.0000
  C   C2843     1.0  0.32207  0.67405  0.90984  1.0000
  C   C2844     1.0  0.33414  0.84870  0.78733  1.0000
  H   H2261     1.0  0.30191  0.95945  0.63082  1.0000
  C   C2845     1.0  0.24684  0.86885  0.87889  1.0000
  H   H2262     1.0  0.24563  0.80846  0.96915  1.0000
  C   C2846     1.0  0.34656  0.80964  0.85582  1.0000
  H   H2263     1.0  0.34624  0.83995  0.49819  1.0000
  H   H2264     1.0  0.34882  0.80084  0.78776  1.0000
  C   C2847     1.0  0.40526  0.77479  0.82393  1.0000
  C   C2848     1.0  0.24685  0.72127  0.93832  1.0000
  H   H2265     1.0  0.39393  0.75984  0.84804  1.0000
  H   H2266     1.0  0.26122  0.78264  0.95657  1.0000
  C   C2849     1.0  0.32176  0.92561  0.48139  1.0000
  H   H2267     1.0  0.34291  0.79907  0.96831  1.0000
  H   H2268     1.0  0.44685  0.94862  0.70876  1.0000
  C   C2850     1.0  0.28693  0.65456  0.49545  1.0000
  H   H2269     1.0  0.32004  0.75625  0.83028  1.0000
  H   H2270     1.0  0.29107  0.98015  0.84878  1.0000
  H   H2271     1.0  0.34465  0.87184  0.77865  1.0000
  C   C2851     1.0  0.32648  0.86268  0.94647  1.0000
  C   C2852     1.0  0.32607  0.76621  0.82106  1.0000
  C   C2853     1.0  0.31738  0.92785  0.57204  1.0000
  C   C2854     1.0  0.28498  0.67290  0.87288  1.0000
  Fe  Fe188     1.0  0.25913  0.97359  0.61754  1.0000
  C   C2855     1.0  0.31092  0.70650  0.95743  1.0000
  C   C2856     1.0  0.25292  0.95143  0.51734  1.0000
  H   H2272     1.0  0.28749  0.77193  0.56808  1.0000
  C   C2857     1.0  0.29084  0.82443  0.60330  1.0000
  H   H2273     1.0  0.24923  0.76869  0.59769  1.0000
  C   C2858     1.0  0.25445  0.85449  0.67218  1.0000
  C   C2859     1.0  0.29873  0.69674  0.87080  1.0000
  H   H2274     1.0  0.36621  0.86160  0.79785  1.0000
  C   C2860     1.0  0.32875  0.87676  0.95184  1.0000
  H   H2275     1.0  0.33275  0.88584  0.97284  1.0000
  H   H2276     1.0  0.27078  0.78282  0.81292  1.0000
  H   H2277     1.0  0.24573  0.91266  0.90167  1.0000
  P   P95       1.0  0.24910  0.86321  0.61545  1.0000
  H   H2278     1.0  0.34818  0.73392  0.85668  1.0000
  H   H2279     1.0  0.38261  0.80774  0.79837  1.0000
  H   H2280     1.0  0.31532  0.93474  0.79042  1.0000
  H   H2281     1.0  0.26943  0.92617  0.52050  1.0000
  H   H2282     1.0  0.26596  0.67830  0.84711  1.0000
  C   C2861     1.0  0.40199  0.78829  0.80997  1.0000
  C   C2862     1.0  0.36995  0.69122  0.94777  1.0000
  C   C2863     1.0  0.30431  0.93759  0.80079  1.0000
  H   H2283     1.0  0.37593  0.69932  0.95222  1.0000
  H   H2284     1.0  0.34917  0.71204  0.94072  1.0000
  H   H2285     1.0  0.34453  0.81296  0.88165  1.0000
  S   S384      1.0  0.26917  0.89971  0.70540  1.0000
  C   C2864     1.0  0.26298  0.85749  0.87644  1.0000
  C   C2865     1.0  0.27229  0.85137  0.88982  1.0000
  C   C2866     1.0  0.26564  0.85677  0.90568  1.0000
  C   C2867     1.0  0.32747  0.72406  0.87589  1.0000
  P   P96       1.0  0.27742  0.84833  0.92314  1.0000
  C   C2868     1.0  0.27191  0.82762  0.93375  1.0000
  C   C2869     1.0  0.30061  0.84572  0.91477  1.0000
  C   C2870     1.0  0.31228  0.83238  0.92313  1.0000
  C   C2871     1.0  0.33025  0.83035  0.91661  1.0000
  C   C2872     1.0  0.33670  0.84182  0.90192  1.0000
  C   C2873     1.0  0.32518  0.85539  0.89378  1.0000
  C   C2874     1.0  0.30719  0.85742  0.90025  1.0000
  C   C2875     1.0  0.25908  0.82592  0.94894  1.0000
  C   C2876     1.0  0.25557  0.80966  0.95742  1.0000
  H   H2286     1.0  0.32037  0.67390  0.83959  1.0000
  C   C2877     1.0  0.27666  0.79681  0.93498  1.0000
  C   C2878     1.0  0.28031  0.81301  0.92657  1.0000
  C   C2879     1.0  0.27287  0.86283  0.93793  1.0000
  C   C2880     1.0  0.26780  0.88074  0.93227  1.0000
  C   C2881     1.0  0.26709  0.95658  0.54382  1.0000
  C   C2882     1.0  0.26412  0.88510  0.96134  1.0000
  C   C2883     1.0  0.25506  0.72257  0.92096  1.0000
  C   C2884     1.0  0.27467  0.85633  0.95519  1.0000
  C   C2885     1.0  0.35507  0.94183  0.69062  1.0000
  C   C2886     1.0  0.33999  0.79077  0.81499  1.0000
  H   H2287     1.0  0.26808  0.85314  0.86429  1.0000
  H   H2288     1.0  0.28452  0.84224  0.88785  1.0000
  H   H2289     1.0  0.32467  0.85316  0.77902  1.0000
  H   H2290     1.0  0.30753  0.82355  0.93471  1.0000
  H   H2291     1.0  0.33917  0.81987  0.92300  1.0000
  H   H2292     1.0  0.35065  0.84024  0.89690  1.0000
  H   H2293     1.0  0.33019  0.86438  0.88249  1.0000
  H   H2294     1.0  0.29840  0.86814  0.89399  1.0000
  H   H2295     1.0  0.25164  0.83706  0.95426  1.0000
  H   H2296     1.0  0.28243  0.84026  0.62225  1.0000
  H   H2297     1.0  0.36717  0.91736  0.60838  1.0000
  C   C2887     1.0  0.30020  0.90761  0.49181  1.0000
  H   H2298     1.0  0.28957  0.81412  0.91442  1.0000
  C   C2888     1.0  0.25783  0.65720  0.86722  1.0000
  Fe  Fe189     1.0  0.35857  0.73410  0.96905  1.0000
  C   C2889     1.0  0.32530  0.95151  0.57906  1.0000
  C   C2890     1.0  0.24559  0.87799  0.55174  1.0000
  H   H2299     1.0  0.27898  0.84265  0.95984  1.0000
  S   S385      1.0  0.28412  0.96248  0.60155  1.0000
  C   C2891     1.0  0.25876  0.68359  0.54084  1.0000
  H   H2300     1.0  0.36078  0.96710  0.67928  1.0000
  H   H2301     1.0  0.25167  0.79410  0.52771  1.0000
  H   H2302     1.0  0.37550  0.64983  0.94315  1.0000
  C   C2892     1.0  0.31552  0.67795  0.61313  1.0000
  C   C2893     1.0  0.29427  0.85406  0.48655  1.0000
  H   H2303     1.0  0.26002  0.80792  0.61762  1.0000
  H   H2304     1.0  0.28588  0.65901  0.94787  1.0000
  H   H2305     1.0  0.24855  0.72458  0.66607  1.0000
  H   H2306     1.0  0.25025  0.98170  0.54096  1.0000
  C   C2894     1.0  0.25035  0.73129  0.85997  1.0000
  Fe  Fe190     1.0  0.24435  0.92406  0.49266  1.0000
  H   H2307     1.0  0.39532  0.75379  0.48484  1.0000
  S   S386      1.0  0.25586  0.69741  0.62133  1.0000
  C   C2895     1.0  0.25797  0.75554  0.48121  1.0000
  C   C2896     1.0  0.32886  0.80069  0.97065  1.0000
  H   H2308     1.0  0.24428  0.89640  0.62574  1.0000
  S   S387      1.0  0.24855  0.98138  0.79831  1.0000
  H   H2309     1.0  0.25876  0.97890  0.65485  1.0000
  H   H2310     1.0  0.36638  0.82130  0.47881  1.0000
  H   H2311     1.0  0.25294  0.92398  0.61002  1.0000
  C   C2897     1.0  0.44618  0.97467  0.69413  1.0000
  C   C2898     1.0  0.32880  0.84474  0.97485  1.0000
  C   C2899     1.0  0.31711  0.70361  0.48328  1.0000
  H   H2312     1.0  0.28030  0.73464  0.48306  1.0000
  H   H2313     1.0  0.25122  0.67392  0.82608  1.0000
  H   H2314     1.0  0.40706  0.77777  0.48787  1.0000
  Fe  Fe191     1.0  0.27263  0.97760  0.57847  1.0000
  C   C2900     1.0  0.24769  0.77976  0.83255  1.0000
  H   H2315     1.0  0.28038  0.74058  0.96977  1.0000
  H   H2316     1.0  0.27871  0.80613  0.97809  1.0000
  C   C2901     1.0  0.71083  0.98546  0.30674  1.0000
  S   S388      1.0  0.72779  0.01295  0.12177  1.0000
  S   S389      1.0  0.71643  0.01230  0.17065  1.0000
  C   C2902     1.0  0.70779  0.19245  0.45093  1.0000
  C   C2903     1.0  0.65021  0.28521  0.46579  1.0000
  C   C2904     1.0  0.71352  0.30890  0.01227  1.0000
  H   H2317     1.0  0.71798  0.31112  0.16126  1.0000
  H   H2318     1.0  0.67788  0.25159  0.98355  1.0000
  C   C2905     1.0  0.73043  0.18491  0.39041  1.0000
  C   C2906     1.0  0.51638  0.02632  0.17522  1.0000
  S   S390      1.0  0.71150  0.13525  0.02147  1.0000
  S   S391      1.0  0.72433  0.15430  0.05416  1.0000
  Fe  Fe192     1.0  0.69794  0.98636  0.37944  1.0000
  S   S392      1.0  0.73014  0.29165  0.33984  1.0000
  Fe  Fe193     1.0  0.71920  0.14994  0.99444  1.0000
  H   H2319     1.0  0.74107  0.27054  0.11695  1.0000
  H   H2320     1.0  0.73171  0.10245  0.17838  1.0000
  S   S393      1.0  0.61210  0.25752  0.01255  1.0000
  C   C2907     1.0  0.57949  0.23429  0.98321  1.0000
  Fe  Fe194     1.0  0.71577  0.01492  0.35643  1.0000
  S   S394      1.0  0.69132  0.03517  0.35928  1.0000
  C   C2908     1.0  0.73978  0.19125  0.39898  1.0000
  Fe  Fe195     1.0  0.68832  0.02256  0.38750  1.0000
  S   S395      1.0  0.68151  0.03833  0.40865  1.0000
  Fe  Fe196     1.0  0.67778  0.01541  0.35617  1.0000
  S   S396      1.0  0.66174  0.02145  0.33515  1.0000
  H   H2321     1.0  0.54274  0.98949  0.19148  1.0000
  Fe  Fe197     1.0  0.59440  0.00454  0.26087  1.0000
  S   S397      1.0  0.57352  0.00939  0.28430  1.0000
  S   S398      1.0  0.60269  0.02382  0.23666  1.0000
  C   C2909     1.0  0.62000  0.98888  0.15547  1.0000
  H   H2322     1.0  0.57653  0.14755  0.28504  1.0000
  C   C2910     1.0  0.66715  0.30034  0.10563  1.0000
  S   S399      1.0  0.58916  0.30498  0.98644  1.0000
  Fe  Fe198     1.0  0.73129  0.11030  0.46351  1.0000
  S   S400      1.0  0.65550  0.20576  0.43230  1.0000
  Fe  Fe199     1.0  0.68954  0.23714  0.08096  1.0000
  S   S401      1.0  0.66561  0.22748  0.08281  1.0000
  S   S402      1.0  0.71062  0.23308  0.05769  1.0000
  Fe  Fe200     1.0  0.67593  0.24944  0.11467  1.0000
  S   S403      1.0  0.65043  0.24083  0.11935  1.0000
  S   S404      1.0  0.68031  0.26056  0.13552  1.0000
  Fe  Fe201     1.0  0.66707  0.21695  0.11057  1.0000
  S   S405      1.0  0.66438  0.18923  0.12022  1.0000
  Fe  Fe202     1.0  0.65100  0.25210  0.09111  1.0000
  S   S406      1.0  0.62728  0.26881  0.08105  1.0000
  S   S407      1.0  0.69240  0.22464  0.10808  1.0000
  S   S408      1.0  0.67497  0.26283  0.08719  1.0000
  Fe  Fe203     1.0  0.70608  0.27677  0.38697  1.0000
  H   H2323     1.0  0.61415  0.25503  0.46951  1.0000
  Fe  Fe204     1.0  0.68282  0.10001  0.19242  1.0000
  S   S409      1.0  0.65419  0.11149  0.19924  1.0000
  S   S410      1.0  0.69822  0.09240  0.16762  1.0000
  Fe  Fe205     1.0  0.69116  0.10484  0.22475  1.0000
  S   S411      1.0  0.66341  0.11684  0.23474  1.0000
  S   S412      1.0  0.71480  0.09712  0.23699  1.0000
  Fe  Fe206     1.0  0.65616  0.09604  0.22597  1.0000
  S   S413      1.0  0.63581  0.08285  0.24547  1.0000
  Fe  Fe207     1.0  0.66347  0.13131  0.20739  1.0000
  S   S414      1.0  0.65244  0.15978  0.20084  1.0000
  S   S415      1.0  0.68398  0.08278  0.21831  1.0000
  S   S416      1.0  0.69184  0.12117  0.19827  1.0000
  C   C2911     1.0  0.69044  0.24748  0.02124  1.0000
  C   C2912     1.0  0.73775  0.20899  0.39772  1.0000
  H   H2324     1.0  0.66654  0.31610  0.00186  1.0000
  C   C2913     1.0  0.68926  0.30952  0.08109  1.0000
  S   S417      1.0  0.69543  0.26707  0.41499  1.0000
  C   C2914     1.0  0.71776  0.10016  0.39051  1.0000
  C   C2915     1.0  0.65461  0.12808  0.42859  1.0000
  C   C2916     1.0  0.64281  0.16184  0.43485  1.0000
  C   C2917     1.0  0.72362  0.11267  0.24152  1.0000
  Fe  Fe208     1.0  0.73619  0.00653  0.14698  1.0000
  H   H2325     1.0  0.72007  0.01743  0.25274  1.0000
  C   C2918     1.0  0.66572  0.27946  0.45457  1.0000
  C   C2919     1.0  0.72114  0.14106  0.24725  1.0000
  C   C2920     1.0  0.71436  0.12964  0.24162  1.0000
  H   H2326     1.0  0.64538  0.12962  0.28059  1.0000
  S   S418      1.0  0.65945  0.17711  0.47726  1.0000
  H   H2327     1.0  0.71374  0.15401  0.24785  1.0000
  H   H2328     1.0  0.70179  0.13376  0.23791  1.0000
  C   C2921     1.0  0.66075  0.18142  0.14266  1.0000
  C   C2922     1.0  0.65300  0.19248  0.15428  1.0000
  C   C2923     1.0  0.65045  0.18576  0.17216  1.0000
  C   C2924     1.0  0.65559  0.16800  0.17844  1.0000
  C   C2925     1.0  0.66322  0.15696  0.16677  1.0000
  C   C2926     1.0  0.66570  0.16368  0.14894  1.0000
  H   H2329     1.0  0.64902  0.20619  0.14951  1.0000
  H   H2330     1.0  0.64452  0.19433  0.18115  1.0000
  H   H2331     1.0  0.66714  0.14324  0.17148  1.0000
  H   H2332     1.0  0.67164  0.15518  0.13996  1.0000
  C   C2927     1.0  0.69949  0.26591  0.13744  1.0000
  H   H2333     1.0  0.67644  0.12854  0.26672  1.0000
  H   H2334     1.0  0.71720  0.29088  0.41776  1.0000
  C   C2928     1.0  0.73557  0.20945  0.33756  1.0000
  C   C2929     1.0  0.72932  0.27078  0.12685  1.0000
  C   C2930     1.0  0.71480  0.26545  0.12460  1.0000
  H   H2335     1.0  0.66551  0.27414  0.44381  1.0000
  H   H2336     1.0  0.66346  0.29146  0.11758  1.0000
  H   H2337     1.0  0.71537  0.26113  0.11300  1.0000
  H   H2338     1.0  0.50934  0.00206  0.11106  1.0000
  C   C2931     1.0  0.73714  0.18453  0.32586  1.0000
  C   C2932     1.0  0.67233  0.11716  0.27528  1.0000
  C   C2933     1.0  0.74142  0.25044  0.42636  1.0000
  H   H2339     1.0  0.68873  0.07511  0.29080  1.0000
  C   C2934     1.0  0.66863  0.22123  0.42722  1.0000
  C   C2935     1.0  0.67250  0.23020  0.41018  1.0000
  C   C2936     1.0  0.68105  0.24407  0.40624  1.0000
  C   C2937     1.0  0.68608  0.24881  0.41929  1.0000
  C   C2938     1.0  0.68300  0.23925  0.43620  1.0000
  C   C2939     1.0  0.67437  0.22544  0.44013  1.0000
  H   H2340     1.0  0.66813  0.22689  0.40022  1.0000
  H   H2341     1.0  0.68295  0.25156  0.39328  1.0000
  H   H2342     1.0  0.68708  0.24263  0.44634  1.0000
  H   H2343     1.0  0.67221  0.21806  0.45315  1.0000
  C   C2940     1.0  0.61268  0.03967  0.23908  1.0000
  C   C2941     1.0  0.62227  0.04904  0.22452  1.0000
  C   C2942     1.0  0.62995  0.06204  0.22624  1.0000
  C   C2943     1.0  0.62768  0.06594  0.24249  1.0000
  C   C2944     1.0  0.61816  0.05649  0.25696  1.0000
  C   C2945     1.0  0.61089  0.04325  0.25534  1.0000
  H   H2344     1.0  0.62372  0.04630  0.21190  1.0000
  H   H2345     1.0  0.63724  0.06929  0.21500  1.0000
  H   H2346     1.0  0.61634  0.05951  0.26948  1.0000
  H   H2347     1.0  0.60354  0.03610  0.26662  1.0000
  H   H2348     1.0  0.51641  0.99932  0.17891  1.0000
  H   H2349     1.0  0.63129  0.00623  0.16305  1.0000
  C   C2946     1.0  0.71089  0.13932  0.41621  1.0000
  H   H2350     1.0  0.70006  0.05985  0.45093  1.0000
  C   C2947     1.0  0.57361  0.98561  0.20133  1.0000
  H   H2351     1.0  0.72463  0.13088  0.18672  1.0000
  H   H2352     1.0  0.72311  0.04374  0.36392  1.0000
  H   H2353     1.0  0.63128  0.21205  0.11349  1.0000
  C   C2948     1.0  0.64290  0.99244  0.19820  1.0000
  H   H2354     1.0  0.64477  0.28337  0.42518  1.0000
  C   C2949     1.0  0.69759  0.04281  0.41745  1.0000
  C   C2950     1.0  0.71538  0.03956  0.40996  1.0000
  H   H2355     1.0  0.71976  0.03397  0.39854  1.0000
  C   C2951     1.0  0.64555  0.01137  0.33286  1.0000
  C   C2952     1.0  0.63258  0.00626  0.34686  1.0000
  C   C2953     1.0  0.71682  0.20385  0.45334  1.0000
  C   C2954     1.0  0.61695  0.00061  0.32735  1.0000
  H   H2356     1.0  0.63311  0.00710  0.35972  1.0000
  H   H2357     1.0  0.70343  0.29813  0.29614  1.0000
  C   C2955     1.0  0.61705  0.26164  0.03075  1.0000
  C   C2956     1.0  0.60710  0.27543  0.03846  1.0000
  C   C2957     1.0  0.61028  0.27748  0.05391  1.0000
  C   C2958     1.0  0.62372  0.26603  0.06151  1.0000
  C   C2959     1.0  0.63382  0.25242  0.05359  1.0000
  C   C2960     1.0  0.63035  0.25010  0.03841  1.0000
  H   H2358     1.0  0.62911  0.14559  0.14569  1.0000
  H   H2359     1.0  0.64407  0.24347  0.05930  1.0000
  H   H2360     1.0  0.63801  0.23934  0.03260  1.0000
  C   C2961     1.0  0.70567  0.25407  0.01480  1.0000
  H   H2361     1.0  0.62955  0.00463  0.30052  1.0000
  C   C2962     1.0  0.71995  0.17644  0.05427  1.0000
  C   C2963     1.0  0.72459  0.18867  0.03941  1.0000
  C   C2964     1.0  0.72169  0.20615  0.04037  1.0000
  C   C2965     1.0  0.71410  0.21137  0.05615  1.0000
  C   C2966     1.0  0.70895  0.19920  0.07077  1.0000
  C   C2967     1.0  0.71217  0.18177  0.06990  1.0000
  C   C2968     1.0  0.63226  0.18196  0.99465  1.0000
  H   H2362     1.0  0.72525  0.21559  0.02892  1.0000
  H   H2363     1.0  0.70289  0.20307  0.08294  1.0000
  H   H2364     1.0  0.70875  0.17234  0.08146  1.0000
  C   C2969     1.0  0.71007  0.03470  0.16889  1.0000
  C   C2970     1.0  0.69675  0.04160  0.18148  1.0000
  C   C2971     1.0  0.69282  0.05941  0.18108  1.0000
  C   C2972     1.0  0.70230  0.07026  0.16812  1.0000
  C   C2973     1.0  0.71535  0.06339  0.15536  1.0000
  C   C2974     1.0  0.71914  0.04565  0.15565  1.0000
  H   H2365     1.0  0.68982  0.03315  0.19179  1.0000
  H   H2366     1.0  0.68264  0.06471  0.19089  1.0000
  H   H2367     1.0  0.72285  0.07174  0.14551  1.0000
  H   H2368     1.0  0.72940  0.04045  0.14586  1.0000
  H   H2369     1.0  0.62846  0.11937  0.16898  1.0000
  C   C2975     1.0  0.61390  0.11712  0.28819  1.0000
  Fe  Fe209     1.0  0.73073  0.14649  0.02842  1.0000
  C   C2976     1.0  0.65813  0.28909  0.04584  1.0000
  C   C2977     1.0  0.51589  0.99639  0.12184  1.0000
  H   H2370     1.0  0.63094  0.21991  0.99737  1.0000
  C   C2978     1.0  0.73173  0.25577  0.07912  1.0000
  S   S419      1.0  0.71348  0.00313  0.38460  1.0000
  H   H2371     1.0  0.57259  0.02937  0.16431  1.0000
  H   H2372     1.0  0.71930  0.21474  0.44301  1.0000
  C   C2979     1.0  0.62464  0.21540  0.10274  1.0000
  C   C2980     1.0  0.61208  0.23062  0.10068  1.0000
  C   C2981     1.0  0.60373  0.23509  0.08668  1.0000
  C   C2982     1.0  0.60800  0.22442  0.07464  1.0000
  C   C2983     1.0  0.67457  0.20754  0.03993  1.0000
  C   C2984     1.0  0.65863  0.20551  0.05103  1.0000
  C   C2985     1.0  0.62242  0.15132  0.09834  1.0000
  H   H2373     1.0  0.60916  0.23923  0.10965  1.0000
  H   H2374     1.0  0.59444  0.24722  0.08479  1.0000
  H   H2375     1.0  0.60170  0.22850  0.06365  1.0000
  H   H2376     1.0  0.72880  0.21945  0.14983  1.0000
  H   H2377     1.0  0.68394  0.21215  0.04410  1.0000
  H   H2378     1.0  0.65597  0.20868  0.06359  1.0000
  H   H2379     1.0  0.63563  0.12507  0.09713  1.0000
  H   H2380     1.0  0.61575  0.14807  0.11166  1.0000
  H   H2381     1.0  0.61115  0.17832  0.09599  1.0000
  Fe  Fe210     1.0  0.72820  0.30185  0.36350  1.0000
  C   C2986     1.0  0.62624  0.16230  0.02226  1.0000
  C   C2987     1.0  0.64398  0.15461  0.02046  1.0000
  C   C2988     1.0  0.65593  0.16093  0.00611  1.0000
  H   H2382     1.0  0.70348  0.19466  0.43893  1.0000
  C   C2989     1.0  0.71734  0.29283  0.29436  1.0000
  C   C2990     1.0  0.62157  0.11205  0.32312  1.0000
  C   C2991     1.0  0.72765  0.31371  0.41363  1.0000
  S   S420      1.0  0.73656  0.16300  0.00224  1.0000
  C   C2992     1.0  0.64190  0.29390  0.02340  1.0000
  C   C2993     1.0  0.59718  0.22642  0.98042  1.0000
  H   H2383     1.0  0.73227  0.05143  0.04342  1.0000
  H   H2384     1.0  0.72255  0.24921  0.45007  1.0000
  H   H2385     1.0  0.73637  0.28872  0.44494  1.0000
  C   C2994     1.0  0.71883  0.19675  0.38071  1.0000
  H   H2386     1.0  0.64853  0.14381  0.03018  1.0000
  H   H2387     1.0  0.66975  0.15512  0.00471  1.0000
  C   C2995     1.0  0.61830  0.00108  0.34408  1.0000
  H   H2388     1.0  0.59406  0.30694  0.47291  1.0000
  S   S421      1.0  0.74091  0.02137  0.33980  1.0000
  H   H2389     1.0  0.74121  0.04115  0.41127  1.0000
  H   H2390     1.0  0.66828  0.24216  0.01496  1.0000
  C   C2996     1.0  0.72036  0.27177  0.07619  1.0000
  H   H2391     1.0  0.66757  0.28075  0.05320  1.0000
  C   C2997     1.0  0.61950  0.11597  0.27072  1.0000
  P   P97       1.0  0.71152  0.30758  0.06933  1.0000
  S   S422      1.0  0.73823  0.05678  0.43991  1.0000
  P   P98       1.0  0.73164  0.16183  0.39405  1.0000
  S   S423      1.0  0.61464  0.98781  0.27572  1.0000
  C   C2998     1.0  0.70425  0.17833  0.46404  1.0000
  H   H2392     1.0  0.74083  0.99346  0.41684  1.0000
  H   H2393     1.0  0.72329  0.07416  0.36320  1.0000
  H   H2394     1.0  0.52400  0.00497  0.25606  1.0000
  C   C2999     1.0  0.73993  0.10744  0.24623  1.0000
  C   C3000     1.0  0.59649  0.18961  0.05388  1.0000
  C   C3001     1.0  0.63867  0.22279  0.98447  1.0000
  S   S424      1.0  0.73170  0.08657  0.02457  1.0000
  C   C3002     1.0  0.71560  0.09403  0.40835  1.0000
  S   S425      1.0  0.70287  0.99627  0.35095  1.0000
  H   H2395     1.0  0.68326  0.98579  0.13186  1.0000
  C   C3003     1.0  0.64895  0.30486  0.05021  1.0000
  C   C3004     1.0  0.65324  0.06645  0.46610  1.0000
  H   H2396     1.0  0.64705  0.05544  0.46919  1.0000
  H   H2397     1.0  0.66833  0.14025  0.40392  1.0000
  C   C3005     1.0  0.73220  0.19173  0.15211  1.0000
  C   C3006     1.0  0.72357  0.17842  0.15319  1.0000
  C   C3007     1.0  0.70585  0.18228  0.15248  1.0000
  C   C3008     1.0  0.69665  0.19937  0.15083  1.0000
  C   C3009     1.0  0.70507  0.21262  0.14988  1.0000
  C   C3010     1.0  0.72276  0.20887  0.15049  1.0000
  C   C3011     1.0  0.72839  0.15495  0.37591  1.0000
  C   C3012     1.0  0.62315  0.30746  0.44726  1.0000
  C   C3013     1.0  0.73718  0.05795  0.05061  1.0000
  C   C3014     1.0  0.73758  0.12297  0.18661  1.0000
  H   H2398     1.0  0.63886  0.28941  0.01331  1.0000
  H   H2399     1.0  0.71286  0.27971  0.16700  1.0000
  C   C3015     1.0  0.72657  0.31420  0.01683  1.0000
  H   H2400     1.0  0.73078  0.18464  0.02732  1.0000
  H   H2401     1.0  0.63507  0.98546  0.19466  1.0000
  C   C3016     1.0  0.74270  0.07678  0.33962  1.0000
  C   C3017     1.0  0.53241  0.99933  0.12095  1.0000
  C   C3018     1.0  0.70179  0.25760  0.98546  1.0000
  C   C3019     1.0  0.63800  0.27284  0.43126  1.0000
  C   C3020     1.0  0.73926  0.24489  0.27998  1.0000
  H   H2402     1.0  0.69911  0.17207  0.15336  1.0000
  H   H2403     1.0  0.68296  0.20245  0.15028  1.0000
  H   H2404     1.0  0.69781  0.22585  0.14870  1.0000
  H   H2405     1.0  0.64185  0.31521  0.98958  1.0000
  C   C3021     1.0  0.59622  0.03774  0.16223  1.0000
  C   C3022     1.0  0.60961  0.03726  0.17042  1.0000
  C   C3023     1.0  0.60998  0.02730  0.18700  1.0000
  C   C3024     1.0  0.59690  0.01796  0.19549  1.0000
  C   C3025     1.0  0.58276  0.01933  0.18786  1.0000
  C   C3026     1.0  0.58284  0.02878  0.17088  1.0000
  P   P99       1.0  0.56508  0.00853  0.19974  1.0000
  C   C3027     1.0  0.56676  0.22435  0.98715  1.0000
  H   H2406     1.0  0.58686  0.14552  0.25414  1.0000
  C   C3028     1.0  0.73220  0.02157  0.25110  1.0000
  C   C3029     1.0  0.60980  0.12618  0.25851  1.0000
  H   H2407     1.0  0.69765  0.16920  0.46213  1.0000
  C   C3030     1.0  0.55601  0.01397  0.22080  1.0000
  C   C3031     1.0  0.56233  0.02552  0.22667  1.0000
  C   C3032     1.0  0.55537  0.02900  0.24323  1.0000
  C   C3033     1.0  0.54164  0.02150  0.25384  1.0000
  C   C3034     1.0  0.53467  0.01075  0.24777  1.0000
  C   C3035     1.0  0.54184  0.00692  0.23137  1.0000
  H   H2408     1.0  0.59610  0.04525  0.14925  1.0000
  H   H2409     1.0  0.61979  0.04448  0.16390  1.0000
  H   H2410     1.0  0.62029  0.02699  0.19344  1.0000
  H   H2411     1.0  0.59746  0.01021  0.20833  1.0000
  H   H2412     1.0  0.60229  0.28796  0.05997  1.0000
  C   C3036     1.0  0.58856  0.13874  0.28107  1.0000
  C   C3037     1.0  0.73077  0.04044  0.19793  1.0000
  H   H2413     1.0  0.56086  0.03732  0.24792  1.0000
  H   H2414     1.0  0.53649  0.02386  0.26684  1.0000
  H   H2415     1.0  0.69503  0.28926  0.47216  1.0000
  H   H2416     1.0  0.53649  0.99822  0.22710  1.0000
  H   H2417     1.0  0.68609  0.24354  0.03506  1.0000
  H   H2418     1.0  0.71309  0.25523  0.02367  1.0000
  C   C3038     1.0  0.69909  0.30321  0.04227  1.0000
  C   C3039     1.0  0.70889  0.15286  0.35852  1.0000
  C   C3040     1.0  0.72247  0.14203  0.34956  1.0000
  C   C3041     1.0  0.73468  0.23203  0.29424  1.0000
  C   C3042     1.0  0.73427  0.03060  0.26273  1.0000
  H   H2419     1.0  0.55368  0.99425  0.13412  1.0000
  C   C3043     1.0  0.71176  0.15913  0.37179  1.0000
  C   C3044     1.0  0.74293  0.04873  0.06595  1.0000
  C   C3045     1.0  0.70443  0.05432  0.43947  1.0000
  C   C3046     1.0  0.62900  0.12708  0.34161  1.0000
  S   S426      1.0  0.71153  0.09481  0.46500  1.0000
  Fe  Fe211     1.0  0.64496  0.19966  0.46096  1.0000
  C   C3047     1.0  0.69143  0.17822  0.29373  1.0000
  H   H2420     1.0  0.69770  0.09063  0.43250  1.0000
  H   H2421     1.0  0.68732  0.27140  0.16265  1.0000
  C   C3048     1.0  0.65372  0.15897  0.41915  1.0000
  H   H2422     1.0  0.72824  0.02944  0.19455  1.0000
  H   H2423     1.0  0.63353  0.07460  0.33233  1.0000
  C   C3049     1.0  0.65356  0.07756  0.44993  1.0000
  S   S427      1.0  0.59787  0.99558  0.32437  1.0000
  C   C3050     1.0  0.71387  0.15625  0.41152  1.0000
  C   C3051     1.0  0.70223  0.16897  0.41993  1.0000
  C   C3052     1.0  0.68860  0.16458  0.43348  1.0000
  H   H2424     1.0  0.69605  0.15606  0.35542  1.0000
  H   H2425     1.0  0.72026  0.13683  0.33949  1.0000
  C   C3053     1.0  0.63278  0.12106  0.32621  1.0000
  H   H2426     1.0  0.59387  0.22909  0.01576  1.0000
  C   C3054     1.0  0.64801  0.23600  0.98039  1.0000
  S   S428      1.0  0.72866  0.13815  0.45066  1.0000
  H   H2427     1.0  0.64748  0.07485  0.44081  1.0000
  C   C3055     1.0  0.68045  0.24663  0.00992  1.0000
  H   H2428     1.0  0.61430  0.12510  0.24505  1.0000
  C   C3056     1.0  0.71720  0.23027  0.29997  1.0000
  H   H2429     1.0  0.61113  0.12885  0.36593  1.0000
  C   C3057     1.0  0.66196  0.09161  0.44563  1.0000
  C   C3058     1.0  0.72514  0.05950  0.21787  1.0000
  C   C3059     1.0  0.70298  0.19972  0.30855  1.0000
  H   H2430     1.0  0.72309  0.17494  0.10614  1.0000
  H   H2431     1.0  0.70357  0.18229  0.41620  1.0000
  H   H2432     1.0  0.67980  0.17440  0.44002  1.0000
  C   C3060     1.0  0.62061  0.24550  0.44622  1.0000
  C   C3061     1.0  0.62897  0.24761  0.42887  1.0000
  C   C3062     1.0  0.60836  0.21377  0.03507  1.0000
  H   H2433     1.0  0.64453  0.12333  0.31689  1.0000
  C   C3063     1.0  0.62968  0.27080  0.44877  1.0000
  C   C3064     1.0  0.62089  0.25705  0.45615  1.0000
  P   P100      1.0  0.62920  0.28669  0.46094  1.0000
  C   C3065     1.0  0.69787  0.31400  0.41282  1.0000
  C   C3066     1.0  0.72567  0.28707  0.07535  1.0000
  H   H2434     1.0  0.69614  0.12167  0.43459  1.0000
  H   H2435     1.0  0.71824  0.06357  0.22981  1.0000
  H   H2436     1.0  0.59312  0.18479  0.98585  1.0000
  C   C3067     1.0  0.71193  0.30890  0.04692  1.0000
  H   H2437     1.0  0.61408  0.23474  0.45210  1.0000
  H   H2438     1.0  0.62907  0.23838  0.42134  1.0000
  H   H2439     1.0  0.69414  0.28773  0.10196  1.0000
  C   C3068     1.0  0.73170  0.06782  0.35305  1.0000
  H   H2440     1.0  0.69099  0.24002  0.29516  1.0000
  H   H2441     1.0  0.64428  0.26281  0.40797  1.0000
  S   S429      1.0  0.69915  0.30393  0.37225  1.0000
  C   C3069     1.0  0.73157  0.05059  0.35345  1.0000
  S   S430      1.0  0.69956  0.16844  0.97908  1.0000
  C   C3070     1.0  0.61402  0.12420  0.35400  1.0000
  C   C3071     1.0  0.71383  0.19262  0.29458  1.0000
  C   C3072     1.0  0.70815  0.18175  0.28737  1.0000
  H   H2442     1.0  0.62520  0.99487  0.22249  1.0000
  S   S431      1.0  0.74307  0.09821  0.33957  1.0000
  C   C3073     1.0  0.71911  0.01344  0.29595  1.0000
  C   C3074     1.0  0.70855  0.00201  0.29637  1.0000
  P   P101      1.0  0.71732  0.03415  0.28144  1.0000
  C   C3075     1.0  0.69515  0.04078  0.27814  1.0000
  C   C3076     1.0  0.71979  0.05071  0.29115  1.0000
  C   C3077     1.0  0.71390  0.04993  0.30899  1.0000
  C   C3078     1.0  0.71379  0.06375  0.31623  1.0000
  C   C3079     1.0  0.72015  0.07816  0.30588  1.0000
  C   C3080     1.0  0.72612  0.07901  0.28815  1.0000
  C   C3081     1.0  0.72553  0.06557  0.28070  1.0000
  C   C3082     1.0  0.69125  0.04645  0.26161  1.0000
  C   C3083     1.0  0.67385  0.05160  0.25967  1.0000
  C   C3084     1.0  0.66032  0.05136  0.27421  1.0000
  C   C3085     1.0  0.66411  0.04599  0.29068  1.0000
  C   C3086     1.0  0.68144  0.04073  0.29266  1.0000
  C   C3087     1.0  0.71449  0.30484  0.41513  1.0000
  C   C3088     1.0  0.74195  0.14403  0.36682  1.0000
  C   C3089     1.0  0.68598  0.25189  0.99212  1.0000
  H   H2443     1.0  0.72718  0.31199  0.09637  1.0000
  C   C3090     1.0  0.66181  0.08748  0.29675  1.0000
  C   C3091     1.0  0.65012  0.17462  0.99334  1.0000
  H   H2444     1.0  0.74031  0.07901  0.21099  1.0000
  Fe  Fe212     1.0  0.73468  0.11448  0.01474  1.0000
  C   C3092     1.0  0.60278  0.11529  0.35101  1.0000
  H   H2445     1.0  0.73865  0.20861  0.98881  1.0000
  H   H2446     1.0  0.69852  0.00582  0.28875  1.0000
  H   H2447     1.0  0.70908  0.03881  0.31733  1.0000
  H   H2448     1.0  0.70902  0.06316  0.32996  1.0000
  H   H2449     1.0  0.72049  0.08864  0.31163  1.0000
  H   H2450     1.0  0.49498  0.98399  0.13709  1.0000
  H   H2451     1.0  0.72921  0.06699  0.26678  1.0000
  H   H2452     1.0  0.70151  0.04706  0.25029  1.0000
  H   H2453     1.0  0.67073  0.05598  0.24692  1.0000
  H   H2454     1.0  0.64687  0.05544  0.27274  1.0000
  H   H2455     1.0  0.65361  0.04585  0.30197  1.0000
  H   H2456     1.0  0.68414  0.03660  0.30556  1.0000
  C   C3093     1.0  0.73141  0.19756  0.10714  1.0000
  H   H2457     1.0  0.74249  0.14050  0.10436  1.0000
  H   H2458     1.0  0.72680  0.08768  0.41419  1.0000
  C   C3094     1.0  0.61255  0.04954  0.32075  1.0000
  C   C3095     1.0  0.60647  0.31158  0.09678  1.0000
  C   C3096     1.0  0.64878  0.10107  0.41319  1.0000
  C   C3097     1.0  0.68647  0.10995  0.39357  1.0000
  C   C3098     1.0  0.70318  0.10801  0.38311  1.0000
  C   C3099     1.0  0.65491  0.08658  0.40541  1.0000
  C   C3100     1.0  0.64451  0.08221  0.39654  1.0000
  C   C3101     1.0  0.62791  0.09228  0.39535  1.0000
  C   C3102     1.0  0.62168  0.10669  0.40313  1.0000
  C   C3103     1.0  0.63207  0.11109  0.41206  1.0000
  H   H2459     1.0  0.67531  0.11592  0.38758  1.0000
  H   H2460     1.0  0.70490  0.11234  0.36922  1.0000
  H   H2461     1.0  0.66766  0.07843  0.40644  1.0000
  H   H2462     1.0  0.64932  0.07082  0.39083  1.0000
  H   H2463     1.0  0.61982  0.08875  0.38859  1.0000
  H   H2464     1.0  0.60871  0.11433  0.40246  1.0000
  H   H2465     1.0  0.62697  0.12215  0.41820  1.0000
  H   H2466     1.0  0.67062  0.20937  0.37476  1.0000
  H   H2467     1.0  0.66161  0.24113  0.37251  1.0000
  C   C3104     1.0  0.69327  0.07542  0.09859  1.0000
  C   C3105     1.0  0.70940  0.06638  0.10251  1.0000
  C   C3106     1.0  0.71850  0.07381  0.11012  1.0000
  C   C3107     1.0  0.71183  0.09048  0.11332  1.0000
  C   C3108     1.0  0.69591  0.09988  0.10894  1.0000
  C   C3109     1.0  0.68637  0.09199  0.10211  1.0000
  P   P102      1.0  0.68713  0.12145  0.11310  1.0000
  C   C3110     1.0  0.66768  0.12055  0.12986  1.0000
  C   C3111     1.0  0.70319  0.12841  0.12019  1.0000
  C   C3112     1.0  0.70134  0.12906  0.13756  1.0000
  C   C3113     1.0  0.71425  0.13376  0.14298  1.0000
  C   C3114     1.0  0.72911  0.13786  0.13106  1.0000
  C   C3115     1.0  0.73101  0.13737  0.11367  1.0000
  C   C3116     1.0  0.71806  0.13275  0.10822  1.0000
  C   C3117     1.0  0.65363  0.13477  0.13070  1.0000
  C   C3118     1.0  0.63950  0.13429  0.14472  1.0000
  C   C3119     1.0  0.63913  0.11954  0.15786  1.0000
  C   C3120     1.0  0.65280  0.10518  0.15687  1.0000
  C   C3121     1.0  0.66697  0.10566  0.14293  1.0000
  C   C3122     1.0  0.68307  0.13706  0.09377  1.0000
  C   C3123     1.0  0.68592  0.13205  0.07789  1.0000
  C   C3124     1.0  0.68373  0.14450  0.06294  1.0000
  C   C3125     1.0  0.67918  0.16200  0.06356  1.0000
  C   C3126     1.0  0.67635  0.16713  0.07927  1.0000
  C   C3127     1.0  0.67859  0.15472  0.09424  1.0000
  H   H2468     1.0  0.68624  0.06965  0.09265  1.0000
  H   H2469     1.0  0.71498  0.05362  0.09964  1.0000
  H   H2470     1.0  0.73082  0.06662  0.11348  1.0000
  H   H2471     1.0  0.71907  0.09581  0.11941  1.0000
  H   H2472     1.0  0.67379  0.09882  0.09917  1.0000
  H   H2473     1.0  0.69001  0.12584  0.14705  1.0000
  H   H2474     1.0  0.71268  0.13400  0.15650  1.0000
  H   H2475     1.0  0.59674  0.17884  0.06477  1.0000
  C   C3128     1.0  0.68453  0.29820  0.09668  1.0000
  H   H2476     1.0  0.71971  0.13241  0.09468  1.0000
  H   H2477     1.0  0.65367  0.14650  0.12100  1.0000
  H   H2478     1.0  0.65279  0.09387  0.16723  1.0000
  H   H2479     1.0  0.67769  0.09458  0.14272  1.0000
  H   H2480     1.0  0.69058  0.11873  0.07667  1.0000
  H   H2481     1.0  0.68621  0.14058  0.05074  1.0000
  H   H2482     1.0  0.67852  0.17150  0.05173  1.0000
  H   H2483     1.0  0.67341  0.18071  0.07977  1.0000
  H   H2484     1.0  0.67747  0.15895  0.10608  1.0000
  C   C3129     1.0  0.59435  0.13760  0.26366  1.0000
  H   H2485     1.0  0.74203  0.21983  0.10476  1.0000
  C   C3130     1.0  0.66917  0.08351  0.47414  1.0000
  H   H2486     1.0  0.68856  0.29860  0.05200  1.0000
  H   H2487     1.0  0.72079  0.19357  0.97931  1.0000
  C   C3131     1.0  0.52460  0.03848  0.17749  1.0000
  C   C3132     1.0  0.63337  0.99361  0.16010  1.0000
  C   C3133     1.0  0.65851  0.99608  0.18721  1.0000
  H   H2488     1.0  0.59116  0.11302  0.36062  1.0000
  H   H2489     1.0  0.70759  0.27223  0.07406  1.0000
  C   C3134     1.0  0.62038  0.17595  0.00941  1.0000
  C   C3135     1.0  0.68459  0.10182  0.27811  1.0000
  C   C3136     1.0  0.73273  0.18298  0.10062  1.0000
  H   H2490     1.0  0.59353  0.12951  0.30673  1.0000
  C   C3137     1.0  0.66889  0.00413  0.19281  1.0000
  C   C3138     1.0  0.66317  0.00946  0.20865  1.0000
  C   C3139     1.0  0.64729  0.00639  0.21918  1.0000
  C   C3140     1.0  0.63732  0.99761  0.21409  1.0000
  H   H2491     1.0  0.69368  0.27648  0.44813  1.0000
  C   C3141     1.0  0.67444  0.00410  0.14890  1.0000
  C   C3142     1.0  0.68168  0.99906  0.13297  1.0000
  C   C3143     1.0  0.68726  0.01103  0.11834  1.0000
  C   C3144     1.0  0.68566  0.02815  0.11950  1.0000
  C   C3145     1.0  0.67855  0.03330  0.13532  1.0000
  C   C3146     1.0  0.67274  0.02137  0.14996  1.0000
  H   H2492     1.0  0.70092  0.16684  0.37916  1.0000
  C   C3147     1.0  0.65449  0.31386  0.09919  1.0000
  C   C3148     1.0  0.62170  0.08208  0.30979  1.0000
  H   H2493     1.0  0.60797  0.99793  0.35493  1.0000
  H   H2494     1.0  0.73068  0.09863  0.38234  1.0000
  C   C3149     1.0  0.54665  0.01532  0.18920  1.0000
  H   H2495     1.0  0.69112  0.20448  0.01524  1.0000
  H   H2496     1.0  0.72937  0.17698  0.18624  1.0000
  H   H2497     1.0  0.65800  0.16979  0.40968  1.0000
  H   H2498     1.0  0.68143  0.00624  0.18493  1.0000
  H   H2499     1.0  0.67105  0.01595  0.21280  1.0000
  H   H2500     1.0  0.64273  0.01068  0.23139  1.0000
  H   H2501     1.0  0.53868  0.00725  0.10947  1.0000
  H   H2502     1.0  0.72272  0.26493  0.99243  1.0000
  C   C3150     1.0  0.70910  0.25438  0.27706  1.0000
  H   H2503     1.0  0.69336  0.00683  0.10623  1.0000
  H   H2504     1.0  0.69042  0.03724  0.10821  1.0000
  H   H2505     1.0  0.67780  0.04646  0.13631  1.0000
  H   H2506     1.0  0.66705  0.02574  0.16198  1.0000
  P   P103      1.0  0.66636  0.98848  0.16718  1.0000
  C   C3151     1.0  0.69900  0.27114  0.15261  1.0000
  C   C3152     1.0  0.74305  0.04960  0.18677  1.0000
  C   C3153     1.0  0.73230  0.00791  0.30556  1.0000
  Fe  Fe213     1.0  0.70174  0.29137  0.34996  1.0000
  H   H2507     1.0  0.73912  0.14134  0.13535  1.0000
  H   H2508     1.0  0.60263  0.30004  0.43985  1.0000
  C   C3154     1.0  0.68180  0.28086  0.45693  1.0000
  C   C3155     1.0  0.74243  0.17314  0.20705  1.0000
  C   C3156     1.0  0.62185  0.05464  0.33019  1.0000
  C   C3157     1.0  0.70450  0.24136  0.29110  1.0000
  C   C3158     1.0  0.57172  0.20648  0.98829  1.0000
  H   H2509     1.0  0.68962  0.29946  0.02135  1.0000
  H   H2510     1.0  0.66134  0.27131  0.02936  1.0000
  H   H2511     1.0  0.55307  0.23058  0.98913  1.0000
  C   C3159     1.0  0.69227  0.05007  0.43230  1.0000
  H   H2512     1.0  0.71676  0.17600  0.27684  1.0000
  C   C3160     1.0  0.72219  0.05133  0.43181  1.0000
  C   C3161     1.0  0.71347  0.27594  0.15504  1.0000
  C   C3162     1.0  0.71672  0.21453  0.37957  1.0000
  C   C3163     1.0  0.63357  0.13836  0.09014  1.0000
  H   H2513     1.0  0.72683  0.19526  0.28941  1.0000
  C   C3164     1.0  0.72228  0.20119  0.46899  1.0000
  H   H2514     1.0  0.72112  0.20042  0.11798  1.0000
  H   H2515     1.0  0.70772  0.22365  0.37214  1.0000
  H   H2516     1.0  0.71129  0.19236  0.37415  1.0000
  H   H2517     1.0  0.69918  0.26309  0.27047  1.0000
  C   C3165     1.0  0.72897  0.30149  0.28154  1.0000
  C   C3166     1.0  0.60653  0.10922  0.33565  1.0000
  P   P104      1.0  0.71091  0.21338  0.31784  1.0000
  H   H2518     1.0  0.60081  0.05643  0.29847  1.0000
  H   H2519     1.0  0.72965  0.22255  0.33929  1.0000
  C   C3167     1.0  0.72755  0.04373  0.41716  1.0000
  C   C3168     1.0  0.67087  0.23583  0.36207  1.0000
  H   H2520     1.0  0.51917  0.05215  0.17405  1.0000
  C   C3169     1.0  0.60969  0.31018  0.43826  1.0000
  C   C3170     1.0  0.72145  0.04568  0.21324  1.0000
  C   C3171     1.0  0.67589  0.21796  0.36324  1.0000
  C   C3172     1.0  0.74162  0.27097  0.30334  1.0000
  H   H2521     1.0  0.63777  0.13390  0.34396  1.0000
  C   C3173     1.0  0.61999  0.16851  0.08944  1.0000
  C   C3174     1.0  0.63038  0.00488  0.31346  1.0000
  C   C3175     1.0  0.64449  0.01034  0.31621  1.0000
  C   C3176     1.0  0.69891  0.09576  0.41881  1.0000
  H   H2522     1.0  0.57268  0.03184  0.21875  1.0000
  H   H2523     1.0  0.65448  0.01410  0.30528  1.0000
  C   C3177     1.0  0.68603  0.19641  0.31463  1.0000
  H   H2524     1.0  0.66726  0.18310  0.31198  1.0000
  C   C3178     1.0  0.62060  0.20905  0.07662  1.0000
  C   C3179     1.0  0.67859  0.20321  0.02369  1.0000
  C   C3180     1.0  0.63626  0.31543  0.04102  1.0000
  S   S432      1.0  0.67214  0.00472  0.38482  1.0000
  C   C3181     1.0  0.58293  0.19361  0.04484  1.0000
  C   C3182     1.0  0.54086  0.99199  0.13483  1.0000
  P   P105      1.0  0.73385  0.21581  0.47236  1.0000
  P   P106      1.0  0.62660  0.10346  0.30368  1.0000
  Fe  Fe214     1.0  0.60848  0.27957  0.98975  1.0000
  C   C3183     1.0  0.64212  0.14257  0.07297  1.0000
  H   H2525     1.0  0.65084  0.13252  0.06664  1.0000
  C   C3184     1.0  0.68033  0.18564  0.30726  1.0000
  H   H2526     1.0  0.63140  0.10711  0.26650  1.0000
  H   H2527     1.0  0.69815  0.10136  0.27186  1.0000
  C   C3185     1.0  0.64936  0.10277  0.29385  1.0000
  S   S433      1.0  0.73475  0.27584  0.38038  1.0000
  H   H2528     1.0  0.71146  0.03897  0.22149  1.0000
  C   C3186     1.0  0.64657  0.19902  0.04609  1.0000
  C   C3187     1.0  0.62908  0.17294  0.07236  1.0000
  C   C3188     1.0  0.63994  0.15979  0.06413  1.0000
  H   H2529     1.0  0.59667  0.28426  0.03274  1.0000
  C   C3189     1.0  0.59826  0.12848  0.29334  1.0000
  H   H2530     1.0  0.71914  0.12941  0.40946  1.0000
  H   H2531     1.0  0.63878  0.12069  0.45401  1.0000
  C   C3190     1.0  0.73453  0.99137  0.31591  1.0000
  C   C3191     1.0  0.72929  0.20160  0.32759  1.0000
  S   S434      1.0  0.70643  0.26442  0.36537  1.0000
  Fe  Fe215     1.0  0.73456  0.26576  0.35743  1.0000
  H   H2532     1.0  0.67437  0.26083  0.34677  1.0000
  C   C3192     1.0  0.72648  0.25616  0.27151  1.0000
  C   C3193     1.0  0.62901  0.20471  0.09071  1.0000
  H   H2533     1.0  0.64710  0.16286  0.05104  1.0000
  H   H2534     1.0  0.72750  0.24405  0.07963  1.0000
  C   C3194     1.0  0.52310  0.00870  0.18016  1.0000
  S   S435      1.0  0.61854  0.19311  0.47277  1.0000
  H   H2535     1.0  0.73002  0.26630  0.26066  1.0000
  C   C3195     1.0  0.67800  0.24696  0.34750  1.0000
  P   P107      1.0  0.62649  0.19523  0.06100  1.0000
  H   H2536     1.0  0.61703  0.15760  0.03355  1.0000
  H   H2537     1.0  0.73246  0.17780  0.31871  1.0000
  H   H2538     1.0  0.67547  0.10575  0.45534  1.0000
  H   H2539     1.0  0.59775  0.10223  0.33357  1.0000
  H   H2540     1.0  0.60761  0.99780  0.15503  1.0000
  S   S436      1.0  0.68194  0.29559  0.33364  1.0000
  C   C3196     1.0  0.72859  0.27604  0.14217  1.0000
  H   H2541     1.0  0.62914  0.15017  0.45957  1.0000
  C   C3197     1.0  0.66652  0.19710  0.01844  1.0000
  H   H2542     1.0  0.67649  0.14398  0.44996  1.0000
  C   C3198     1.0  0.72618  0.22062  0.38807  1.0000
  C   C3199     1.0  0.68786  0.21124  0.34968  1.0000
  C   C3200     1.0  0.65056  0.19504  0.02958  1.0000
  H   H2543     1.0  0.63911  0.19317  0.09237  1.0000
  H   H2544     1.0  0.66970  0.19374  0.00582  1.0000
  H   H2545     1.0  0.68708  0.16980  0.28807  1.0000
  C   C3201     1.0  0.61267  0.07669  0.30015  1.0000
  H   H2546     1.0  0.57293  0.18594  0.04874  1.0000
  H   H2547     1.0  0.73084  0.09030  0.28014  1.0000
  H   H2548     1.0  0.60664  0.18167  0.01108  1.0000
  H   H2549     1.0  0.54549  0.04256  0.18687  1.0000
  H   H2550     1.0  0.67866  0.05217  0.43839  1.0000
  C   C3202     1.0  0.62635  0.07086  0.32480  1.0000
  C   C3203     1.0  0.64317  0.13119  0.44413  1.0000
  C   C3204     1.0  0.50783  0.98608  0.13659  1.0000
  H   H2551     1.0  0.57133  0.21114  0.02426  1.0000
  Fe  Fe216     1.0  0.59348  0.99141  0.29915  1.0000
  H   H2552     1.0  0.62569  0.04592  0.34164  1.0000
  H   H2553     1.0  0.69188  0.19737  0.35086  1.0000
  C   C3205     1.0  0.59473  0.21783  0.02618  1.0000
  C   C3206     1.0  0.60232  0.20844  0.98180  1.0000
  C   C3207     1.0  0.69473  0.22237  0.33476  1.0000
  C   C3208     1.0  0.53814  0.00318  0.18717  1.0000
  C   C3209     1.0  0.65468  0.28371  0.03237  1.0000
  H   H2554     1.0  0.65957  0.17919  0.98219  1.0000
  C   C3210     1.0  0.73764  0.06844  0.20697  1.0000
  C   C3211     1.0  0.63750  0.14796  0.44731  1.0000
  C   C3212     1.0  0.65475  0.11766  0.28310  1.0000
  H   H2555     1.0  0.64144  0.19016  0.02539  1.0000
  Fe  Fe217     1.0  0.74134  0.98560  0.11991  1.0000
  H   H2556     1.0  0.65813  0.07583  0.30498  1.0000
  H   H2557     1.0  0.67710  0.20221  0.32487  1.0000
  C   C3213     1.0  0.53957  0.03301  0.18463  1.0000
  C   C3214     1.0  0.60799  0.06052  0.30575  1.0000
  C   C3215     1.0  0.68661  0.14746  0.43897  1.0000
  C   C3216     1.0  0.69761  0.13490  0.43019  1.0000
  P   P108      1.0  0.66237  0.10623  0.42483  1.0000
  C   C3217     1.0  0.68418  0.10395  0.41157  1.0000
  H   H2558     1.0  0.57852  0.98681  0.17380  1.0000
  C   C3218     1.0  0.74131  0.17752  0.18960  1.0000
  C   C3219     1.0  0.71124  0.25932  0.99699  1.0000
  C   C3220     1.0  0.72366  0.27763  0.30529  1.0000
  C   C3221     1.0  0.60932  0.19969  0.04904  1.0000
  H   H2559     1.0  0.61790  0.22192  0.03131  1.0000
  C   C3222     1.0  0.67931  0.08702  0.28881  1.0000
  C   C3223     1.0  0.63760  0.26131  0.42138  1.0000
  C   C3224     1.0  0.66943  0.09470  0.45805  1.0000
  H   H2560     1.0  0.69558  0.24928  0.32309  1.0000
  H   H2561     1.0  0.60894  0.03702  0.32499  1.0000
  H   H2562     1.0  0.71462  0.27133  0.31565  1.0000
  C   C3225     1.0  0.68998  0.24030  0.33395  1.0000
  C   C3226     1.0  0.58201  0.20777  0.03104  1.0000
  H   H2563     1.0  0.60913  0.08489  0.28837  1.0000
  C   C3227     1.0  0.69983  0.30333  0.02498  1.0000
  H   H2564     1.0  0.74246  0.03520  0.07050  1.0000
  C   C3228     1.0  0.65960  0.14217  0.41599  1.0000
  H   H2565     1.0  0.63864  0.17481  0.43746  1.0000
  C   C3229     1.0  0.73892  0.13754  0.35382  1.0000
  H   H2566     1.0  0.73476  0.28032  0.47636  1.0000
  Fe  Fe218     1.0  0.73444  0.07317  0.46014  1.0000
  H   H2567     1.0  0.72457  0.23436  0.38725  1.0000
  C   C3230     1.0  0.73711  0.13549  0.25278  1.0000
  C   C3231     1.0  0.74217  0.04238  0.34023  1.0000
  C   C3232     1.0  0.74328  0.20844  0.09967  1.0000
  H   H2568     1.0  0.60452  0.29868  0.10331  1.0000
  C   C3233     1.0  0.72586  0.31412  0.03413  1.0000
  C   C3234     1.0  0.58943  0.19857  0.98543  1.0000
  H   H2569     1.0  0.68784  0.30701  0.41366  1.0000
  C   C3235     1.0  0.68255  0.28803  0.47048  1.0000
  H   H2570     1.0  0.73038  0.16507  0.15489  1.0000
  H   H2571     1.0  0.67838  0.98433  0.33499  1.0000
  C   C3236     1.0  0.73486  0.24279  0.44336  1.0000
  H   H2572     1.0  0.56183  0.19880  0.99118  1.0000
  H   H2573     1.0  0.61505  0.30477  0.07192  1.0000
  H   H2574     1.0  0.74069  0.30668  0.41492  1.0000
  H   H2575     1.0  0.73424  0.26256  0.42028  1.0000
  H   H2576     1.0  0.74089  0.01636  0.30507  1.0000
  C   C3237     1.0  0.63260  0.30964  0.02776  1.0000
  H   H2577     1.0  0.73150  0.16932  0.21688  1.0000
  C   C3238     1.0  0.73813  0.07545  0.04434  1.0000
  H   H2578     1.0  0.57569  0.24819  0.98214  1.0000
  S   S437      1.0  0.74084  0.12815  0.98677  1.0000
  H   H2579     1.0  0.72408  0.31362  0.27344  1.0000
  H   H2580     1.0  0.71364  0.30957  0.99885  1.0000
  C   C3239     1.0  0.74298  0.28619  0.07632  1.0000
  H   H2581     1.0  0.65773  0.30970  0.31130  1.0000
  H   H2582     1.0  0.64727  0.24330  0.99004  1.0000
  C   C3240     1.0  0.74175  0.10696  0.18168  1.0000
  H   H2583     1.0  0.50460  0.03054  0.16998  1.0000
  Fe  Fe219     1.0  0.56529  0.98541  0.28247  1.0000
  H   H2584     1.0  0.74301  0.28696  0.98993  1.0000
  H   H2585     1.0  0.73759  0.17115  0.43604  1.0000
  C   C3241     1.0  0.74376  0.22674  0.45124  1.0000
  C   C3242     1.0  0.61260  0.31502  0.07892  1.0000
  H   H2586     1.0  0.65146  0.30860  0.06100  1.0000
  H   H2587     1.0  0.64105  0.31533  0.10611  1.0000
  C   C3243     1.0  0.67767  0.31607  0.32035  1.0000
  H   H2588     1.0  0.69647  0.13108  0.94131  1.0000
  Fe  Fe220     1.0  0.67673  0.25997  0.59357  1.0000
  S   S438      1.0  0.68007  0.23940  0.57851  1.0000
  S   S439      1.0  0.66688  0.25388  0.62239  1.0000
  Fe  Fe221     1.0  0.69170  0.28486  0.56204  1.0000
  S   S440      1.0  0.69581  0.26657  0.54451  1.0000
  C   C3244     1.0  0.56664  0.23963  0.88527  1.0000
  Fe  Fe222     1.0  0.66961  0.26157  0.55882  1.0000
  S   S441      1.0  0.64991  0.26030  0.54455  1.0000
  Fe  Fe223     1.0  0.70601  0.24643  0.56576  1.0000
  S   S442      1.0  0.66432  0.28176  0.57468  1.0000
  S   S443      1.0  0.70381  0.26501  0.58247  1.0000
  Fe  Fe224     1.0  0.54750  0.16320  0.80632  1.0000
  S   S444      1.0  0.54691  0.14281  0.83036  1.0000
  S   S445      1.0  0.52537  0.18635  0.80823  1.0000
  Fe  Fe225     1.0  0.57982  0.14218  0.78761  1.0000
  S   S446      1.0  0.58142  0.12029  0.81055  1.0000
  S   S447      1.0  0.60128  0.14078  0.76420  1.0000
  Fe  Fe226     1.0  0.55237  0.12431  0.81259  1.0000
  S   S448      1.0  0.53757  0.10248  0.81982  1.0000
  Fe  Fe227     1.0  0.57578  0.14128  0.82575  1.0000
  S   S449      1.0  0.58811  0.14092  0.84818  1.0000
  S   S450      1.0  0.55125  0.14485  0.78871  1.0000
  S   S451      1.0  0.57614  0.16279  0.80248  1.0000
  Fe  Fe228     1.0  0.55745  0.22466  0.68889  1.0000
  S   S452      1.0  0.54734  0.25322  0.68285  1.0000
  S   S453      1.0  0.54241  0.20606  0.68626  1.0000
  Fe  Fe229     1.0  0.58701  0.22816  0.70397  1.0000
  S   S454      1.0  0.57952  0.25710  0.69906  1.0000
  S   S455      1.0  0.60965  0.21362  0.71663  1.0000
  Fe  Fe230     1.0  0.55194  0.25320  0.70877  1.0000
  S   S456      1.0  0.53228  0.26409  0.73037  1.0000
  Fe  Fe231     1.0  0.57576  0.25450  0.67355  1.0000
  S   S457      1.0  0.58476  0.27120  0.64799  1.0000
  S   S458      1.0  0.55992  0.22440  0.71551  1.0000
  S   S459      1.0  0.58556  0.22581  0.67760  1.0000
  Fe  Fe232     1.0  0.64858  0.21053  0.88440  1.0000
  S   S460      1.0  0.66045  0.21494  0.85623  1.0000
  S   S461      1.0  0.62490  0.22835  0.89537  1.0000
  Fe  Fe233     1.0  0.67225  0.17606  0.89298  1.0000
  S   S462      1.0  0.68589  0.17709  0.86507  1.0000
  S   S463      1.0  0.67906  0.15342  0.91458  1.0000
  Fe  Fe234     1.0  0.68604  0.20470  0.86496  1.0000
  S   S464      1.0  0.71078  0.21516  0.85219  1.0000
  Fe  Fe235     1.0  0.65907  0.18726  0.85869  1.0000
  S   S465      1.0  0.64827  0.18261  0.83744  1.0000
  S   S466      1.0  0.67410  0.20288  0.89319  1.0000
  S   S467      1.0  0.64559  0.18360  0.88643  1.0000
  Fe  Fe236     1.0  0.62636  0.28563  0.95215  1.0000
  C   C3245     1.0  0.56444  0.15526  0.91392  1.0000
  Fe  Fe237     1.0  0.71397  0.08599  0.49280  1.0000
  S   S468      1.0  0.69055  0.08404  0.51439  1.0000
  H   H2589     1.0  0.67528  0.08574  0.48351  1.0000
  Fe  Fe238     1.0  0.65439  0.19484  0.49557  1.0000
  H   H2590     1.0  0.50064  0.28052  0.75013  1.0000
  S   S469      1.0  0.67510  0.19626  0.50847  1.0000
  C   C3246     1.0  0.62734  0.18859  0.95856  1.0000
  H   H2591     1.0  0.52104  0.26285  0.65884  1.0000
  H   H2592     1.0  0.70524  0.13665  0.96619  1.0000
  H   H2593     1.0  0.56363  0.18287  0.87082  1.0000
  C   C3247     1.0  0.72438  0.24361  0.48924  1.0000
  C   C3248     1.0  0.58525  0.19350  0.89626  1.0000
  H   H2594     1.0  0.50167  0.17241  0.63621  1.0000
  S   S470      1.0  0.62921  0.18758  0.51065  1.0000
  C   C3249     1.0  0.64500  0.12830  0.50262  1.0000
  H   H2595     1.0  0.53638  0.11434  0.72151  1.0000
  H   H2596     1.0  0.57194  0.18957  0.95904  1.0000
  H   H2597     1.0  0.52526  0.11165  0.69697  1.0000
  H   H2598     1.0  0.56546  0.23941  0.74228  1.0000
  C   C3250     1.0  0.72618  0.16476  0.91624  1.0000
  C   C3251     1.0  0.54272  0.24483  0.62432  1.0000
  C   C3252     1.0  0.51441  0.30815  0.77693  1.0000
  H   H2599     1.0  0.72427  0.17826  0.60192  1.0000
  Fe  Fe239     1.0  0.52921  0.20296  0.60060  1.0000
  S   S471      1.0  0.52268  0.22625  0.58010  1.0000
  S   S472      1.0  0.55472  0.19910  0.60876  1.0000
  H   H2600     1.0  0.55649  0.29035  0.84494  1.0000
  H   H2601     1.0  0.50419  0.22059  0.65614  1.0000
  S   S473      1.0  0.52439  0.20623  0.53994  1.0000
  H   H2602     1.0  0.60413  0.18217  0.77898  1.0000
  S   S474      1.0  0.52404  0.18409  0.58774  1.0000
  C   C3253     1.0  0.53986  0.25247  0.63854  1.0000
  C   C3254     1.0  0.64210  0.19350  0.77830  1.0000
  C   C3255     1.0  0.59869  0.28374  0.73749  1.0000
  H   H2603     1.0  0.53112  0.28229  0.58558  1.0000
  C   C3256     1.0  0.54854  0.20717  0.95283  1.0000
  H   H2604     1.0  0.57815  0.23319  0.80008  1.0000
  H   H2605     1.0  0.52799  0.13316  0.66973  1.0000
  C   C3257     1.0  0.55210  0.18841  0.92721  1.0000
  C   C3258     1.0  0.56907  0.23046  0.75368  1.0000
  C   C3259     1.0  0.57552  0.22363  0.51185  1.0000
  C   C3260     1.0  0.56485  0.23123  0.52550  1.0000
  C   C3261     1.0  0.54923  0.22584  0.53432  1.0000
  C   C3262     1.0  0.54380  0.21342  0.52899  1.0000
  C   C3263     1.0  0.55404  0.20651  0.51475  1.0000
  C   C3264     1.0  0.57013  0.21122  0.50650  1.0000
  H   H2606     1.0  0.56887  0.24101  0.52951  1.0000
  H   H2607     1.0  0.54124  0.23156  0.54498  1.0000
  H   H2608     1.0  0.54978  0.19708  0.51043  1.0000
  H   H2609     1.0  0.56348  0.26773  0.95681  1.0000
  C   C3265     1.0  0.67318  0.10127  0.51001  1.0000
  C   C3266     1.0  0.65612  0.09982  0.51848  1.0000
  C   C3267     1.0  0.64204  0.11321  0.51463  1.0000
  S   S475      1.0  0.50669  0.23844  0.89665  1.0000
  C   C3268     1.0  0.61676  0.30255  0.90309  1.0000
  C   C3269     1.0  0.67616  0.11621  0.49775  1.0000
  H   H2610     1.0  0.65375  0.08821  0.52780  1.0000
  H   H2611     1.0  0.62886  0.11199  0.52114  1.0000
  C   C3270     1.0  0.52290  0.25699  0.64785  1.0000
  C   C3271     1.0  0.70741  0.22511  0.63790  1.0000
  H   H2612     1.0  0.50997  0.18823  0.73082  1.0000
  C   C3272     1.0  0.54336  0.25526  0.79655  1.0000
  H   H2613     1.0  0.50290  0.06443  0.81404  1.0000
  C   C3273     1.0  0.63132  0.24201  0.90484  1.0000
  C   C3274     1.0  0.64845  0.24470  0.90014  1.0000
  C   C3275     1.0  0.65358  0.25526  0.90826  1.0000
  C   C3276     1.0  0.64148  0.26332  0.92086  1.0000
  C   C3277     1.0  0.62425  0.26107  0.92504  1.0000
  C   C3278     1.0  0.61925  0.25018  0.91729  1.0000
  H   H2614     1.0  0.65770  0.23877  0.89018  1.0000
  H   H2615     1.0  0.60609  0.24801  0.92107  1.0000
  C   C3279     1.0  0.73491  0.24991  0.85997  1.0000
  C   C3280     1.0  0.73135  0.23661  0.85406  1.0000
  C   C3281     1.0  0.71485  0.23209  0.85955  1.0000
  C   C3282     1.0  0.70191  0.24108  0.87085  1.0000
  H   H2616     1.0  0.71455  0.20894  0.58753  1.0000
  C   C3283     1.0  0.53871  0.30119  0.80921  1.0000
  H   H2617     1.0  0.68916  0.23779  0.87511  1.0000
  C   C3284     1.0  0.54665  0.20290  0.66501  1.0000
  C   C3285     1.0  0.53498  0.19613  0.65985  1.0000
  C   C3286     1.0  0.53751  0.19467  0.64261  1.0000
  C   C3287     1.0  0.55203  0.19952  0.63061  1.0000
  C   C3288     1.0  0.56431  0.20523  0.63600  1.0000
  C   C3289     1.0  0.56145  0.20725  0.65311  1.0000
  H   H2618     1.0  0.52367  0.19250  0.66902  1.0000
  H   H2619     1.0  0.52827  0.18978  0.63862  1.0000
  H   H2620     1.0  0.57569  0.20873  0.62678  1.0000
  H   H2621     1.0  0.57062  0.21228  0.65702  1.0000
  H   H2622     1.0  0.57612  0.27254  0.79734  1.0000
  C   C3290     1.0  0.60424  0.15323  0.84527  1.0000
  C   C3291     1.0  0.61016  0.16319  0.82918  1.0000
  C   C3292     1.0  0.62359  0.17209  0.82707  1.0000
  C   C3293     1.0  0.63108  0.17145  0.84103  1.0000
  C   C3294     1.0  0.62498  0.16174  0.85720  1.0000
  C   C3295     1.0  0.61174  0.15257  0.85927  1.0000
  H   H2623     1.0  0.60467  0.16378  0.81824  1.0000
  H   H2624     1.0  0.62824  0.17948  0.81452  1.0000
  H   H2625     1.0  0.63052  0.16126  0.86809  1.0000
  H   H2626     1.0  0.60739  0.14485  0.87175  1.0000
  C   C3296     1.0  0.60330  0.16129  0.75158  1.0000
  C   C3297     1.0  0.61972  0.16409  0.74215  1.0000
  C   C3298     1.0  0.62159  0.18037  0.73194  1.0000
  C   C3299     1.0  0.60695  0.19372  0.73049  1.0000
  C   C3300     1.0  0.59050  0.19089  0.73989  1.0000
  C   C3301     1.0  0.58871  0.17480  0.75071  1.0000
  H   H2627     1.0  0.63104  0.15371  0.74288  1.0000
  H   H2628     1.0  0.63434  0.18247  0.72476  1.0000
  H   H2629     1.0  0.57918  0.20107  0.73891  1.0000
  H   H2630     1.0  0.57600  0.17272  0.75801  1.0000
  C   C3302     1.0  0.52855  0.19736  0.82276  1.0000
  C   C3303     1.0  0.54491  0.19394  0.82706  1.0000
  C   C3304     1.0  0.54834  0.20371  0.83712  1.0000
  H   H2631     1.0  0.61463  0.26796  0.93394  1.0000
  H   H2632     1.0  0.55514  0.18402  0.82237  1.0000
  H   H2633     1.0  0.56129  0.20144  0.83962  1.0000
  H   H2634     1.0  0.55580  0.24109  0.61722  1.0000
  C   C3305     1.0  0.52396  0.09717  0.80875  1.0000
  C   C3306     1.0  0.51790  0.08183  0.81604  1.0000
  C   C3307     1.0  0.50716  0.07651  0.80825  1.0000
  H   H2635     1.0  0.57897  0.30307  0.77173  1.0000
  C   C3308     1.0  0.50761  0.10221  0.78577  1.0000
  C   C3309     1.0  0.51893  0.10736  0.79343  1.0000
  H   H2636     1.0  0.52174  0.07380  0.82774  1.0000
  C   C3310     1.0  0.55141  0.29086  0.79878  1.0000
  C   C3311     1.0  0.50187  0.22971  0.74890  1.0000
  H   H2637     1.0  0.52365  0.11918  0.78760  1.0000
  C   C3312     1.0  0.64409  0.25936  0.62959  1.0000
  C   C3313     1.0  0.63648  0.25178  0.64630  1.0000
  C   C3314     1.0  0.61828  0.25541  0.65207  1.0000
  C   C3315     1.0  0.60763  0.26687  0.64124  1.0000
  H   H2638     1.0  0.52590  0.22305  0.94331  1.0000
  C   C3316     1.0  0.60500  0.22532  0.54787  1.0000
  H   H2639     1.0  0.64463  0.24285  0.65470  1.0000
  H   H2640     1.0  0.61251  0.24935  0.66489  1.0000
  C   C3317     1.0  0.62892  0.17356  0.93072  1.0000
  H   H2641     1.0  0.56156  0.22254  0.90986  1.0000
  C   C3318     1.0  0.65723  0.24273  0.53426  1.0000
  C   C3319     1.0  0.67370  0.23216  0.53502  1.0000
  C   C3320     1.0  0.67920  0.21793  0.52690  1.0000
  C   C3321     1.0  0.66815  0.21412  0.51836  1.0000
  C   C3322     1.0  0.65164  0.22462  0.51774  1.0000
  C   C3323     1.0  0.64636  0.23911  0.52538  1.0000
  H   H2642     1.0  0.68233  0.23513  0.54153  1.0000
  H   H2643     1.0  0.69212  0.21009  0.52683  1.0000
  H   H2644     1.0  0.68119  0.19019  0.95315  1.0000
  C   C3324     1.0  0.66114  0.06937  0.47816  1.0000
  H   H2645     1.0  0.52135  0.22715  0.79138  1.0000
  C   C3325     1.0  0.69406  0.16385  0.96127  1.0000
  C   C3326     1.0  0.68473  0.17729  0.95053  1.0000
  C   C3327     1.0  0.67995  0.17421  0.93634  1.0000
  C   C3328     1.0  0.68429  0.15758  0.93280  1.0000
  C   C3329     1.0  0.69315  0.14401  0.94385  1.0000
  C   C3330     1.0  0.69822  0.14715  0.95791  1.0000
  C   C3331     1.0  0.57140  0.27608  0.60578  1.0000
  H   H2646     1.0  0.67273  0.18469  0.92828  1.0000
  H   H2647     1.0  0.58977  0.30231  0.83667  1.0000
  C   C3332     1.0  0.51857  0.22268  0.74080  1.0000
  H   H2648     1.0  0.50564  0.20465  0.69649  1.0000
  H   H2649     1.0  0.74082  0.24467  0.97366  1.0000
  C   C3333     1.0  0.68859  0.24626  0.49313  1.0000
  H   H2650     1.0  0.74290  0.22669  0.65204  1.0000
  C   C3334     1.0  0.72715  0.20158  0.58258  1.0000
  C   C3335     1.0  0.62007  0.19061  0.93089  1.0000
  C   C3336     1.0  0.51177  0.24610  0.62869  1.0000
  H   H2651     1.0  0.58677  0.12194  0.89378  1.0000
  C   C3337     1.0  0.61755  0.18110  0.77945  1.0000
  C   C3338     1.0  0.50875  0.25343  0.64324  1.0000
  C   C3339     1.0  0.63729  0.16413  0.94419  1.0000
  C   C3340     1.0  0.72140  0.29292  0.59591  1.0000
  H   H2652     1.0  0.57602  0.15319  0.88725  1.0000
  H   H2653     1.0  0.50994  0.29994  0.78912  1.0000
  H   H2654     1.0  0.66559  0.23459  0.93819  1.0000
  H   H2655     1.0  0.70572  0.29762  0.97061  1.0000
  H   H2656     1.0  0.50110  0.24311  0.62501  1.0000
  C   C3341     1.0  0.59855  0.30532  0.90750  1.0000
  H   H2657     1.0  0.68932  0.11741  0.49113  1.0000
  C   C3342     1.0  0.73585  0.07617  0.53743  1.0000
  C   C3343     1.0  0.65300  0.17714  0.77899  1.0000
  C   C3344     1.0  0.64613  0.16273  0.78020  1.0000
  C   C3345     1.0  0.62845  0.16476  0.78032  1.0000
  C   C3346     1.0  0.55781  0.21984  0.76414  1.0000
  C   C3347     1.0  0.56230  0.20858  0.77903  1.0000
  C   C3348     1.0  0.57803  0.20793  0.78351  1.0000
  H   H2658     1.0  0.66677  0.17563  0.77854  1.0000
  H   H2659     1.0  0.65452  0.15004  0.78082  1.0000
  H   H2660     1.0  0.62313  0.15371  0.78080  1.0000
  H   H2661     1.0  0.54552  0.22045  0.76084  1.0000
  H   H2662     1.0  0.55348  0.20050  0.78722  1.0000
  H   H2663     1.0  0.58102  0.19959  0.79545  1.0000
  H   H2664     1.0  0.52642  0.18106  0.85986  1.0000
  C   C3349     1.0  0.53611  0.31149  0.87392  1.0000
  H   H2665     1.0  0.52296  0.30909  0.87864  1.0000
  C   C3350     1.0  0.66889  0.30260  0.94614  1.0000
  S   S476      1.0  0.64806  0.27604  0.93139  1.0000
  H   H2666     1.0  0.67468  0.24741  0.49450  1.0000
  C   C3351     1.0  0.73248  0.14316  0.52649  1.0000
  H   H2667     1.0  0.49536  0.15401  0.70829  1.0000
  C   C3352     1.0  0.70214  0.22122  0.94954  1.0000
  C   C3353     1.0  0.70443  0.22583  0.93157  1.0000
  C   C3354     1.0  0.70831  0.24192  0.92303  1.0000
  C   C3355     1.0  0.70950  0.25358  0.93240  1.0000
  C   C3356     1.0  0.70688  0.24917  0.95050  1.0000
  H   H2668     1.0  0.74181  0.28155  0.50652  1.0000
  H   H2669     1.0  0.51229  0.15711  0.80078  1.0000
  C   C3357     1.0  0.49435  0.15587  0.66068  1.0000
  H   H2670     1.0  0.58223  0.26577  0.90999  1.0000
  C   C3358     1.0  0.60593  0.23759  0.55669  1.0000
  H   H2671     1.0  0.55082  0.25477  0.64241  1.0000
  C   C3359     1.0  0.70701  0.31382  0.52884  1.0000
  C   C3360     1.0  0.50057  0.24745  0.70325  1.0000
  H   H2672     1.0  0.70323  0.21693  0.92429  1.0000
  C   C3361     1.0  0.55534  0.29083  0.83194  1.0000
  C   C3362     1.0  0.74251  0.18612  0.91571  1.0000
  H   H2673     1.0  0.54737  0.21480  0.96230  1.0000
  S   S477      1.0  0.50252  0.20677  0.61743  1.0000
  C   C3363     1.0  0.72194  0.25881  0.87136  1.0000
  C   C3364     1.0  0.63063  0.11070  0.57534  1.0000
  C   C3365     1.0  0.64719  0.10749  0.57915  1.0000
  C   C3366     1.0  0.65258  0.12034  0.58382  1.0000
  C   C3367     1.0  0.64150  0.13648  0.58445  1.0000
  C   C3368     1.0  0.62504  0.13996  0.58012  1.0000
  C   C3369     1.0  0.61948  0.12679  0.57606  1.0000
  P   P109      1.0  0.61073  0.16080  0.58089  1.0000
  C   C3370     1.0  0.62350  0.17738  0.57447  1.0000
  C   C3371     1.0  0.59717  0.16594  0.56506  1.0000
  C   C3372     1.0  0.58006  0.17559  0.56821  1.0000
  C   C3373     1.0  0.56951  0.17892  0.55608  1.0000
  C   C3374     1.0  0.57607  0.17290  0.54066  1.0000
  C   C3375     1.0  0.59336  0.16413  0.53703  1.0000
  C   C3376     1.0  0.60395  0.16080  0.54909  1.0000
  C   C3377     1.0  0.61839  0.19185  0.58223  1.0000
  C   C3378     1.0  0.62891  0.20409  0.57785  1.0000
  C   C3379     1.0  0.64414  0.20245  0.56515  1.0000
  C   C3380     1.0  0.64888  0.18848  0.55682  1.0000
  C   C3381     1.0  0.63855  0.17604  0.56138  1.0000
  C   C3382     1.0  0.59863  0.15968  0.60291  1.0000
  C   C3383     1.0  0.60577  0.16309  0.61541  1.0000
  C   C3384     1.0  0.59616  0.16300  0.63227  1.0000
  C   C3385     1.0  0.57958  0.15904  0.63690  1.0000
  C   C3386     1.0  0.57273  0.15478  0.62480  1.0000
  C   C3387     1.0  0.58230  0.15487  0.60791  1.0000
  H   H2674     1.0  0.62642  0.10074  0.57176  1.0000
  H   H2675     1.0  0.65584  0.09505  0.57849  1.0000
  H   H2676     1.0  0.66541  0.11785  0.58682  1.0000
  H   H2677     1.0  0.64583  0.14626  0.58817  1.0000
  H   H2678     1.0  0.60659  0.12898  0.57327  1.0000
  H   H2679     1.0  0.57481  0.18060  0.57996  1.0000
  H   H2680     1.0  0.55624  0.18624  0.55854  1.0000
  H   H2681     1.0  0.56779  0.17517  0.53145  1.0000
  H   H2682     1.0  0.59856  0.15993  0.52482  1.0000
  H   H2683     1.0  0.61738  0.15411  0.54591  1.0000
  H   H2684     1.0  0.60624  0.19381  0.59155  1.0000
  H   H2685     1.0  0.62500  0.21508  0.58401  1.0000
  H   H2686     1.0  0.65205  0.21218  0.56155  1.0000
  H   H2687     1.0  0.66048  0.18738  0.54671  1.0000
  H   H2688     1.0  0.64227  0.16541  0.55467  1.0000
  H   H2689     1.0  0.61862  0.16614  0.61208  1.0000
  H   H2690     1.0  0.60144  0.16631  0.64167  1.0000
  H   H2691     1.0  0.57196  0.15951  0.64980  1.0000
  H   H2692     1.0  0.55978  0.15190  0.62833  1.0000
  H   H2693     1.0  0.57674  0.15155  0.59875  1.0000
  C   C3388     1.0  0.58518  0.22928  0.75769  1.0000
  H   H2694     1.0  0.54199  0.15777  0.66668  1.0000
  C   C3389     1.0  0.50767  0.19971  0.73605  1.0000
  H   H2695     1.0  0.71084  0.23639  0.65760  1.0000
  C   C3390     1.0  0.59884  0.19914  0.88347  1.0000
  H   H2696     1.0  0.71641  0.05176  0.84575  1.0000
  H   H2697     1.0  0.57922  0.27235  0.82662  1.0000
  C   C3391     1.0  0.63647  0.17155  0.95811  1.0000
  H   H2698     1.0  0.61267  0.21149  0.94447  1.0000
  Fe  Fe240     1.0  0.58715  0.29839  0.96165  1.0000
  H   H2699     1.0  0.61707  0.24374  0.55271  1.0000
  H   H2700     1.0  0.59385  0.23726  0.74903  1.0000
  H   H2701     1.0  0.63218  0.21281  0.80378  1.0000
  C   C3392     1.0  0.62066  0.29703  0.56203  1.0000
  P   P110      1.0  0.54781  0.28842  0.77866  1.0000
  C   C3393     1.0  0.49630  0.19627  0.70115  1.0000
  S   S478      1.0  0.59530  0.23018  0.50143  1.0000
  H   H2702     1.0  0.50735  0.23649  0.71118  1.0000
  C   C3394     1.0  0.71841  0.23198  0.48317  1.0000
  H   H2703     1.0  0.62866  0.26047  0.49278  1.0000
  H   H2704     1.0  0.62607  0.22098  0.83187  1.0000
  C   C3395     1.0  0.74065  0.10052  0.57397  1.0000
  H   H2705     1.0  0.64479  0.15116  0.94365  1.0000
  H   H2706     1.0  0.61410  0.19814  0.92013  1.0000
  H   H2707     1.0  0.50262  0.10399  0.72293  1.0000
  C   C3396     1.0  0.61894  0.30153  0.54477  1.0000
  C   C3397     1.0  0.57661  0.11933  0.92124  1.0000
  H   H2708     1.0  0.72290  0.07758  0.85163  1.0000
  C   C3398     1.0  0.50824  0.14604  0.86627  1.0000
  H   H2709     1.0  0.64885  0.21167  0.94494  1.0000
  H   H2710     1.0  0.57209  0.24037  0.82877  1.0000
  C   C3399     1.0  0.70370  0.31097  0.50097  1.0000
  H   H2711     1.0  0.69934  0.20864  0.95617  1.0000
  C   C3400     1.0  0.57326  0.18749  0.87457  1.0000
  C   C3401     1.0  0.71563  0.21543  0.62516  1.0000
  H   H2712     1.0  0.51584  0.17340  0.69791  1.0000
  C   C3402     1.0  0.51001  0.16336  0.86184  1.0000
  H   H2713     1.0  0.60669  0.23455  0.97693  1.0000
  H   H2714     1.0  0.61510  0.22232  0.53686  1.0000
  H   H2715     1.0  0.54804  0.28560  0.88402  1.0000
  C   C3403     1.0  0.69866  0.30789  0.51906  1.0000
  C   C3404     1.0  0.65817  0.23116  0.95114  1.0000
  C   C3405     1.0  0.62737  0.12485  0.81309  1.0000
  C   C3406     1.0  0.63305  0.11861  0.79776  1.0000
  C   C3407     1.0  0.65083  0.11241  0.79204  1.0000
  C   C3408     1.0  0.66287  0.11219  0.80180  1.0000
  C   C3409     1.0  0.65716  0.11795  0.81750  1.0000
  C   C3410     1.0  0.63937  0.12471  0.82283  1.0000
  P   P111      1.0  0.67297  0.11797  0.82967  1.0000
  C   C3411     1.0  0.66306  0.12283  0.85084  1.0000
  C   C3412     1.0  0.68691  0.09698  0.83412  1.0000
  C   C3413     1.0  0.70121  0.09514  0.84173  1.0000
  C   C3414     1.0  0.71187  0.07890  0.84579  1.0000
  C   C3415     1.0  0.70819  0.06435  0.84252  1.0000
  C   C3416     1.0  0.69375  0.06602  0.83532  1.0000
  C   C3417     1.0  0.68304  0.08224  0.83126  1.0000
  C   C3418     1.0  0.66922  0.13410  0.85726  1.0000
  C   C3419     1.0  0.66252  0.13662  0.87419  1.0000
  C   C3420     1.0  0.64959  0.12800  0.88483  1.0000
  C   C3421     1.0  0.64345  0.11671  0.87860  1.0000
  C   C3422     1.0  0.65031  0.11396  0.86175  1.0000
  C   C3423     1.0  0.68507  0.13418  0.81686  1.0000
  C   C3424     1.0  0.67660  0.15157  0.81473  1.0000
  C   C3425     1.0  0.68585  0.16455  0.80582  1.0000
  C   C3426     1.0  0.70351  0.16018  0.79831  1.0000
  C   C3427     1.0  0.71188  0.14280  0.79969  1.0000
  C   C3428     1.0  0.70269  0.12980  0.80891  1.0000
  H   H2716     1.0  0.61362  0.12998  0.81737  1.0000
  H   H2717     1.0  0.62369  0.11889  0.79017  1.0000
  H   H2718     1.0  0.65523  0.10789  0.77997  1.0000
  H   H2719     1.0  0.67663  0.10753  0.79712  1.0000
  H   H2720     1.0  0.63469  0.13004  0.83439  1.0000
  H   H2721     1.0  0.70404  0.10627  0.84462  1.0000
  C   C3429     1.0  0.74271  0.27309  0.53353  1.0000
  C   C3430     1.0  0.56634  0.28090  0.80498  1.0000
  H   H2722     1.0  0.63938  0.29632  0.48865  1.0000
  H   H2723     1.0  0.67166  0.08312  0.82616  1.0000
  H   H2724     1.0  0.67933  0.14086  0.84938  1.0000
  H   H2725     1.0  0.66737  0.14527  0.87911  1.0000
  H   H2726     1.0  0.64440  0.13009  0.89790  1.0000
  H   H2727     1.0  0.63343  0.11002  0.88685  1.0000
  H   H2728     1.0  0.64568  0.10488  0.85725  1.0000
  H   H2729     1.0  0.66288  0.15508  0.82032  1.0000
  H   H2730     1.0  0.67929  0.17799  0.80497  1.0000
  H   H2731     1.0  0.71069  0.17026  0.79147  1.0000
  Fe  Fe241     1.0  0.61703  0.20941  0.49175  1.0000
  H   H2732     1.0  0.70940  0.11645  0.80981  1.0000
  H   H2733     1.0  0.59602  0.23490  0.84456  1.0000
  C   C3431     1.0  0.59875  0.23162  0.83194  1.0000
  H   H2734     1.0  0.72148  0.18545  0.49479  1.0000
  C   C3432     1.0  0.55530  0.28549  0.61279  1.0000
  H   H2735     1.0  0.60866  0.20384  0.88686  1.0000
  H   H2736     1.0  0.56181  0.23252  0.87856  1.0000
  H   H2737     1.0  0.72998  0.29770  0.56844  1.0000
  C   C3433     1.0  0.61228  0.26304  0.85386  1.0000
  C   C3434     1.0  0.56232  0.19299  0.95098  1.0000
  H   H2738     1.0  0.62965  0.16769  0.92000  1.0000
  H   H2739     1.0  0.64771  0.20450  0.77732  1.0000
  C   C3435     1.0  0.52870  0.24179  0.61932  1.0000
  C   C3436     1.0  0.60566  0.22232  0.79963  1.0000
  P   P112      1.0  0.61023  0.21685  0.77855  1.0000
  C   C3437     1.0  0.54240  0.28064  0.59116  1.0000
  C   C3438     1.0  0.62940  0.22796  0.74602  1.0000
  H   H2740     1.0  0.62514  0.31158  0.53596  1.0000
  Fe  Fe242     1.0  0.49534  0.22829  0.59570  1.0000
  H   H2741     1.0  0.64880  0.23318  0.60424  1.0000
  H   H2742     1.0  0.61037  0.28306  0.72743  1.0000
  H   H2743     1.0  0.61472  0.28031  0.58663  1.0000
  C   C3439     1.0  0.71808  0.18734  0.48234  1.0000
  C   C3440     1.0  0.58096  0.29484  0.76259  1.0000
  H   H2744     1.0  0.53106  0.23560  0.60847  1.0000
  H   H2745     1.0  0.50796  0.10759  0.85370  1.0000
  H   H2746     1.0  0.70249  0.22847  0.97277  1.0000
  C   C3441     1.0  0.52613  0.23894  0.78916  1.0000
  H   H2747     1.0  0.57249  0.25903  0.86276  1.0000
  C   C3442     1.0  0.71254  0.25565  0.49825  1.0000
  S   S479      1.0  0.73203  0.23035  0.55670  1.0000
  H   H2748     1.0  0.49966  0.24200  0.75258  1.0000
  H   H2749     1.0  0.55146  0.25583  0.80496  1.0000
  H   H2750     1.0  0.56469  0.12075  0.94773  1.0000
  Fe  Fe243     1.0  0.49651  0.19002  0.60262  1.0000
  C   C3443     1.0  0.57866  0.26410  0.88512  1.0000
  H   H2751     1.0  0.70780  0.08101  0.54393  1.0000
  C   C3444     1.0  0.69221  0.18767  0.56608  1.0000
  C   C3445     1.0  0.70326  0.19920  0.55764  1.0000
  C   C3446     1.0  0.71804  0.19438  0.54535  1.0000
  C   C3447     1.0  0.72190  0.17797  0.54148  1.0000
  C   C3448     1.0  0.71094  0.16620  0.54998  1.0000
  C   C3449     1.0  0.69603  0.17120  0.56228  1.0000
  P   P113      1.0  0.71600  0.14458  0.54584  1.0000
  C   C3450     1.0  0.69643  0.13995  0.54277  1.0000
  C   C3451     1.0  0.69336  0.12306  0.54715  1.0000
  C   C3452     1.0  0.67867  0.11974  0.54347  1.0000
  C   C3453     1.0  0.66689  0.13324  0.53563  1.0000
  C   C3454     1.0  0.67003  0.14999  0.53099  1.0000
  C   C3455     1.0  0.68471  0.15332  0.53457  1.0000
  C   C3456     1.0  0.73379  0.21002  0.62181  1.0000
  H   H2752     1.0  0.70041  0.21196  0.56052  1.0000
  H   H2753     1.0  0.72651  0.20343  0.53885  1.0000
  H   H2754     1.0  0.73339  0.17471  0.53185  1.0000
  H   H2755     1.0  0.70772  0.17261  0.89939  1.0000
  S   S480      1.0  0.62712  0.14514  0.49868  1.0000
  H   H2756     1.0  0.67657  0.10665  0.54629  1.0000
  H   H2757     1.0  0.65554  0.13068  0.53278  1.0000
  H   H2758     1.0  0.66128  0.16037  0.52429  1.0000
  H   H2759     1.0  0.68718  0.16629  0.53053  1.0000
  C   C3457     1.0  0.74118  0.14178  0.49609  1.0000
  H   H2760     1.0  0.52886  0.20685  0.92090  1.0000
  C   C3458     1.0  0.59104  0.21679  0.55328  1.0000
  H   H2761     1.0  0.58454  0.23942  0.61787  1.0000
  C   C3459     1.0  0.61319  0.28365  0.57333  1.0000
  H   H2762     1.0  0.49790  0.17035  0.77442  1.0000
  C   C3460     1.0  0.52501  0.16774  0.86360  1.0000
  C   C3461     1.0  0.57272  0.25465  0.87637  1.0000
  H   H2763     1.0  0.60814  0.29632  0.52550  1.0000
  C   C3462     1.0  0.53638  0.21180  0.94215  1.0000
  Fe  Fe244     1.0  0.63300  0.17183  0.49061  1.0000
  C   C3463     1.0  0.72835  0.14202  0.51117  1.0000
  C   C3464     1.0  0.56818  0.28570  0.76323  1.0000
  H   H2764     1.0  0.67867  0.27604  0.94447  1.0000
  C   C3465     1.0  0.63856  0.21408  0.97171  1.0000
  C   C3466     1.0  0.58055  0.17898  0.70548  1.0000
  C   C3467     1.0  0.59785  0.17068  0.70580  1.0000
  C   C3468     1.0  0.60179  0.15305  0.71292  1.0000
  C   C3469     1.0  0.58847  0.14365  0.71944  1.0000
  C   C3470     1.0  0.57105  0.15189  0.71890  1.0000
  C   C3471     1.0  0.56719  0.16970  0.71215  1.0000
  P   P114      1.0  0.55374  0.13982  0.72621  1.0000
  C   C3472     1.0  0.56142  0.11858  0.73829  1.0000
  C   C3473     1.0  0.53577  0.15055  0.74051  1.0000
  C   C3474     1.0  0.51932  0.14621  0.74411  1.0000
  C   C3475     1.0  0.50576  0.15321  0.75639  1.0000
  C   C3476     1.0  0.50845  0.16475  0.76504  1.0000
  C   C3477     1.0  0.52485  0.16892  0.76177  1.0000
  C   C3478     1.0  0.53849  0.16183  0.74957  1.0000
  C   C3479     1.0  0.57134  0.10539  0.72958  1.0000
  C   C3480     1.0  0.57703  0.08885  0.73890  1.0000
  C   C3481     1.0  0.57289  0.08540  0.75696  1.0000
  C   C3482     1.0  0.56316  0.09850  0.76573  1.0000
  C   C3483     1.0  0.55751  0.11503  0.75645  1.0000
  C   C3484     1.0  0.54606  0.13762  0.70799  1.0000
  C   C3485     1.0  0.54763  0.14977  0.69231  1.0000
  C   C3486     1.0  0.54112  0.14816  0.67859  1.0000
  C   C3487     1.0  0.53321  0.13434  0.68028  1.0000
  C   C3488     1.0  0.53166  0.12217  0.69573  1.0000
  C   C3489     1.0  0.53797  0.12381  0.70956  1.0000
  H   H2765     1.0  0.57747  0.19266  0.70014  1.0000
  H   H2766     1.0  0.60814  0.17802  0.70093  1.0000
  H   H2767     1.0  0.61514  0.14676  0.71375  1.0000
  H   H2768     1.0  0.59187  0.13009  0.72509  1.0000
  H   H2769     1.0  0.55384  0.17640  0.71187  1.0000
  H   H2770     1.0  0.51706  0.13704  0.73783  1.0000
  C   C3490     1.0  0.71732  0.22913  0.64754  1.0000
  H   H2771     1.0  0.66787  0.29846  0.49282  1.0000
  H   H2772     1.0  0.52704  0.17759  0.76876  1.0000
  H   H2773     1.0  0.55125  0.16481  0.74763  1.0000
  H   H2774     1.0  0.57469  0.10791  0.71559  1.0000
  H   H2775     1.0  0.58464  0.07870  0.73213  1.0000
  H   H2776     1.0  0.57723  0.07259  0.76421  1.0000
  H   H2777     1.0  0.55997  0.09587  0.77976  1.0000
  H   H2778     1.0  0.55010  0.12493  0.76356  1.0000
  H   H2779     1.0  0.55358  0.16069  0.69054  1.0000
  H   H2780     1.0  0.50750  0.07733  0.86809  1.0000
  H   H2781     1.0  0.56068  0.26938  0.75029  1.0000
  C   C3491     1.0  0.56725  0.12796  0.93457  1.0000
  C   C3492     1.0  0.53919  0.26910  0.78311  1.0000
  C   C3493     1.0  0.61906  0.21909  0.80880  1.0000
  C   C3494     1.0  0.53526  0.21669  0.84350  1.0000
  C   C3495     1.0  0.61563  0.22382  0.82481  1.0000
  H   H2782     1.0  0.69714  0.30647  0.49349  1.0000
  H   H2783     1.0  0.52821  0.29467  0.61124  1.0000
  C   C3496     1.0  0.60336  0.26658  0.50879  1.0000
  H   H2784     1.0  0.66688  0.25714  0.90482  1.0000
  C   C3497     1.0  0.50356  0.28916  0.73785  1.0000
  C   C3498     1.0  0.66209  0.12975  0.49413  1.0000
  C   C3499     1.0  0.57065  0.27591  0.75062  1.0000
  H   H2785     1.0  0.71719  0.26398  0.50374  1.0000
  S   S481      1.0  0.60919  0.31148  0.94607  1.0000
  C   C3500     1.0  0.62419  0.19562  0.77877  1.0000
  C   C3501     1.0  0.58986  0.21789  0.77260  1.0000
  H   H2786     1.0  0.62774  0.21643  0.74284  1.0000
  C   C3502     1.0  0.56815  0.28073  0.82158  1.0000
  H   H2787     1.0  0.53298  0.29158  0.69973  1.0000
  C   C3503     1.0  0.70541  0.25444  0.87660  1.0000
  H   H2788     1.0  0.73786  0.14120  0.48423  1.0000
  H   H2789     1.0  0.62393  0.30690  0.91014  1.0000
  C   C3504     1.0  0.58875  0.23037  0.80682  1.0000
  C   C3505     1.0  0.58529  0.23475  0.82301  1.0000
  H   H2790     1.0  0.58827  0.19214  0.84853  1.0000
  H   H2791     1.0  0.59024  0.20748  0.54625  1.0000
  C   C3506     1.0  0.53811  0.20248  0.92941  1.0000
  C   C3507     1.0  0.50779  0.17291  0.90625  1.0000
  C   C3508     1.0  0.71737  0.17640  0.90398  1.0000
  C   C3509     1.0  0.57310  0.26870  0.59153  1.0000
  H   H2792     1.0  0.50891  0.21121  0.87788  1.0000
  C   C3510     1.0  0.56751  0.30097  0.87027  1.0000
  H   H2793     1.0  0.61333  0.25401  0.86601  1.0000
  C   C3511     1.0  0.52152  0.20771  0.73428  1.0000
  H   H2794     1.0  0.52834  0.15811  0.91933  1.0000
  H   H2795     1.0  0.57518  0.17305  0.93660  1.0000
  C   C3512     1.0  0.60409  0.27456  0.56739  1.0000
  H   H2796     1.0  0.58773  0.26730  0.72818  1.0000
  H   H2797     1.0  0.71044  0.24540  0.90911  1.0000
  H   H2798     1.0  0.70237  0.11240  0.55303  1.0000
  H   H2799     1.0  0.68997  0.28928  0.89742  1.0000
  C   C3513     1.0  0.51326  0.19955  0.88683  1.0000
  C   C3514     1.0  0.52980  0.19637  0.89075  1.0000
  H   H2800     1.0  0.53440  0.20249  0.72752  1.0000
  C   C3515     1.0  0.52158  0.13327  0.87284  1.0000
  C   C3516     1.0  0.62213  0.23164  0.76254  1.0000
  H   H2801     1.0  0.71530  0.14135  0.51071  1.0000
  C   C3517     1.0  0.73310  0.11236  0.56093  1.0000
  H   H2802     1.0  0.60175  0.22320  0.63983  1.0000
  C   C3518     1.0  0.73484  0.05479  0.57015  1.0000
  C   C3519     1.0  0.69568  0.29892  0.96348  1.0000
  C   C3520     1.0  0.72505  0.12927  0.56311  1.0000
  H   H2803     1.0  0.73379  0.26447  0.53600  1.0000
  C   C3521     1.0  0.71979  0.07434  0.54834  1.0000
  C   C3522     1.0  0.59268  0.24171  0.57073  1.0000
  S   S482      1.0  0.54091  0.22967  0.85449  1.0000
  C   C3523     1.0  0.55565  0.27394  0.94717  1.0000
  H   H2804     1.0  0.61856  0.24997  0.77886  1.0000
  C   C3524     1.0  0.61934  0.19814  0.94470  1.0000
  C   C3525     1.0  0.49899  0.08761  0.87424  1.0000
  C   C3526     1.0  0.72631  0.28782  0.61194  1.0000
  C   C3527     1.0  0.64857  0.21819  0.95505  1.0000
  H   H2805     1.0  0.57238  0.23879  0.92532  1.0000
  P   P115      1.0  0.59420  0.25748  0.58204  1.0000
  H   H2806     1.0  0.63317  0.24703  0.83931  1.0000
  C   C3528     1.0  0.62419  0.24678  0.76628  1.0000
  H   H2807     1.0  0.50371  0.11004  0.77403  1.0000
  C   C3529     1.0  0.73077  0.26750  0.95605  1.0000
  H   H2808     1.0  0.54106  0.22939  0.80913  1.0000
  C   C3530     1.0  0.73551  0.22376  0.64420  1.0000
  C   C3531     1.0  0.71928  0.06380  0.56479  1.0000
  C   C3532     1.0  0.57814  0.22033  0.56767  1.0000
  H   H2809     1.0  0.55968  0.26637  0.57261  1.0000
  H   H2810     1.0  0.63135  0.26736  0.81124  1.0000
  C   C3533     1.0  0.50219  0.18793  0.89468  1.0000
  H   H2811     1.0  0.73361  0.12665  0.60260  1.0000
  H   H2812     1.0  0.55414  0.29085  0.62401  1.0000
  H   H2813     1.0  0.68742  0.16234  0.56897  1.0000
  C   C3534     1.0  0.50210  0.17855  0.70201  1.0000
  C   C3535     1.0  0.56654  0.23394  0.90290  1.0000
  C   C3536     1.0  0.63344  0.27098  0.61887  1.0000
  H   H2814     1.0  0.54703  0.12785  0.87919  1.0000
  H   H2815     1.0  0.52078  0.11979  0.87623  1.0000
  C   C3537     1.0  0.57910  0.23249  0.57658  1.0000
  C   C3538     1.0  0.60683  0.24587  0.59827  1.0000
  C   C3539     1.0  0.63852  0.23930  0.73336  1.0000
  C   C3540     1.0  0.53558  0.18132  0.90225  1.0000
  H   H2816     1.0  0.62403  0.28029  0.87129  1.0000
  H   H2817     1.0  0.64291  0.22162  0.51140  1.0000
  H   H2818     1.0  0.69073  0.05468  0.83306  1.0000
  H   H2819     1.0  0.57694  0.27502  0.52161  1.0000
  H   H2820     1.0  0.58512  0.19381  0.90940  1.0000
  C   C3541     1.0  0.68411  0.31473  0.96058  1.0000
  H   H2821     1.0  0.53072  0.30888  0.83387  1.0000
  H   H2822     1.0  0.72554  0.13943  0.79374  1.0000
  H   H2823     1.0  0.56735  0.21363  0.57191  1.0000
  C   C3542     1.0  0.57255  0.24319  0.91164  1.0000
  H   H2824     1.0  0.62808  0.30367  0.56660  1.0000
  C   C3543     1.0  0.55403  0.29172  0.94067  1.0000
  H   H2825     1.0  0.71337  0.30553  0.89302  1.0000
  C   C3544     1.0  0.55857  0.27139  0.58400  1.0000
  C   C3545     1.0  0.54077  0.30122  0.82569  1.0000
  H   H2826     1.0  0.64374  0.23648  0.72053  1.0000
  H   H2827     1.0  0.60598  0.30093  0.74929  1.0000
  H   H2828     1.0  0.71405  0.20197  0.88824  1.0000
  H   H2829     1.0  0.72013  0.14749  0.57998  1.0000
  P   P116      1.0  0.58610  0.28363  0.87346  1.0000
  H   H2830     1.0  0.60961  0.29505  0.81013  1.0000
  H   H2831     1.0  0.68540  0.26588  0.50765  1.0000
  H   H2832     1.0  0.60712  0.28397  0.61648  1.0000
  H   H2833     1.0  0.52563  0.27787  0.76187  1.0000
  H   H2834     1.0  0.50833  0.22969  0.84487  1.0000
  C   C3546     1.0  0.58936  0.29930  0.89867  1.0000
  H   H2835     1.0  0.59437  0.27316  0.54552  1.0000
  C   C3547     1.0  0.60183  0.27961  0.55021  1.0000
  C   C3548     1.0  0.62354  0.25902  0.83872  1.0000
  C   C3549     1.0  0.62256  0.27051  0.82295  1.0000
  C   C3550     1.0  0.63361  0.25796  0.75365  1.0000
  C   C3551     1.0  0.61527  0.27484  0.62474  1.0000
  C   C3552     1.0  0.59854  0.23809  0.61461  1.0000
  C   C3553     1.0  0.57972  0.12857  0.90424  1.0000
  H   H2836     1.0  0.70769  0.29656  0.59516  1.0000
  H   H2837     1.0  0.52902  0.22934  0.73899  1.0000
  H   H2838     1.0  0.56920  0.23466  0.58796  1.0000
  C   C3554     1.0  0.58713  0.19283  0.86185  1.0000
  C   C3555     1.0  0.60000  0.19843  0.86636  1.0000
  C   C3556     1.0  0.50306  0.15047  0.81050  1.0000
  C   C3557     1.0  0.64073  0.25425  0.73718  1.0000
  H   H2839     1.0  0.71636  0.28738  0.62368  1.0000
  C   C3558     1.0  0.74263  0.20550  0.97607  1.0000
  H   H2840     1.0  0.57820  0.20547  0.49583  1.0000
  C   C3559     1.0  0.54076  0.28766  0.60557  1.0000
  H   H2841     1.0  0.68803  0.30130  0.52542  1.0000
  C   C3560     1.0  0.69464  0.25681  0.50038  1.0000
  C   C3561     1.0  0.53652  0.13777  0.87467  1.0000
  C   C3562     1.0  0.68053  0.28675  0.94887  1.0000
  C   C3563     1.0  0.51850  0.21962  0.84006  1.0000
  H   H2842     1.0  0.73425  0.04670  0.58294  1.0000
  C   C3564     1.0  0.73791  0.19233  0.95459  1.0000
  H   H2843     1.0  0.70787  0.21218  0.61784  1.0000
  H   H2844     1.0  0.64787  0.26299  0.72733  1.0000
  H   H2845     1.0  0.54737  0.25073  0.94732  1.0000
  C   C3565     1.0  0.51519  0.21005  0.82952  1.0000
  C   C3566     1.0  0.62509  0.24375  0.59444  1.0000
  C   C3567     1.0  0.49917  0.10481  0.86608  1.0000
  C   C3568     1.0  0.54649  0.26433  0.94173  1.0000
  C   C3569     1.0  0.53490  0.28984  0.92234  1.0000
  C   C3570     1.0  0.69406  0.28486  0.95750  1.0000
  C   C3571     1.0  0.56107  0.14584  0.93093  1.0000
  H   H2846     1.0  0.57145  0.30130  0.49897  1.0000
  H   H2847     1.0  0.63527  0.26959  0.75657  1.0000
  C   C3572     1.0  0.57829  0.25841  0.90286  1.0000
  C   C3573     1.0  0.56406  0.18358  0.93829  1.0000
  C   C3574     1.0  0.52168  0.29534  0.70942  1.0000
  C   C3575     1.0  0.53613  0.27215  0.92920  1.0000
  H   H2848     1.0  0.53788  0.20589  0.88522  1.0000
  S   S483      1.0  0.73150  0.10363  0.49171  1.0000
  C   C3576     1.0  0.65767  0.24025  0.96368  1.0000
  H   H2849     1.0  0.59150  0.31196  0.91792  1.0000
  H   H2850     1.0  0.63916  0.27705  0.60608  1.0000
  C   C3577     1.0  0.54359  0.29957  0.92821  1.0000
  H   H2851     1.0  0.60550  0.25488  0.51846  1.0000
  S   S484      1.0  0.72597  0.27443  0.88065  1.0000
  C   C3578     1.0  0.61036  0.28611  0.82235  1.0000
  H   H2852     1.0  0.58252  0.27458  0.61153  1.0000
  C   C3579     1.0  0.73412  0.29338  0.58071  1.0000
  C   C3580     1.0  0.60829  0.22872  0.62708  1.0000
  H   H2853     1.0  0.72559  0.29014  0.93594  1.0000
  H   H2854     1.0  0.50943  0.15779  0.83107  1.0000
  C   C3581     1.0  0.74057  0.10557  0.58912  1.0000
  H   H2855     1.0  0.61113  0.20184  0.85670  1.0000
  H   H2856     1.0  0.73821  0.24295  0.48745  1.0000
  C   C3582     1.0  0.50145  0.15077  0.82785  1.0000
  C   C3583     1.0  0.52857  0.26759  0.77265  1.0000
  C   C3584     1.0  0.53710  0.24019  0.79930  1.0000
  H   H2857     1.0  0.55349  0.15224  0.94136  1.0000
  P   P117      1.0  0.55600  0.17825  0.90892  1.0000
  H   H2858     1.0  0.70681  0.06248  0.57328  1.0000
  H   H2859     1.0  0.50399  0.15843  0.66626  1.0000
  H   H2860     1.0  0.63382  0.24746  0.52452  1.0000
  H   H2861     1.0  0.54205  0.31333  0.92320  1.0000
  H   H2862     1.0  0.57526  0.30147  0.90238  1.0000
  C   C3585     1.0  0.73350  0.19782  0.90346  1.0000
  C   C3586     1.0  0.73260  0.18425  0.59062  1.0000
  C   C3587     1.0  0.58717  0.27790  0.51050  1.0000
  C   C3588     1.0  0.53828  0.15498  0.86993  1.0000
  Fe  Fe245     1.0  0.51879  0.24679  0.86884  1.0000
  S   S485      1.0  0.52443  0.25938  0.92331  1.0000
  H   H2863     1.0  0.58135  0.10547  0.92405  1.0000
  C   C3589     1.0  0.57235  0.18750  0.89199  1.0000
  H   H2864     1.0  0.74101  0.21640  0.50660  1.0000
  C   C3590     1.0  0.62641  0.22689  0.62329  1.0000
  H   H2865     1.0  0.69526  0.26132  0.88531  1.0000
  C   C3591     1.0  0.61639  0.26975  0.49414  1.0000
  H   H2866     1.0  0.51403  0.25165  0.76738  1.0000
  S   S486      1.0  0.52460  0.27064  0.87285  1.0000
  H   H2867     1.0  0.73003  0.18544  0.95096  1.0000
  C   C3592     1.0  0.63480  0.23433  0.60696  1.0000
  C   C3593     1.0  0.60006  0.27874  0.85344  1.0000
  H   H2868     1.0  0.63393  0.22010  0.63313  1.0000
  C   C3594     1.0  0.59915  0.29025  0.83753  1.0000
  H   H2869     1.0  0.63187  0.24931  0.58181  1.0000
  H   H2870     1.0  0.66444  0.25086  0.96024  1.0000
  H   H2871     1.0  0.65901  0.30362  0.90511  1.0000
  Fe  Fe246     1.0  0.51582  0.20764  0.56815  1.0000
  H   H2872     1.0  0.55011  0.15837  0.87076  1.0000
  H   H2873     1.0  0.72333  0.15195  0.92113  1.0000
  S   S487      1.0  0.56354  0.30493  0.94859  1.0000
  C   C3595     1.0  0.57363  0.14643  0.90057  1.0000
  C   C3596     1.0  0.51837  0.28426  0.72545  1.0000
  C   C3597     1.0  0.55043  0.29811  0.87673  1.0000
  C   C3598     1.0  0.73305  0.12249  0.59117  1.0000
  S   S488      1.0  0.73572  0.06319  0.48834  1.0000
  H   H2874     1.0  0.66107  0.06072  0.49064  1.0000
  H   H2875     1.0  0.68074  0.19153  0.57556  1.0000
  H   H2876     1.0  0.52676  0.29616  0.91297  1.0000
  C   C3599     1.0  0.70370  0.23267  0.95896  1.0000
  H   H2877     1.0  0.73613  0.21066  0.89813  1.0000
  Fe  Fe247     1.0  0.51101  0.26335  0.90042  1.0000
  H   H2878     1.0  0.50244  0.21273  0.82633  1.0000
  C   C3600     1.0  0.72533  0.13433  0.57824  1.0000
  C   C3601     1.0  0.61665  0.28746  0.88115  1.0000
  C   C3602     1.0  0.73523  0.28142  0.94287  1.0000
  C   C3603     1.0  0.59832  0.29050  0.88527  1.0000
  C   C3604     1.0  0.58406  0.29260  0.49766  1.0000
  C   C3605     1.0  0.73802  0.20918  0.56790  1.0000
  P   P118      1.0  0.70857  0.26440  0.96236  1.0000
  C   C3606     1.0  0.73262  0.19692  0.97077  1.0000
  C   C3607     1.0  0.62579  0.29361  0.88994  1.0000
  H   H2879     1.0  0.63993  0.29097  0.88695  1.0000
  C   C3608     1.0  0.52440  0.16962  0.91007  1.0000
  H   H2880     1.0  0.64315  0.16388  0.96827  1.0000
  C   C3609     1.0  0.52199  0.25264  0.77573  1.0000
  C   C3610     1.0  0.58593  0.27483  0.73791  1.0000
  H   H2881     1.0  0.71238  0.26606  0.92548  1.0000
  C   C3611     1.0  0.66921  0.31065  0.90343  1.0000
  S   S489      1.0  0.60443  0.27221  0.96656  1.0000
  C   C3612     1.0  0.72093  0.19295  0.89771  1.0000
  H   H2882     1.0  0.73184  0.26525  0.82132  1.0000
  C   C3613     1.0  0.59622  0.29375  0.74983  1.0000
  C   C3614     1.0  0.60942  0.29290  0.53889  1.0000
  C   C3615     1.0  0.50180  0.08660  0.79318  1.0000
  S   S490      1.0  0.49437  0.30929  0.84929  1.0000
  H   H2883     1.0  0.69333  0.22942  0.64035  1.0000
  C   C3616     1.0  0.53226  0.30613  0.76926  1.0000
  C   C3617     1.0  0.68667  0.30256  0.89908  1.0000
  C   C3618     1.0  0.73858  0.16962  0.92222  1.0000
  H   H2884     1.0  0.73381  0.10843  0.54901  1.0000
  H   H2885     1.0  0.73999  0.20241  0.61198  1.0000
  H   H2886     1.0  0.70542  0.16556  0.49017  1.0000
  S   S491      1.0  0.70107  0.30983  0.55152  1.0000
  H   H2887     1.0  0.65818  0.30392  0.93989  1.0000
  H   H2888     1.0  0.66448  0.14113  0.48459  1.0000
  C   C3619     1.0  0.59696  0.29571  0.48285  1.0000
  C   C3620     1.0  0.74390  0.21461  0.63093  1.0000
  C   C3621     1.0  0.69984  0.31165  0.89669  1.0000
  H   H2889     1.0  0.50217  0.23321  0.68408  1.0000
  C   C3622     1.0  0.49746  0.24557  0.68789  1.0000
  C   C3623     1.0  0.51044  0.31148  0.70602  1.0000
  C   C3624     1.0  0.49566  0.26357  0.70789  1.0000
  H   H2890     1.0  0.52697  0.30887  0.80497  1.0000
  H   H2891     1.0  0.50000  0.17346  0.85663  1.0000
  H   H2892     1.0  0.73632  0.08436  0.52473  1.0000
  H   H2893     1.0  0.69523  0.22518  0.48003  1.0000
  C   C3625     1.0  0.70037  0.23366  0.48485  1.0000
  H   H2894     1.0  0.74144  0.22966  0.84535  1.0000
  Fe  Fe248     1.0  0.49795  0.28310  0.86718  1.0000
  H   H2895     1.0  0.49919  0.16393  0.91241  1.0000
  C   C3626     1.0  0.74381  0.25590  0.96404  1.0000
  H   H2896     1.0  0.49455  0.14068  0.79252  1.0000
  H   H2897     1.0  0.49823  0.26495  0.71979  1.0000
  C   C3627     1.0  0.66724  0.29326  0.48207  1.0000
  P   P119      1.0  0.62513  0.19820  0.97684  1.0000
  S   S492      1.0  0.63204  0.29068  0.97563  1.0000
  C   C3628     1.0  0.70907  0.17599  0.47981  1.0000
  H   H2898     1.0  0.73365  0.31592  0.97205  1.0000
  S   S493      1.0  0.64208  0.21798  0.47824  1.0000
  C   C3629     1.0  0.65113  0.29184  0.47976  1.0000
  C   C3630     1.0  0.61313  0.28412  0.48084  1.0000
  H   H2899     1.0  0.55106  0.31511  0.74666  1.0000
  Fe  Fe249     1.0  0.61288  0.31571  0.97088  1.0000
  C   C3631     1.0  0.57646  0.34407  0.03386  1.0000
  Fe  Fe250     1.0  0.67675  0.54363  0.28814  1.0000
  S   S494      1.0  0.66810  0.54260  0.26463  1.0000
  S   S495      1.0  0.68136  0.51879  0.30760  1.0000
  Fe  Fe251     1.0  0.67658  0.58170  0.27657  1.0000
  S   S496      1.0  0.66842  0.58420  0.25162  1.0000
  S   S497      1.0  0.68238  0.60310  0.28551  1.0000
  Fe  Fe252     1.0  0.64969  0.56753  0.26820  1.0000
  S   S498      1.0  0.62283  0.56975  0.26378  1.0000
  Fe  Fe253     1.0  0.68742  0.55895  0.24979  1.0000
  S   S499      1.0  0.70352  0.54949  0.22585  1.0000
  S   S500      1.0  0.65630  0.56704  0.29339  1.0000
  S   S501      1.0  0.69771  0.55812  0.27305  1.0000
  C   C3632     1.0  0.67653  0.32332  0.07491  1.0000
  S   S502      1.0  0.71358  0.36281  0.01714  1.0000
  C   C3633     1.0  0.51564  0.59218  0.25660  1.0000
  Fe  Fe254     1.0  0.71308  0.39084  0.00504  1.0000
  S   S503      1.0  0.70344  0.40752  0.02566  1.0000
  C   C3634     1.0  0.66938  0.44479  0.08709  1.0000
  S   S504      1.0  0.68378  0.34264  0.00057  1.0000
  C   C3635     1.0  0.51552  0.62665  0.25629  1.0000
  S   S505      1.0  0.72348  0.32342  0.46995  1.0000
  H   H2900     1.0  0.65718  0.58606  0.10991  1.0000
  H   H2901     1.0  0.62186  0.35531  0.01231  1.0000
  H   H2902     1.0  0.58554  0.53194  0.25209  1.0000
  C   C3636     1.0  0.65642  0.35850  0.98319  1.0000
  Fe  Fe255     1.0  0.74158  0.49758  0.08388  1.0000
  C   C3637     1.0  0.73273  0.44371  0.01978  1.0000
  H   H2903     1.0  0.67920  0.39305  0.38498  1.0000
  C   C3638     1.0  0.57953  0.35313  0.01676  1.0000
  H   H2904     1.0  0.64838  0.55397  0.05041  1.0000
  C   C3639     1.0  0.72851  0.49025  0.25860  1.0000
  H   H2905     1.0  0.57784  0.62442  0.12883  1.0000
  C   C3640     1.0  0.69341  0.57197  0.07670  1.0000
  Fe  Fe256     1.0  0.71947  0.47084  0.10315  1.0000
  S   S506      1.0  0.71786  0.49116  0.07893  1.0000
  S   S507      1.0  0.69927  0.46238  0.12600  1.0000
  C   C3641     1.0  0.72414  0.33175  0.40999  1.0000
  C   C3642     1.0  0.60297  0.32466  0.10611  1.0000
  H   H2906     1.0  0.73129  0.48761  0.17355  1.0000
  C   C3643     1.0  0.64499  0.64417  0.26984  1.0000
  H   H2907     1.0  0.66182  0.42727  0.14067  1.0000
  H   H2908     1.0  0.68337  0.34601  0.15711  1.0000
  Fe  Fe257     1.0  0.61769  0.51089  0.16382  1.0000
  S   S508      1.0  0.59711  0.49717  0.18153  1.0000
  S   S509      1.0  0.62572  0.51178  0.13524  1.0000
  Fe  Fe258     1.0  0.62447  0.52423  0.19250  1.0000
  S   S510      1.0  0.60457  0.51162  0.21267  1.0000
  S   S511      1.0  0.64201  0.53965  0.19613  1.0000
  Fe  Fe259     1.0  0.61580  0.48882  0.19974  1.0000
  S   S512      1.0  0.62041  0.46186  0.21595  1.0000
  Fe  Fe260     1.0  0.58792  0.52124  0.19255  1.0000
  S   S513      1.0  0.55953  0.53388  0.20004  1.0000
  S   S514      1.0  0.63707  0.50085  0.18114  1.0000
  S   S515      1.0  0.60722  0.53560  0.17338  1.0000
  Fe  Fe261     1.0  0.70467  0.40624  0.24137  1.0000
  C   C3644     1.0  0.50816  0.55137  0.28989  1.0000
  S   S516      1.0  0.69945  0.42716  0.21830  1.0000
  Fe  Fe262     1.0  0.68991  0.37966  0.27071  1.0000
  S   S517      1.0  0.71509  0.36953  0.27965  1.0000
  S   S518      1.0  0.66641  0.36799  0.28349  1.0000
  Fe  Fe263     1.0  0.71671  0.39724  0.27524  1.0000
  S   S519      1.0  0.72331  0.40432  0.29731  1.0000
  Fe  Fe264     1.0  0.72737  0.37129  0.25171  1.0000
  H   H2909     1.0  0.64949  0.33609  0.07899  1.0000
  S   S520      1.0  0.69027  0.40748  0.26849  1.0000
  S   S521      1.0  0.70194  0.37930  0.24286  1.0000
  C   C3645     1.0  0.65737  0.54651  0.05870  1.0000
  C   C3646     1.0  0.58937  0.62510  0.13293  1.0000
  H   H2910     1.0  0.68971  0.45841  0.08483  1.0000
  C   C3647     1.0  0.74109  0.41444  0.29291  1.0000
  C   C3648     1.0  0.50614  0.57007  0.23808  1.0000
  H   H2911     1.0  0.66547  0.38662  0.03117  1.0000
  H   H2912     1.0  0.70807  0.60053  0.25531  1.0000
  H   H2913     1.0  0.60279  0.58461  0.12730  1.0000
  C   C3649     1.0  0.72599  0.43068  0.01664  1.0000
  C   C3650     1.0  0.67096  0.34815  0.29782  1.0000
  H   H2914     1.0  0.63322  0.39539  0.03496  1.0000
  C   C3651     1.0  0.66150  0.33552  0.29931  1.0000
  H   H2915     1.0  0.72641  0.38010  0.32886  1.0000
  H   H2916     1.0  0.65161  0.33808  0.29169  1.0000
  C   C3652     1.0  0.62970  0.58719  0.11866  1.0000
  C   C3653     1.0  0.71144  0.58764  0.08394  1.0000
  C   C3654     1.0  0.54809  0.55992  0.26511  1.0000
  C   C3655     1.0  0.64238  0.45154  0.21595  1.0000
  C   C3656     1.0  0.64649  0.43800  0.22968  1.0000
  C   C3657     1.0  0.66397  0.43011  0.23036  1.0000
  C   C3658     1.0  0.67740  0.43562  0.21715  1.0000
  C   C3659     1.0  0.67328  0.44866  0.20308  1.0000
  C   C3660     1.0  0.65582  0.45659  0.20248  1.0000
  H   H2917     1.0  0.63614  0.43376  0.23992  1.0000
  H   H2918     1.0  0.66702  0.41994  0.24119  1.0000
  H   H2919     1.0  0.68360  0.45279  0.19269  1.0000
  H   H2920     1.0  0.65281  0.46647  0.19150  1.0000
  C   C3661     1.0  0.65039  0.56194  0.11018  1.0000
  C   C3662     1.0  0.67806  0.47473  0.12724  1.0000
  C   C3663     1.0  0.66583  0.47171  0.14261  1.0000
  C   C3664     1.0  0.64929  0.48249  0.14465  1.0000
  C   C3665     1.0  0.64497  0.49635  0.13137  1.0000
  C   C3666     1.0  0.65677  0.49868  0.11554  1.0000
  C   C3667     1.0  0.67341  0.48790  0.11351  1.0000
  H   H2921     1.0  0.66935  0.46138  0.15317  1.0000
  H   H2922     1.0  0.63999  0.48023  0.15665  1.0000
  H   H2923     1.0  0.65336  0.50927  0.10517  1.0000
  H   H2924     1.0  0.68274  0.49001  0.10154  1.0000
  C   C3668     1.0  0.54848  0.58944  0.17029  1.0000
  C   C3669     1.0  0.53669  0.58389  0.18525  1.0000
  C   C3670     1.0  0.53958  0.56652  0.19387  1.0000
  C   C3671     1.0  0.55424  0.55473  0.18756  1.0000
  C   C3672     1.0  0.56514  0.56007  0.17187  1.0000
  C   C3673     1.0  0.56244  0.57741  0.16338  1.0000
  H   H2925     1.0  0.63214  0.39461  0.42381  1.0000
  H   H2926     1.0  0.53089  0.56237  0.20577  1.0000
  H   H2927     1.0  0.57558  0.55082  0.16618  1.0000
  H   H2928     1.0  0.57127  0.58152  0.15152  1.0000
  C   C3674     1.0  0.69265  0.57145  0.10669  1.0000
  C   C3675     1.0  0.72682  0.45207  0.23159  1.0000
  S   S522      1.0  0.54670  0.61139  0.16048  1.0000
  C   C3676     1.0  0.50131  0.61928  0.26581  1.0000
  H   H2929     1.0  0.52902  0.64557  0.04719  1.0000
  C   C3677     1.0  0.72206  0.37711  0.34277  1.0000
  C   C3678     1.0  0.52969  0.59983  0.24674  1.0000
  P   P120      1.0  0.51543  0.57026  0.25596  1.0000
  H   H2930     1.0  0.73022  0.42684  0.00425  1.0000
  H   H2931     1.0  0.61522  0.37331  0.04157  1.0000
  C   C3679     1.0  0.50133  0.60212  0.26597  1.0000
  H   H2932     1.0  0.69653  0.32625  0.32714  1.0000
  C   C3680     1.0  0.71343  0.42303  0.02934  1.0000
  H   H2933     1.0  0.73390  0.43214  0.21660  1.0000
  H   H2934     1.0  0.62885  0.63628  0.21895  1.0000
  H   H2935     1.0  0.68946  0.56791  0.06690  1.0000
  C   C3681     1.0  0.71504  0.44107  0.04859  1.0000
  C   C3682     1.0  0.70803  0.42832  0.04533  1.0000
  C   C3683     1.0  0.71128  0.64275  0.24241  1.0000
  H   H2936     1.0  0.68881  0.36277  0.37322  1.0000
  H   H2937     1.0  0.71085  0.44489  0.06095  1.0000
  H   H2938     1.0  0.69831  0.42256  0.05526  1.0000
  P   P121      1.0  0.62392  0.33554  0.04716  1.0000
  H   H2939     1.0  0.59208  0.63146  0.22744  1.0000
  C   C3684     1.0  0.68728  0.35010  0.12942  1.0000
  C   C3685     1.0  0.73173  0.40394  0.18390  1.0000
  C   C3686     1.0  0.62926  0.36928  0.03998  1.0000
  C   C3687     1.0  0.68435  0.44697  0.09113  1.0000
  H   H2940     1.0  0.54296  0.56880  0.27389  1.0000
  C   C3688     1.0  0.65475  0.39514  0.40308  1.0000
  H   H2941     1.0  0.72099  0.50968  0.12414  1.0000
  H   H2942     1.0  0.62703  0.60029  0.12065  1.0000
  H   H2943     1.0  0.64827  0.40601  0.39466  1.0000
  S   S523      1.0  0.50024  0.63994  0.16022  1.0000
  C   C3689     1.0  0.66026  0.42605  0.16745  1.0000
  C   C3690     1.0  0.65905  0.55291  0.07242  1.0000
  Fe  Fe265     1.0  0.73647  0.47070  0.06540  1.0000
  C   C3691     1.0  0.49708  0.54447  0.30477  1.0000
  H   H2944     1.0  0.59818  0.32197  0.11996  1.0000
  C   C3692     1.0  0.62697  0.56245  0.24445  1.0000
  C   C3693     1.0  0.64307  0.56312  0.23322  1.0000
  C   C3694     1.0  0.64733  0.55635  0.21830  1.0000
  C   C3695     1.0  0.63566  0.54844  0.21469  1.0000
  C   C3696     1.0  0.61942  0.54775  0.22581  1.0000
  C   C3697     1.0  0.61495  0.55503  0.24061  1.0000
  H   H2945     1.0  0.65241  0.56871  0.23603  1.0000
  H   H2946     1.0  0.65988  0.55697  0.20972  1.0000
  H   H2947     1.0  0.61039  0.54161  0.22302  1.0000
  H   H2948     1.0  0.60253  0.55450  0.24932  1.0000
  C   C3698     1.0  0.70164  0.51507  0.31346  1.0000
  C   C3699     1.0  0.70967  0.49821  0.32000  1.0000
  C   C3700     1.0  0.72591  0.49502  0.32464  1.0000
  C   C3701     1.0  0.64566  0.38874  0.41951  1.0000
  H   H2949     1.0  0.73453  0.33841  0.40869  1.0000
  C   C3702     1.0  0.70980  0.52877  0.31181  1.0000
  H   H2950     1.0  0.70352  0.48756  0.32120  1.0000
  H   H2951     1.0  0.72704  0.44522  0.39209  1.0000
  C   C3703     1.0  0.50304  0.55456  0.23618  1.0000
  H   H2952     1.0  0.70341  0.54187  0.30731  1.0000
  H   H2953     1.0  0.74336  0.51679  0.28347  1.0000
  H   H2954     1.0  0.63517  0.34649  0.43143  1.0000
  C   C3704     1.0  0.71864  0.57745  0.21764  1.0000
  C   C3705     1.0  0.71745  0.56286  0.21252  1.0000
  C   C3706     1.0  0.72764  0.55878  0.19687  1.0000
  H   H2955     1.0  0.74005  0.36556  0.14547  1.0000
  H   H2956     1.0  0.71119  0.58017  0.22997  1.0000
  H   H2957     1.0  0.72687  0.54730  0.19304  1.0000
  Fe  Fe266     1.0  0.70191  0.36133  0.99549  1.0000
  H   H2958     1.0  0.66980  0.50388  0.15310  1.0000
  H   H2959     1.0  0.52572  0.59306  0.19044  1.0000
  H   H2960     1.0  0.68163  0.33893  0.40655  1.0000
  S   S524      1.0  0.69920  0.38980  0.98449  1.0000
  C   C3707     1.0  0.68682  0.56631  0.09433  1.0000
  C   C3708     1.0  0.74368  0.49131  0.28037  1.0000
  C   C3709     1.0  0.71816  0.32568  0.07278  1.0000
  H   H2961     1.0  0.65131  0.56538  0.07458  1.0000
  C   C3710     1.0  0.66955  0.62397  0.28076  1.0000
  C   C3711     1.0  0.65562  0.62746  0.27224  1.0000
  H   H2962     1.0  0.65280  0.61722  0.26786  1.0000
  C   C3712     1.0  0.69957  0.52816  0.11479  1.0000
  C   C3713     1.0  0.60736  0.63332  0.30441  1.0000
  C   C3714     1.0  0.61602  0.57839  0.12237  1.0000
  C   C3715     1.0  0.58654  0.62143  0.23698  1.0000
  C   C3716     1.0  0.58498  0.60683  0.23206  1.0000
  C   C3717     1.0  0.57735  0.59410  0.24426  1.0000
  C   C3718     1.0  0.57150  0.59590  0.26147  1.0000
  C   C3719     1.0  0.57399  0.61007  0.26668  1.0000
  C   C3720     1.0  0.58111  0.62308  0.25422  1.0000
  P   P122      1.0  0.56699  0.61230  0.28891  1.0000
  H   H2963     1.0  0.64282  0.31896  0.45137  1.0000
  C   C3721     1.0  0.56780  0.59155  0.30350  1.0000
  C   C3722     1.0  0.55689  0.58997  0.31995  1.0000
  C   C3723     1.0  0.55827  0.57410  0.33163  1.0000
  C   C3724     1.0  0.57085  0.55983  0.32711  1.0000
  C   C3725     1.0  0.58217  0.56147  0.31100  1.0000
  C   C3726     1.0  0.58077  0.57730  0.29932  1.0000
  H   H2964     1.0  0.59699  0.64462  0.11098  1.0000
  C   C3727     1.0  0.49549  0.55435  0.22260  1.0000
  H   H2965     1.0  0.73355  0.51801  0.17090  1.0000
  C   C3728     1.0  0.66844  0.41932  0.18156  1.0000
  H   H2966     1.0  0.71281  0.35187  0.43618  1.0000
  C   C3729     1.0  0.58261  0.62119  0.29447  1.0000
  H   H2967     1.0  0.59838  0.36394  0.99576  1.0000
  H   H2968     1.0  0.50668  0.54256  0.24503  1.0000
  H   H2969     1.0  0.72811  0.50580  0.36144  1.0000
  C   C3730     1.0  0.61279  0.62050  0.29456  1.0000
  C   C3731     1.0  0.60051  0.61457  0.28944  1.0000
  C   C3732     1.0  0.73996  0.50934  0.27606  1.0000
  H   H2970     1.0  0.58975  0.60538  0.21881  1.0000
  H   H2971     1.0  0.57619  0.58279  0.24036  1.0000
  H   H2972     1.0  0.56539  0.58610  0.27073  1.0000
  H   H2973     1.0  0.68006  0.33244  0.06311  1.0000
  H   H2974     1.0  0.54765  0.60110  0.32394  1.0000
  H   H2975     1.0  0.54990  0.57298  0.34434  1.0000
  H   H2976     1.0  0.57215  0.54763  0.33626  1.0000
  H   H2977     1.0  0.59238  0.55065  0.30764  1.0000
  H   H2978     1.0  0.59017  0.57849  0.28722  1.0000
  H   H2979     1.0  0.73782  0.52610  0.04335  1.0000
  C   C3733     1.0  0.68038  0.52709  0.08022  1.0000
  H   H2980     1.0  0.71640  0.39661  0.39470  1.0000
  C   C3734     1.0  0.60565  0.34119  0.09753  1.0000
  C   C3735     1.0  0.69439  0.33207  0.40891  1.0000
  H   H2981     1.0  0.73618  0.31810  0.03749  1.0000
  C   C3736     1.0  0.67490  0.59576  0.20305  1.0000
  H   H2982     1.0  0.57335  0.55227  0.27222  1.0000
  H   H2983     1.0  0.62654  0.61514  0.29088  1.0000
  H   H2984     1.0  0.60503  0.60468  0.28170  1.0000
  C   C3737     1.0  0.56430  0.59757  0.20142  1.0000
  C   C3738     1.0  0.56625  0.58002  0.20899  1.0000
  C   C3739     1.0  0.58243  0.56894  0.20576  1.0000
  C   C3740     1.0  0.59678  0.57539  0.19509  1.0000
  C   C3741     1.0  0.59486  0.59292  0.18708  1.0000
  C   C3742     1.0  0.57855  0.60402  0.19052  1.0000
  P   P123      1.0  0.61335  0.60175  0.17394  1.0000
  C   C3743     1.0  0.61902  0.61290  0.18751  1.0000
  C   C3744     1.0  0.63158  0.58535  0.16697  1.0000
  C   C3745     1.0  0.64874  0.58611  0.16700  1.0000
  C   C3746     1.0  0.66278  0.57352  0.16112  1.0000
  C   C3747     1.0  0.65978  0.56016  0.15513  1.0000
  C   C3748     1.0  0.64278  0.55956  0.15474  1.0000
  C   C3749     1.0  0.62876  0.57220  0.16044  1.0000
  H   H2985     1.0  0.72626  0.36421  0.45278  1.0000
  C   C3750     1.0  0.52969  0.61695  0.24673  1.0000
  C   C3751     1.0  0.72561  0.50835  0.25381  1.0000
  C   C3752     1.0  0.62995  0.61169  0.21302  1.0000
  C   C3753     1.0  0.62636  0.60330  0.20175  1.0000
  C   C3754     1.0  0.60791  0.61558  0.15419  1.0000
  C   C3755     1.0  0.59335  0.61456  0.14838  1.0000
  H   H2986     1.0  0.59508  0.32782  0.42001  1.0000
  C   C3756     1.0  0.74083  0.59350  0.30204  1.0000
  C   C3757     1.0  0.53761  0.55785  0.25470  1.0000
  C   C3758     1.0  0.73125  0.51782  0.26260  1.0000
  H   H2987     1.0  0.55163  0.60610  0.20350  1.0000
  H   H2988     1.0  0.55510  0.57487  0.21690  1.0000
  H   H2989     1.0  0.58376  0.55524  0.21121  1.0000
  H   H2990     1.0  0.60926  0.56661  0.19306  1.0000
  H   H2991     1.0  0.57678  0.61766  0.18468  1.0000
  H   H2992     1.0  0.65136  0.59632  0.17161  1.0000
  H   H2993     1.0  0.67595  0.57389  0.16151  1.0000
  H   H2994     1.0  0.67055  0.55005  0.15118  1.0000
  H   H2995     1.0  0.64035  0.54904  0.15047  1.0000
  H   H2996     1.0  0.61567  0.57154  0.16001  1.0000
  S   S525      1.0  0.73624  0.45008  0.08939  1.0000
  H   H2997     1.0  0.60286  0.35136  0.10476  1.0000
  C   C3759     1.0  0.60613  0.34338  0.03578  1.0000
  H   H2998     1.0  0.63513  0.60419  0.22429  1.0000
  H   H2999     1.0  0.62892  0.58931  0.20435  1.0000
  H   H3000     1.0  0.58502  0.60559  0.15564  1.0000
  P   P124      1.0  0.73653  0.35278  0.18350  1.0000
  C   C3760     1.0  0.66712  0.53038  0.05578  1.0000
  H   H3001     1.0  0.71652  0.36870  0.05625  1.0000
  C   C3761     1.0  0.73241  0.37838  0.35355  1.0000
  C   C3762     1.0  0.71879  0.35630  0.06503  1.0000
  C   C3763     1.0  0.70065  0.61743  0.23237  1.0000
  H   H3002     1.0  0.69645  0.38666  0.10129  1.0000
  H   H3003     1.0  0.73313  0.43071  0.33310  1.0000
  C   C3764     1.0  0.56195  0.53710  0.24244  1.0000
  H   H3004     1.0  0.58259  0.63448  0.25778  1.0000
  H   H3005     1.0  0.73170  0.48206  0.33011  1.0000
  H   H3006     1.0  0.74061  0.56337  0.27224  1.0000
  C   C3765     1.0  0.72754  0.49276  0.36860  1.0000
  H   H3007     1.0  0.56350  0.63854  0.30952  1.0000
  C   C3766     1.0  0.68947  0.61998  0.19644  1.0000
  H   H3008     1.0  0.70879  0.34339  0.05100  1.0000
  H   H3009     1.0  0.54060  0.59268  0.23894  1.0000
  C   C3767     1.0  0.68667  0.58887  0.18958  1.0000
  C   C3768     1.0  0.69950  0.59773  0.17916  1.0000
  C   C3769     1.0  0.70092  0.61323  0.18253  1.0000
  C   C3770     1.0  0.67050  0.54318  0.08336  1.0000
  H   H3010     1.0  0.71672  0.62311  0.26473  1.0000
  C   C3771     1.0  0.65972  0.32788  0.99485  1.0000
  C   C3772     1.0  0.60910  0.35250  0.01862  1.0000
  C   C3773     1.0  0.70637  0.37147  0.34991  1.0000
  H   H3011     1.0  0.73553  0.39229  0.44035  1.0000
  C   C3774     1.0  0.72569  0.57696  0.29225  1.0000
  H   H3012     1.0  0.68617  0.57639  0.18759  1.0000
  H   H3013     1.0  0.70891  0.59221  0.16893  1.0000
  H   H3014     1.0  0.68550  0.33735  0.12952  1.0000
  C   C3775     1.0  0.63558  0.48335  0.31760  1.0000
  C   C3776     1.0  0.64413  0.49724  0.31161  1.0000
  C   C3777     1.0  0.64864  0.50365  0.29390  1.0000
  C   C3778     1.0  0.64470  0.49621  0.28209  1.0000
  C   C3779     1.0  0.63634  0.48208  0.28797  1.0000
  C   C3780     1.0  0.63159  0.47585  0.30583  1.0000
  P   P125      1.0  0.63088  0.47260  0.27283  1.0000
  C   C3781     1.0  0.60847  0.48143  0.27058  1.0000
  C   C3782     1.0  0.64529  0.47730  0.25219  1.0000
  C   C3783     1.0  0.64018  0.49177  0.23964  1.0000
  C   C3784     1.0  0.65101  0.49490  0.22340  1.0000
  C   C3785     1.0  0.66721  0.48402  0.21973  1.0000
  C   C3786     1.0  0.67273  0.47014  0.23241  1.0000
  C   C3787     1.0  0.66182  0.46667  0.24856  1.0000
  C   C3788     1.0  0.60292  0.47973  0.25626  1.0000
  C   C3789     1.0  0.58572  0.48655  0.25422  1.0000
  C   C3790     1.0  0.57386  0.49516  0.26650  1.0000
  C   C3791     1.0  0.57926  0.49704  0.28078  1.0000
  C   C3792     1.0  0.59651  0.49021  0.28283  1.0000
  C   C3793     1.0  0.63445  0.44934  0.27982  1.0000
  C   C3794     1.0  0.62503  0.43967  0.27500  1.0000
  C   C3795     1.0  0.62845  0.42164  0.27980  1.0000
  C   C3796     1.0  0.64124  0.41311  0.28947  1.0000
  C   C3797     1.0  0.65070  0.42260  0.29431  1.0000
  C   C3798     1.0  0.64743  0.44061  0.28940  1.0000
  H   H3015     1.0  0.63206  0.47841  0.33134  1.0000
  H   H3016     1.0  0.64737  0.50309  0.32060  1.0000
  H   H3017     1.0  0.65531  0.51438  0.28936  1.0000
  H   H3018     1.0  0.64824  0.50152  0.26842  1.0000
  H   H3019     1.0  0.62482  0.46518  0.31061  1.0000
  H   H3020     1.0  0.62777  0.50055  0.24220  1.0000
  H   H3021     1.0  0.64682  0.50569  0.21359  1.0000
  H   H3022     1.0  0.67544  0.48630  0.20700  1.0000
  H   H3023     1.0  0.68518  0.46162  0.22943  1.0000
  H   H3024     1.0  0.66625  0.45549  0.25795  1.0000
  H   H3025     1.0  0.61197  0.47316  0.24660  1.0000
  H   H3026     1.0  0.58171  0.48514  0.24300  1.0000
  H   H3027     1.0  0.56053  0.50044  0.26485  1.0000
  H   H3028     1.0  0.57008  0.50381  0.29024  1.0000
  H   H3029     1.0  0.60043  0.49186  0.29393  1.0000
  H   H3030     1.0  0.61536  0.44586  0.26715  1.0000
  H   H3031     1.0  0.62145  0.41420  0.27569  1.0000
  H   H3032     1.0  0.64406  0.39912  0.29291  1.0000
  H   H3033     1.0  0.66093  0.41587  0.30142  1.0000
  H   H3034     1.0  0.65531  0.44769  0.29270  1.0000
  Fe  Fe267     1.0  0.52363  0.62954  0.17245  1.0000
  H   H3035     1.0  0.71361  0.59229  0.31160  1.0000
  H   H3036     1.0  0.71233  0.33201  0.24531  1.0000
  C   C3799     1.0  0.69197  0.38310  0.12917  1.0000
  C   C3800     1.0  0.68846  0.37139  0.14487  1.0000
  P   P126      1.0  0.69521  0.40432  0.12882  1.0000
  C   C3801     1.0  0.71827  0.40427  0.12457  1.0000
  C   C3802     1.0  0.68540  0.41986  0.11208  1.0000
  C   C3803     1.0  0.69242  0.43449  0.10343  1.0000
  C   C3804     1.0  0.73281  0.46256  0.23910  1.0000
  C   C3805     1.0  0.60539  0.32590  0.42700  1.0000
  C   C3806     1.0  0.67154  0.36727  0.42495  1.0000
  C   C3807     1.0  0.67015  0.41789  0.10816  1.0000
  C   C3808     1.0  0.72406  0.41664  0.12972  1.0000
  S   S526      1.0  0.74298  0.52547  0.08280  1.0000
  C   C3809     1.0  0.73864  0.44025  0.22229  1.0000
  H   H3037     1.0  0.73795  0.50356  0.02777  1.0000
  C   C3810     1.0  0.73053  0.39240  0.11552  1.0000
  C   C3811     1.0  0.68483  0.41055  0.14936  1.0000
  C   C3812     1.0  0.66839  0.42171  0.15141  1.0000
  C   C3813     1.0  0.58956  0.63979  0.30968  1.0000
  H   H3038     1.0  0.71302  0.45291  0.23294  1.0000
  C   C3814     1.0  0.68493  0.40853  0.17959  1.0000
  C   C3815     1.0  0.69313  0.40413  0.16356  1.0000
  C   C3816     1.0  0.63723  0.35169  0.04147  1.0000
  C   C3817     1.0  0.59582  0.35736  0.00917  1.0000
  C   C3818     1.0  0.74095  0.46591  0.38510  1.0000
  H   H3039     1.0  0.70395  0.43650  0.10638  1.0000
  H   H3040     1.0  0.68413  0.63478  0.29256  1.0000
  H   H3041     1.0  0.61697  0.63829  0.30787  1.0000
  C   C3819     1.0  0.68692  0.32878  0.31923  1.0000
  H   H3042     1.0  0.66205  0.42265  0.19399  1.0000
  H   H3043     1.0  0.71485  0.42613  0.13645  1.0000
  C   C3820     1.0  0.73802  0.34146  0.31966  1.0000
  C   C3821     1.0  0.70518  0.64663  0.22700  1.0000
  H   H3044     1.0  0.72973  0.60011  0.21047  1.0000
  H   H3045     1.0  0.72647  0.38296  0.11107  1.0000
  H   H3046     1.0  0.61131  0.35109  0.41568  1.0000
  H   H3047     1.0  0.69135  0.40381  0.19053  1.0000
  H   H3048     1.0  0.70594  0.39578  0.16220  1.0000
  C   C3822     1.0  0.64684  0.57900  0.11265  1.0000
  C   C3823     1.0  0.74176  0.41729  0.12562  1.0000
  H   H3049     1.0  0.72118  0.59562  0.07994  1.0000
  C   C3824     1.0  0.67224  0.38764  0.39756  1.0000
  H   H3050     1.0  0.50267  0.59767  0.22804  1.0000
  P   P127      1.0  0.67218  0.55135  0.10134  1.0000
  H   H3051     1.0  0.66517  0.58868  0.21124  1.0000
  S   S527      1.0  0.50832  0.62634  0.19967  1.0000
  C   C3825     1.0  0.54555  0.62607  0.29056  1.0000
  H   H3052     1.0  0.68926  0.51935  0.08847  1.0000
  H   H3053     1.0  0.73020  0.40852  0.41146  1.0000
  H   H3054     1.0  0.60895  0.55446  0.12291  1.0000
  C   C3826     1.0  0.72700  0.37418  0.37149  1.0000
  H   H3055     1.0  0.70966  0.58568  0.11111  1.0000
  C   C3827     1.0  0.71926  0.34981  0.20228  1.0000
  C   C3828     1.0  0.68362  0.34481  0.30789  1.0000
  C   C3829     1.0  0.69344  0.37797  0.11358  1.0000
  H   H3056     1.0  0.60822  0.63866  0.17477  1.0000
  H   H3057     1.0  0.54051  0.62288  0.23904  1.0000
  H   H3058     1.0  0.56740  0.52838  0.23349  1.0000
  H   H3059     1.0  0.56391  0.34055  0.03963  1.0000
  C   C3830     1.0  0.70185  0.35700  0.20079  1.0000
  C   C3831     1.0  0.68832  0.35513  0.21526  1.0000
  C   C3832     1.0  0.69207  0.34598  0.23128  1.0000
  C   C3833     1.0  0.70935  0.33865  0.23281  1.0000
  C   C3834     1.0  0.72291  0.34050  0.21837  1.0000
  C   C3835     1.0  0.70566  0.58262  0.07156  1.0000
  C   C3836     1.0  0.74270  0.50745  0.17687  1.0000
  H   H3060     1.0  0.66420  0.40694  0.11496  1.0000
  C   C3837     1.0  0.70492  0.58206  0.10151  1.0000
  C   C3838     1.0  0.63225  0.32073  0.44479  1.0000
  C   C3839     1.0  0.61497  0.63718  0.12837  1.0000
  H   H3061     1.0  0.68797  0.56692  0.12036  1.0000
  C   C3840     1.0  0.70694  0.51405  0.12627  1.0000
  H   H3062     1.0  0.63883  0.54038  0.11135  1.0000
  C   C3841     1.0  0.65546  0.34692  0.03921  1.0000
  H   H3063     1.0  0.71856  0.38369  0.19866  1.0000
  C   C3842     1.0  0.73957  0.58456  0.19112  1.0000
  C   C3843     1.0  0.71236  0.62612  0.25260  1.0000
  C   C3844     1.0  0.70733  0.61341  0.24739  1.0000
  C   C3845     1.0  0.71088  0.36928  0.37880  1.0000
  H   H3064     1.0  0.68751  0.37483  0.15706  1.0000
  H   H3065     1.0  0.69879  0.36430  0.18850  1.0000
  H   H3066     1.0  0.67494  0.36104  0.21416  1.0000
  H   H3067     1.0  0.68165  0.34495  0.24262  1.0000
  C   C3846     1.0  0.72942  0.33856  0.09030  1.0000
  C   C3847     1.0  0.61872  0.63934  0.19611  1.0000
  H   H3068     1.0  0.58730  0.33168  0.05639  1.0000
  C   C3848     1.0  0.72236  0.32325  0.15795  1.0000
  C   C3849     1.0  0.72678  0.33116  0.14065  1.0000
  C   C3850     1.0  0.63679  0.34230  0.97877  1.0000
  C   C3851     1.0  0.61891  0.62672  0.14391  1.0000
  S   S528      1.0  0.73618  0.46550  0.03918  1.0000
  C   C3852     1.0  0.69097  0.36158  0.11374  1.0000
  H   H3069     1.0  0.70814  0.53438  0.10385  1.0000
  C   C3853     1.0  0.66550  0.35948  0.03575  1.0000
  C   C3854     1.0  0.61191  0.34462  0.07964  1.0000
  H   H3070     1.0  0.51546  0.64000  0.25600  1.0000
  C   C3855     1.0  0.63939  0.38183  0.03632  1.0000
  C   C3856     1.0  0.67333  0.63734  0.28609  1.0000
  H   H3071     1.0  0.71134  0.61945  0.17452  1.0000
  C   C3857     1.0  0.67862  0.52069  0.06653  1.0000
  H   H3072     1.0  0.68606  0.50811  0.06433  1.0000
  H   H3073     1.0  0.73664  0.35250  0.12282  1.0000
  H   H3074     1.0  0.69612  0.60761  0.22907  1.0000
  C   C3858     1.0  0.72407  0.37128  0.44008  1.0000
  H   H3075     1.0  0.71094  0.58671  0.05795  1.0000
  H   H3076     1.0  0.72571  0.32511  0.13069  1.0000
  H   H3077     1.0  0.72428  0.32982  0.30769  1.0000
  H   H3078     1.0  0.52195  0.54880  0.28978  1.0000
  C   C3859     1.0  0.56528  0.55057  0.26425  1.0000
  H   H3079     1.0  0.63398  0.64677  0.26367  1.0000
  H   H3080     1.0  0.73719  0.31855  0.00697  1.0000
  H   H3081     1.0  0.65056  0.42865  0.09256  1.0000
  C   C3860     1.0  0.67613  0.61134  0.20637  1.0000
  C   C3861     1.0  0.61945  0.56146  0.11989  1.0000
  C   C3862     1.0  0.68604  0.35500  0.14496  1.0000
  C   C3863     1.0  0.73791  0.48177  0.27173  1.0000
  C   C3864     1.0  0.57219  0.53915  0.25291  1.0000
  C   C3865     1.0  0.66228  0.43024  0.09559  1.0000
  C   C3866     1.0  0.68065  0.37346  0.40837  1.0000
  C   C3867     1.0  0.73440  0.50859  0.32242  1.0000
  H   H3082     1.0  0.50241  0.53672  0.31585  1.0000
  H   H3083     1.0  0.53746  0.54480  0.23457  1.0000
  C   C3868     1.0  0.61560  0.33148  0.07022  1.0000
  C   C3869     1.0  0.54478  0.54643  0.24323  1.0000
  H   H3084     1.0  0.72364  0.41329  0.19145  1.0000
  H   H3085     1.0  0.66572  0.52531  0.04526  1.0000
  H   H3086     1.0  0.64768  0.43484  0.16893  1.0000
  H   H3087     1.0  0.67956  0.35566  0.03367  1.0000
  H   H3088     1.0  0.65665  0.52849  0.13301  1.0000
  C   C3870     1.0  0.70082  0.36746  0.36787  1.0000
  H   H3089     1.0  0.72302  0.48940  0.21318  1.0000
  C   C3871     1.0  0.54378  0.64403  0.28505  1.0000
  C   C3872     1.0  0.62638  0.62973  0.21006  1.0000
  H   H3090     1.0  0.66712  0.61629  0.21714  1.0000
  C   C3873     1.0  0.51393  0.62980  0.29809  1.0000
  C   C3874     1.0  0.65409  0.37486  0.43046  1.0000
  C   C3875     1.0  0.51234  0.64772  0.29324  1.0000
  H   H3091     1.0  0.50235  0.62433  0.30297  1.0000
  H   H3092     1.0  0.71378  0.57281  0.29292  1.0000
  C   C3876     1.0  0.63649  0.55338  0.11357  1.0000
  C   C3877     1.0  0.61484  0.63098  0.18499  1.0000
  H   H3093     1.0  0.53149  0.60513  0.29986  1.0000
  P   P128      1.0  0.71739  0.47814  0.25076  1.0000
  C   C3878     1.0  0.66536  0.34336  0.99227  1.0000
  C   C3879     1.0  0.70391  0.49303  0.23655  1.0000
  C   C3880     1.0  0.68760  0.50257  0.24328  1.0000
  C   C3881     1.0  0.67795  0.51510  0.23223  1.0000
  C   C3882     1.0  0.68441  0.51815  0.21443  1.0000
  C   C3883     1.0  0.70055  0.50869  0.20763  1.0000
  C   C3884     1.0  0.71033  0.49626  0.21863  1.0000
  H   H3094     1.0  0.66323  0.45445  0.07745  1.0000
  H   H3095     1.0  0.67801  0.35668  0.43367  1.0000
  C   C3885     1.0  0.67068  0.52499  0.13111  1.0000
  C   C3886     1.0  0.70402  0.46827  0.27027  1.0000
  C   C3887     1.0  0.70263  0.45092  0.27330  1.0000
  C   C3888     1.0  0.69301  0.44344  0.28895  1.0000
  C   C3889     1.0  0.68487  0.45307  0.30174  1.0000
  C   C3890     1.0  0.68626  0.47027  0.29892  1.0000
  C   C3891     1.0  0.69574  0.47785  0.28329  1.0000
  C   C3892     1.0  0.68135  0.53381  0.11712  1.0000
  H   H3096     1.0  0.63053  0.62726  0.14790  1.0000
  H   H3097     1.0  0.68243  0.50069  0.25700  1.0000
  H   H3098     1.0  0.66546  0.52257  0.23742  1.0000
  H   H3099     1.0  0.67690  0.52785  0.20590  1.0000
  H   H3100     1.0  0.70549  0.51117  0.19383  1.0000
  C   C3893     1.0  0.65753  0.37693  0.03423  1.0000
  C   C3894     1.0  0.72912  0.38715  0.43316  1.0000
  C   C3895     1.0  0.57720  0.63355  0.30499  1.0000
  H   H3101     1.0  0.70923  0.44293  0.26393  1.0000
  H   H3102     1.0  0.69225  0.42997  0.29132  1.0000
  H   H3103     1.0  0.67765  0.44714  0.31389  1.0000
  H   H3104     1.0  0.68026  0.47776  0.30888  1.0000
  H   H3105     1.0  0.69687  0.49116  0.28157  1.0000
  C   C3896     1.0  0.64922  0.49549  0.38684  1.0000
  C   C3897     1.0  0.64831  0.50449  0.36997  1.0000
  C   C3898     1.0  0.66095  0.49925  0.35609  1.0000
  C   C3899     1.0  0.67441  0.48497  0.35904  1.0000
  C   C3900     1.0  0.67560  0.47602  0.37595  1.0000
  C   C3901     1.0  0.66289  0.48138  0.38986  1.0000
  P   P129      1.0  0.69438  0.45907  0.37952  1.0000
  C   C3902     1.0  0.69014  0.44537  0.40071  1.0000
  C   C3903     1.0  0.69923  0.44669  0.36285  1.0000
  C   C3904     1.0  0.68590  0.44080  0.35924  1.0000
  C   C3905     1.0  0.68971  0.43091  0.34654  1.0000
  C   C3906     1.0  0.70674  0.42725  0.33708  1.0000
  C   C3907     1.0  0.71991  0.43345  0.34035  1.0000
  C   C3908     1.0  0.71622  0.44310  0.35317  1.0000
  C   C3909     1.0  0.69122  0.45094  0.41528  1.0000
  C   C3910     1.0  0.68860  0.44032  0.43169  1.0000
  C   C3911     1.0  0.68480  0.42409  0.43373  1.0000
  C   C3912     1.0  0.68355  0.41849  0.41937  1.0000
  C   C3913     1.0  0.68633  0.42899  0.40289  1.0000
  C   C3914     1.0  0.71271  0.46855  0.37825  1.0000
  C   C3915     1.0  0.71325  0.48565  0.36951  1.0000
  H   H3106     1.0  0.70187  0.49395  0.14861  1.0000
  C   C3916     1.0  0.67812  0.51092  0.14262  1.0000
  C   C3917     1.0  0.72681  0.45864  0.38583  1.0000
  H   H3107     1.0  0.63952  0.49968  0.39761  1.0000
  H   H3108     1.0  0.63800  0.51569  0.36765  1.0000
  H   H3109     1.0  0.66065  0.50653  0.34303  1.0000
  H   H3110     1.0  0.68428  0.48131  0.34815  1.0000
  H   H3111     1.0  0.66357  0.47488  0.40303  1.0000
  H   H3112     1.0  0.67263  0.44370  0.36639  1.0000
  H   H3113     1.0  0.67955  0.42606  0.34396  1.0000
  H   H3114     1.0  0.70977  0.41964  0.32720  1.0000
  C   C3918     1.0  0.73496  0.35387  0.14922  1.0000
  H   H3115     1.0  0.72677  0.44760  0.35544  1.0000
  H   H3116     1.0  0.69429  0.46344  0.41392  1.0000
  H   H3117     1.0  0.68971  0.44460  0.44283  1.0000
  H   H3118     1.0  0.68301  0.41575  0.44642  1.0000
  H   H3119     1.0  0.68084  0.40579  0.42099  1.0000
  H   H3120     1.0  0.68581  0.42408  0.39198  1.0000
  H   H3121     1.0  0.70291  0.49355  0.36309  1.0000
  C   C3919     1.0  0.69622  0.50533  0.14011  1.0000
  H   H3122     1.0  0.69866  0.36997  0.34148  1.0000
  C   C3920     1.0  0.64571  0.32731  0.98791  1.0000
  H   H3123     1.0  0.71828  0.51531  0.24388  1.0000
  C   C3921     1.0  0.71472  0.34189  0.06188  1.0000
  H   H3124     1.0  0.66213  0.33363  0.03961  1.0000
  H   H3125     1.0  0.61386  0.35749  0.07329  1.0000
  C   C3922     1.0  0.72504  0.32421  0.08736  1.0000
  C   C3923     1.0  0.50086  0.58547  0.22667  1.0000
  H   H3126     1.0  0.69054  0.35471  0.30727  1.0000
  C   C3924     1.0  0.53048  0.61898  0.29650  1.0000
  C   C3925     1.0  0.72622  0.39623  0.41684  1.0000
  C   C3926     1.0  0.73604  0.33443  0.30652  1.0000
  H   H3127     1.0  0.64716  0.37004  0.44331  1.0000
  C   C3927     1.0  0.71661  0.36421  0.43048  1.0000
  C   C3928     1.0  0.71434  0.37289  0.41375  1.0000
  C   C3929     1.0  0.71868  0.38924  0.40724  1.0000
  P   P130      1.0  0.70346  0.36433  0.40197  1.0000
  C   C3930     1.0  0.70747  0.34107  0.40772  1.0000
  C   C3931     1.0  0.62795  0.33641  0.43347  1.0000
  S   S529      1.0  0.73144  0.39830  0.24789  1.0000
  Fe  Fe268     1.0  0.73951  0.35765  0.99968  1.0000
  C   C3932     1.0  0.72559  0.58797  0.30285  1.0000
  H   H3128     1.0  0.72787  0.34206  0.33117  1.0000
  H   H3129     1.0  0.73552  0.37450  0.37959  1.0000
  H   H3130     1.0  0.69193  0.35777  0.10170  1.0000
  H   H3131     1.0  0.72933  0.62852  0.19127  1.0000
  C   C3933     1.0  0.72731  0.44900  0.03576  1.0000
  S   S530      1.0  0.73991  0.38560  0.98848  1.0000
  C   C3934     1.0  0.69984  0.63395  0.22187  1.0000
  C   C3935     1.0  0.72445  0.33046  0.17091  1.0000
  C   C3936     1.0  0.72937  0.58849  0.20677  1.0000
  C   C3937     1.0  0.72617  0.52553  0.31627  1.0000
  C   C3938     1.0  0.72539  0.64118  0.18357  1.0000
  C   C3939     1.0  0.72874  0.38712  0.18777  1.0000
  H   H3132     1.0  0.73252  0.53614  0.31479  1.0000
  H   H3133     1.0  0.72169  0.32368  0.18421  1.0000
  C   C3940     1.0  0.60015  0.63644  0.12293  1.0000
  C   C3941     1.0  0.61453  0.33900  0.42457  1.0000
  H   H3134     1.0  0.66044  0.37058  0.98143  1.0000
  C   C3942     1.0  0.50139  0.56124  0.27539  1.0000
  C   C3943     1.0  0.73105  0.34568  0.16664  1.0000
  C   C3944     1.0  0.73913  0.37498  0.17791  1.0000
  P   P131      1.0  0.69179  0.63924  0.20208  1.0000
  H   H3135     1.0  0.74357  0.55880  0.08800  1.0000
  C   C3945     1.0  0.58974  0.33914  0.04335  1.0000
  H   H3136     1.0  0.74223  0.44969  0.00976  1.0000
  S   S531      1.0  0.72817  0.35359  0.97904  1.0000
  C   C3946     1.0  0.72627  0.35460  0.07918  1.0000
  H   H3137     1.0  0.74003  0.46782  0.27586  1.0000
  H   H3138     1.0  0.56941  0.35657  0.00925  1.0000
  C   C3947     1.0  0.65922  0.32547  0.08390  1.0000
  C   C3948     1.0  0.66496  0.31948  0.31040  1.0000
  H   H3139     1.0  0.73010  0.36558  0.08127  1.0000
  S   S532      1.0  0.74152  0.47881  0.10899  1.0000
  H   H3140     1.0  0.72821  0.53179  0.25942  1.0000
  C   C3949     1.0  0.73291  0.34656  0.13628  1.0000
  H   H3141     1.0  0.73618  0.33490  0.21996  1.0000
  H   H3142     1.0  0.62340  0.64588  0.12055  1.0000
  C   C3950     1.0  0.73890  0.56954  0.18624  1.0000
  H   H3143     1.0  0.73578  0.33714  0.10087  1.0000
  C   C3951     1.0  0.73804  0.64881  0.17107  1.0000
  H   H3144     1.0  0.74071  0.60202  0.31032  1.0000
  S   S533      1.0  0.74134  0.32360  0.36198  1.0000
  C   C3952     1.0  0.74145  0.49037  0.17831  1.0000
  H   H3145     1.0  0.74121  0.42407  0.26577  1.0000
  C   C3953     1.0  0.74092  0.57162  0.28062  1.0000
  H   H3146     1.0  0.74160  0.61587  0.22339  1.0000
  H   H3147     1.0  0.74301  0.54259  0.23046  1.0000
  C   C3954     1.0  0.74134  0.48293  0.37643  1.0000
  H   H3148     1.0  0.62258  0.31708  0.02070  1.0000
  S   S534      1.0  0.74007  0.31743  0.85406  1.0000
  C   C3955     1.0  0.62428  0.38287  0.89541  1.0000
  H   H3149     1.0  0.69931  0.33842  0.92600  1.0000
  C   C3956     1.0  0.68473  0.37092  0.88599  1.0000
  H   H3150     1.0  0.66157  0.32880  0.94993  1.0000
  C   C3957     1.0  0.68665  0.36633  0.87005  1.0000
  P   P132      1.0  0.67289  0.35928  0.90540  1.0000
  C   C3958     1.0  0.69617  0.37492  0.85502  1.0000
  C   C3959     1.0  0.73708  0.35254  0.91503  1.0000
  C   C3960     1.0  0.70367  0.38830  0.85575  1.0000
  H   H3151     1.0  0.71140  0.39467  0.84418  1.0000
  H   H3152     1.0  0.73622  0.40177  0.90385  1.0000
  H   H3153     1.0  0.69119  0.38819  0.89865  1.0000
  H   H3154     1.0  0.67154  0.39126  0.94976  1.0000
  C   C3961     1.0  0.55562  0.33115  0.85944  1.0000
  H   H3155     1.0  0.64385  0.35552  0.93492  1.0000
  Fe  Fe269     1.0  0.72634  0.38189  0.96898  1.0000
  H   H3156     1.0  0.70852  0.34328  0.95048  1.0000
  H   H3157     1.0  0.59932  0.38289  0.91291  1.0000
  C   C3962     1.0  0.73704  0.37936  0.89411  1.0000
  C   C3963     1.0  0.64214  0.35797  0.97646  1.0000
  H   H3158     1.0  0.65128  0.33355  0.90939  1.0000
  C   C3964     1.0  0.52510  0.32865  0.74475  1.0000
  C   C3965     1.0  0.67743  0.37971  0.94453  1.0000
  H   H3159     1.0  0.52910  0.33631  0.73208  1.0000
  H   H3160     1.0  0.61207  0.36545  0.93804  1.0000
  C   C3966     1.0  0.69214  0.38451  0.88658  1.0000
  C   C3967     1.0  0.69294  0.34995  0.93101  1.0000
  H   H3161     1.0  0.52753  0.33830  0.86304  1.0000
  C   C3968     1.0  0.67812  0.33687  0.90361  1.0000
  C   C3969     1.0  0.66490  0.32769  0.90586  1.0000
  H   H3162     1.0  0.70598  0.33579  0.89627  1.0000
  H   H3163     1.0  0.69808  0.37095  0.84287  1.0000
  C   C3970     1.0  0.73654  0.38802  0.90708  1.0000
  C   C3971     1.0  0.63858  0.36324  0.92378  1.0000
  C   C3972     1.0  0.71723  0.31982  0.49260  1.0000
  C   C3973     1.0  0.67959  0.36205  0.92386  1.0000
  C   C3974     1.0  0.72025  0.32301  0.52042  1.0000
  H   H3164     1.0  0.68113  0.35583  0.86929  1.0000
  C   C3975     1.0  0.64238  0.37722  0.89352  1.0000
  C   C3976     1.0  0.62052  0.36885  0.92561  1.0000
  H   H3165     1.0  0.69491  0.36956  0.96231  1.0000
  C   C3977     1.0  0.67183  0.37695  0.93078  1.0000
  C   C3978     1.0  0.50206  0.32027  0.76849  1.0000
  C   C3979     1.0  0.69831  0.35267  0.94491  1.0000
  H   H3166     1.0  0.66165  0.38659  0.92537  1.0000
  C   C3980     1.0  0.61335  0.37865  0.91144  1.0000
  C   C3981     1.0  0.70154  0.39316  0.87149  1.0000
  C   C3982     1.0  0.64965  0.36735  0.90771  1.0000
  C   C3983     1.0  0.69064  0.36755  0.95159  1.0000
  C   C3984     1.0  0.69560  0.32879  0.89868  1.0000
  H   H3167     1.0  0.51313  0.32015  0.69368  1.0000
  H   H3168     1.0  0.65061  0.38051  0.88098  1.0000
  H   H3169     1.0  0.61870  0.39043  0.88443  1.0000
  H   H3170     1.0  0.72664  0.32773  0.52789  1.0000
  H   H3171     1.0  0.73704  0.38654  0.88102  1.0000
  C   C3985     1.0  0.73642  0.36136  0.92815  1.0000
  H   H3172     1.0  0.49787  0.33945  0.74550  1.0000
  C   C3986     1.0  0.67075  0.31661  0.95186  1.0000
  H   H3173     1.0  0.70764  0.40330  0.87213  1.0000
  S   S535      1.0  0.73511  0.35236  0.88128  1.0000
  H   H3174     1.0  0.55758  0.34404  0.85304  1.0000
  C   C3987     1.0  0.53870  0.32797  0.86515  1.0000
  H   H3175     1.0  0.73586  0.35451  0.94133  1.0000
  C   C3988     1.0  0.73586  0.37922  0.92424  1.0000
  C   C3989     1.0  0.50741  0.33045  0.75238  1.0000
  C   C3990     1.0  0.72549  0.32583  0.50236  1.0000
  H   H3176     1.0  0.68520  0.32541  0.96553  1.0000
  H   H3177     1.0  0.73677  0.33894  0.91826  1.0000
  C   C3991     1.0  0.73723  0.36163  0.89792  1.0000
  S   S536      1.0  0.73431  0.39133  0.94005  1.0000
  H   H3178     1.0  0.58300  0.32045  0.85795  1.0000
  S   S537      1.0  0.61887  0.34170  0.97034  1.0000
  H   H3179     1.0  0.63528  0.36969  0.96942  1.0000
  C   C3992     1.0  0.53750  0.31658  0.75314  1.0000
  C   C3993     1.0  0.56998  0.31775  0.86213  1.0000
  H   H3180     1.0  0.73581  0.33280  0.49604  1.0000
  C   C3994     1.0  0.49584  0.31651  0.71857  1.0000
  Fe  Fe270     1.0  0.58326  0.71554  0.25238  1.0000
  S   S538      1.0  0.58744  0.70389  0.27938  1.0000
  S   S539      1.0  0.57609  0.74391  0.24193  1.0000
  Fe  Fe271     1.0  0.58802  0.68104  0.24313  1.0000
  S   S540      1.0  0.59252  0.66605  0.26912  1.0000
  S   S541      1.0  0.59006  0.66826  0.22127  1.0000
  Fe  Fe272     1.0  0.57026  0.68625  0.27931  1.0000
  S   S542      1.0  0.55012  0.67714  0.30222  1.0000
  Fe  Fe273     1.0  0.60926  0.68479  0.26698  1.0000
  S   S543      1.0  0.63600  0.67858  0.27320  1.0000
  S   S544      1.0  0.56423  0.69952  0.25335  1.0000
  S   S545      1.0  0.60657  0.69820  0.24005  1.0000
  Fe  Fe274     1.0  0.54022  0.81366  0.16795  1.0000
  S   S546      1.0  0.54094  0.83367  0.14342  1.0000
  S   S547      1.0  0.52033  0.81694  0.19224  1.0000
  Fe  Fe275     1.0  0.57244  0.79035  0.15314  1.0000
  S   S548      1.0  0.57605  0.80832  0.12720  1.0000
  S   S549      1.0  0.59060  0.76519  0.16057  1.0000
  Fe  Fe276     1.0  0.56979  0.82917  0.14282  1.0000
  S   S550      1.0  0.58396  0.85155  0.13726  1.0000
  Fe  Fe277     1.0  0.54692  0.81107  0.13020  1.0000
  S   S551      1.0  0.53207  0.81424  0.10876  1.0000
  S   S552      1.0  0.56836  0.81085  0.16832  1.0000
  S   S553      1.0  0.54402  0.79146  0.15505  1.0000
  C   C3995     1.0  0.70073  0.96956  0.16429  1.0000
  H   H3181     1.0  0.51436  0.66566  0.06681  1.0000
  S   S554      1.0  0.72171  0.85466  0.28866  1.0000
  Fe  Fe278     1.0  0.73010  0.89237  0.32563  1.0000
  S   S555      1.0  0.71334  0.89674  0.35155  1.0000
  S   S556      1.0  0.71964  0.89980  0.30120  1.0000
  Fe  Fe279     1.0  0.68745  0.89072  0.17282  1.0000
  S   S557      1.0  0.68330  0.86369  0.18496  1.0000
  S   S558      1.0  0.71415  0.89608  0.15860  1.0000
  Fe  Fe280     1.0  0.65181  0.90646  0.18985  1.0000
  S   S559      1.0  0.64473  0.88116  0.20391  1.0000
  S   S560      1.0  0.63427  0.93219  0.19227  1.0000
  Fe  Fe281     1.0  0.67174  0.87368  0.20941  1.0000
  S   S561      1.0  0.67641  0.85593  0.23477  1.0000
  Fe  Fe282     1.0  0.65644  0.87256  0.17872  1.0000
  S   S562      1.0  0.64463  0.85170  0.17439  1.0000
  S   S563      1.0  0.67762  0.89987  0.19786  1.0000
  S   S564      1.0  0.66176  0.89879  0.16401  1.0000
  C   C3996     1.0  0.51309  0.71058  0.17156  1.0000
  C   C3997     1.0  0.52162  0.68827  0.04849  1.0000
  S   S565      1.0  0.50466  0.90277  0.24939  1.0000
  H   H3182     1.0  0.49662  0.69333  0.23149  1.0000
  H   H3183     1.0  0.50159  0.80824  0.16876  1.0000
  C   C3998     1.0  0.51140  0.85873  0.21358  1.0000
  P   P133      1.0  0.51105  0.70332  0.06263  1.0000
  H   H3184     1.0  0.61231  0.96885  0.14796  1.0000
  H   H3185     1.0  0.54258  0.82594  0.22330  1.0000
  C   C3999     1.0  0.58256  0.95357  0.37890  1.0000
  C   C4000     1.0  0.66395  0.77729  0.21402  1.0000
  C   C4001     1.0  0.52545  0.70807  0.30095  1.0000
  S   S566      1.0  0.70021  0.95793  0.39138  1.0000
  H   H3186     1.0  0.68910  0.92686  0.14653  1.0000
  C   C4002     1.0  0.52063  0.71617  0.08635  1.0000
  H   H3187     1.0  0.54542  0.73668  0.22382  1.0000
  S   S567      1.0  0.61705  0.93973  0.27013  1.0000
  C   C4003     1.0  0.57497  0.84870  0.20979  1.0000
  S   S568      1.0  0.52612  0.88720  0.20666  1.0000
  H   H3188     1.0  0.66111  0.87590  0.33861  1.0000
  Fe  Fe283     1.0  0.50245  0.89889  0.22400  1.0000
  C   C4004     1.0  0.72322  0.83743  0.21743  1.0000
  C   C4005     1.0  0.50284  0.87578  0.15692  1.0000
  C   C4006     1.0  0.53243  0.96220  0.24720  1.0000
  C   C4007     1.0  0.52948  0.65916  0.04288  1.0000
  C   C4008     1.0  0.54462  0.84608  0.23499  1.0000
  C   C4009     1.0  0.49974  0.71232  0.32397  1.0000
  C   C4010     1.0  0.51333  0.89644  0.16619  1.0000
  C   C4011     1.0  0.67088  0.96911  0.36027  1.0000
  H   H3189     1.0  0.55916  0.71370  0.09732  1.0000
  H   H3190     1.0  0.66809  0.65299  0.23194  1.0000
  C   C4012     1.0  0.61591  0.85488  0.21637  1.0000
  C   C4013     1.0  0.58609  0.89499  0.16849  1.0000
  H   H3191     1.0  0.57012  0.87953  0.18801  1.0000
  H   H3192     1.0  0.69811  0.90062  0.38582  1.0000
  C   C4014     1.0  0.60158  0.86194  0.22802  1.0000
  C   C4015     1.0  0.52925  0.83945  0.28304  1.0000
  C   C4016     1.0  0.56534  0.83650  0.21049  1.0000
  C   C4017     1.0  0.55020  0.83515  0.22311  1.0000
  C   C4018     1.0  0.62970  0.93444  0.21381  1.0000
  C   C4019     1.0  0.62313  0.95078  0.21796  1.0000
  C   C4020     1.0  0.61936  0.95257  0.23524  1.0000
  C   C4021     1.0  0.62183  0.93796  0.24840  1.0000
  C   C4022     1.0  0.62831  0.92164  0.24419  1.0000
  C   C4023     1.0  0.63246  0.91991  0.22692  1.0000
  H   H3193     1.0  0.62085  0.96200  0.20783  1.0000
  C   C4024     1.0  0.65737  0.88657  0.34531  1.0000
  H   H3194     1.0  0.63004  0.91028  0.25427  1.0000
  H   H3195     1.0  0.63757  0.90727  0.22385  1.0000
  C   C4025     1.0  0.70988  0.85642  0.27250  1.0000
  C   C4026     1.0  0.70481  0.87185  0.26096  1.0000
  C   C4027     1.0  0.69501  0.87205  0.24871  1.0000
  C   C4028     1.0  0.69001  0.85689  0.24831  1.0000
  C   C4029     1.0  0.69518  0.84166  0.25985  1.0000
  C   C4030     1.0  0.70518  0.84138  0.27164  1.0000
  H   H3196     1.0  0.70804  0.88359  0.26179  1.0000
  H   H3197     1.0  0.69085  0.88395  0.24002  1.0000
  H   H3198     1.0  0.69135  0.82993  0.25974  1.0000
  H   H3199     1.0  0.70898  0.82944  0.28046  1.0000
  C   C4031     1.0  0.71062  0.91434  0.36163  1.0000
  C   C4032     1.0  0.71581  0.92996  0.35294  1.0000
  C   C4033     1.0  0.71209  0.94385  0.36162  1.0000
  C   C4034     1.0  0.70390  0.94181  0.37916  1.0000
  C   C4035     1.0  0.69903  0.92612  0.38773  1.0000
  C   C4036     1.0  0.70214  0.91260  0.37899  1.0000
  H   H3200     1.0  0.72261  0.93130  0.33963  1.0000
  H   H3201     1.0  0.71597  0.95591  0.35497  1.0000
  H   H3202     1.0  0.69272  0.92441  0.40124  1.0000
  H   H3203     1.0  0.58450  0.91714  0.25393  1.0000
  C   C4037     1.0  0.59973  0.85229  0.14873  1.0000
  C   C4038     1.0  0.60334  0.83970  0.16325  1.0000
  C   C4039     1.0  0.61665  0.84012  0.17135  1.0000
  C   C4040     1.0  0.62635  0.85329  0.16527  1.0000
  C   C4041     1.0  0.62225  0.86632  0.15121  1.0000
  C   C4042     1.0  0.60906  0.86576  0.14295  1.0000
  H   H3204     1.0  0.59614  0.82941  0.16803  1.0000
  H   H3205     1.0  0.61958  0.83001  0.18223  1.0000
  H   H3206     1.0  0.62969  0.87643  0.14626  1.0000
  H   H3207     1.0  0.60634  0.87561  0.13178  1.0000
  C   C4043     1.0  0.52130  0.83668  0.19624  1.0000
  C   C4044     1.0  0.60654  0.93153  0.38825  1.0000
  H   H3208     1.0  0.73511  0.84201  0.23596  1.0000
  C   C4045     1.0  0.52393  0.86787  0.20278  1.0000
  C   C4046     1.0  0.53520  0.86133  0.18887  1.0000
  C   C4047     1.0  0.53381  0.84584  0.18555  1.0000
  H   H3209     1.0  0.64664  0.81667  0.19202  1.0000
  C   C4048     1.0  0.54281  0.94557  0.19964  1.0000
  H   H3210     1.0  0.54507  0.86820  0.18062  1.0000
  H   H3211     1.0  0.54269  0.84096  0.17483  1.0000
  C   C4049     1.0  0.52135  0.79963  0.10455  1.0000
  C   C4050     1.0  0.52590  0.78174  0.11021  1.0000
  C   C4051     1.0  0.51849  0.77056  0.10483  1.0000
  Fe  Fe284     1.0  0.50353  0.66570  0.16216  1.0000
  C   C4052     1.0  0.66192  0.65742  0.22084  1.0000
  C   C4053     1.0  0.64867  0.65743  0.27556  1.0000
  H   H3212     1.0  0.53553  0.77657  0.11822  1.0000
  H   H3213     1.0  0.52262  0.75676  0.10862  1.0000
  H   H3214     1.0  0.71216  0.96224  0.25361  1.0000
  H   H3215     1.0  0.62124  0.96388  0.35666  1.0000
  C   C4054     1.0  0.53895  0.68271  0.02070  1.0000
  H   H3216     1.0  0.54694  0.65627  0.19601  1.0000
  C   C4055     1.0  0.49987  0.77743  0.15853  1.0000
  H   H3217     1.0  0.68711  0.92956  0.19694  1.0000
  Fe  Fe285     1.0  0.51052  0.65344  0.19832  1.0000
  H   H3218     1.0  0.64040  0.71124  0.21435  1.0000
  H   H3219     1.0  0.64215  0.84006  0.21293  1.0000
  C   C4056     1.0  0.57969  0.74897  0.21929  1.0000
  C   C4057     1.0  0.56899  0.76333  0.21113  1.0000
  C   C4058     1.0  0.57197  0.76793  0.19310  1.0000
  C   C4059     1.0  0.58601  0.75852  0.18310  1.0000
  C   C4060     1.0  0.59666  0.74404  0.19120  1.0000
  C   C4061     1.0  0.59340  0.73921  0.20929  1.0000
  H   H3220     1.0  0.55830  0.77089  0.21872  1.0000
  H   H3221     1.0  0.56326  0.77870  0.18700  1.0000
  H   H3222     1.0  0.60754  0.73672  0.18352  1.0000
  H   H3223     1.0  0.60187  0.72828  0.21543  1.0000
  C   C4062     1.0  0.66932  0.81120  0.20301  1.0000
  H   H3224     1.0  0.68360  0.88543  0.34769  1.0000
  H   H3225     1.0  0.52610  0.66872  0.28282  1.0000
  S   S569      1.0  0.50657  0.95217  0.23803  1.0000
  H   H3226     1.0  0.58452  0.65440  0.15186  1.0000
  H   H3227     1.0  0.54583  0.68740  0.00779  1.0000
  C   C4063     1.0  0.64767  0.91395  0.36307  1.0000
  C   C4064     1.0  0.53093  0.69127  0.31000  1.0000
  H   H3228     1.0  0.49464  0.68479  0.26416  1.0000
  C   C4065     1.0  0.50761  0.95747  0.27017  1.0000
  C   C4066     1.0  0.59936  0.90431  0.16472  1.0000
  C   C4067     1.0  0.65214  0.96599  0.15640  1.0000
  H   H3229     1.0  0.53326  0.71292  0.28865  1.0000
  C   C4068     1.0  0.63212  0.75211  0.22145  1.0000
  C   C4069     1.0  0.49527  0.73784  0.15001  1.0000
  C   C4070     1.0  0.73310  0.92100  0.14137  1.0000
  C   C4071     1.0  0.71639  0.91708  0.14682  1.0000
  C   C4072     1.0  0.70202  0.92977  0.14253  1.0000
  C   C4073     1.0  0.51619  0.88409  0.15618  1.0000
  H   H3230     1.0  0.57010  0.69750  0.07355  1.0000
  H   H3231     1.0  0.53895  0.69392  0.14551  1.0000
  H   H3232     1.0  0.53247  0.84546  0.24428  1.0000
  H   H3233     1.0  0.54476  0.65628  0.01763  1.0000
  H   H3234     1.0  0.51986  0.69975  0.17978  1.0000
  C   C4074     1.0  0.52235  0.95100  0.18061  1.0000
  C   C4075     1.0  0.64478  0.66880  0.19300  1.0000
  C   C4076     1.0  0.63656  0.67337  0.20890  1.0000
  C   C4077     1.0  0.64511  0.66763  0.22282  1.0000
  C   C4078     1.0  0.53835  0.66519  0.02623  1.0000
  H   H3235     1.0  0.72529  0.85951  0.17589  1.0000
  P   P134      1.0  0.58245  0.87522  0.22044  1.0000
  C   C4079     1.0  0.71738  0.91592  0.23912  1.0000
  C   C4080     1.0  0.54939  0.65932  0.20714  1.0000
  H   H3236     1.0  0.63806  0.67318  0.18228  1.0000
  H   H3237     1.0  0.62346  0.68117  0.21047  1.0000
  H   H3238     1.0  0.63870  0.67098  0.23526  1.0000
  C   C4081     1.0  0.58357  0.80525  0.23631  1.0000
  H   H3239     1.0  0.63036  0.94824  0.40408  1.0000
  H   H3240     1.0  0.70861  0.92674  0.24415  1.0000
  C   C4082     1.0  0.60703  0.90522  0.17791  1.0000
  H   H3241     1.0  0.58025  0.89410  0.15825  1.0000
  H   H3242     1.0  0.59059  0.86226  0.25505  1.0000
  H   H3243     1.0  0.52725  0.72593  0.10528  1.0000
  H   H3244     1.0  0.58529  0.64985  0.31721  1.0000
  C   C4083     1.0  0.70834  0.94012  0.17974  1.0000
  C   C4084     1.0  0.63082  0.84467  0.22218  1.0000
  H   H3245     1.0  0.60384  0.91062  0.15154  1.0000
  C   C4085     1.0  0.61679  0.84736  0.25152  1.0000
  C   C4086     1.0  0.59942  0.78559  0.21727  1.0000
  C   C4087     1.0  0.55607  0.66695  0.23604  1.0000
  H   H3246     1.0  0.50684  0.72163  0.08992  1.0000
  C   C4088     1.0  0.56946  0.66500  0.22160  1.0000
  H   H3247     1.0  0.62755  0.75895  0.23202  1.0000
  C   C4089     1.0  0.51536  0.84088  0.29714  1.0000
  H   H3248     1.0  0.69133  0.80225  0.21551  1.0000
  H   H3249     1.0  0.49899  0.82721  0.31840  1.0000
  H   H3250     1.0  0.61105  0.91935  0.39644  1.0000
  H   H3251     1.0  0.49960  0.65612  0.29460  1.0000
  H   H3252     1.0  0.67139  0.82436  0.19860  1.0000
  H   H3253     1.0  0.57936  0.93086  0.39866  1.0000
  H   H3254     1.0  0.68880  0.97052  0.23660  1.0000
  H   H3255     1.0  0.64085  0.94862  0.14879  1.0000
  H   H3256     1.0  0.53129  0.70776  0.02733  1.0000
  C   C4090     1.0  0.64195  0.75192  0.19088  1.0000
  C   C4091     1.0  0.67805  0.87231  0.30305  1.0000
  C   C4092     1.0  0.66908  0.86604  0.29420  1.0000
  C   C4093     1.0  0.65807  0.87755  0.28383  1.0000
  C   C4094     1.0  0.65593  0.89533  0.28245  1.0000
  C   C4095     1.0  0.66514  0.90177  0.29102  1.0000
  C   C4096     1.0  0.67616  0.89010  0.30144  1.0000
  P   P135      1.0  0.66174  0.92481  0.28942  1.0000
  C   C4097     1.0  0.66175  0.93619  0.26735  1.0000
  C   C4098     1.0  0.64121  0.93195  0.30332  1.0000
  C   C4099     1.0  0.63823  0.94756  0.30884  1.0000
  C   C4100     1.0  0.62288  0.95280  0.32030  1.0000
  C   C4101     1.0  0.61019  0.94272  0.32619  1.0000
  C   C4102     1.0  0.61283  0.92732  0.32053  1.0000
  C   C4103     1.0  0.62832  0.92188  0.30924  1.0000
  C   C4104     1.0  0.65452  0.95392  0.26387  1.0000
  C   C4105     1.0  0.65401  0.96276  0.24693  1.0000
  C   C4106     1.0  0.66079  0.95402  0.23327  1.0000
  C   C4107     1.0  0.66831  0.93644  0.23657  1.0000
  C   C4108     1.0  0.66915  0.92761  0.25349  1.0000
  C   C4109     1.0  0.67840  0.93045  0.29683  1.0000
  C   C4110     1.0  0.69109  0.93897  0.28523  1.0000
  C   C4111     1.0  0.70320  0.94411  0.29145  1.0000
  C   C4112     1.0  0.70293  0.94052  0.30914  1.0000
  C   C4113     1.0  0.69043  0.93196  0.32070  1.0000
  C   C4114     1.0  0.67813  0.92708  0.31459  1.0000
  H   H3257     1.0  0.68695  0.86336  0.31072  1.0000
  H   H3258     1.0  0.67107  0.85226  0.29499  1.0000
  H   H3259     1.0  0.65142  0.87271  0.27664  1.0000
  H   H3260     1.0  0.64708  0.90414  0.27467  1.0000
  H   H3261     1.0  0.68339  0.89458  0.30828  1.0000
  H   H3262     1.0  0.64784  0.95567  0.30447  1.0000
  H   H3263     1.0  0.50555  0.73153  0.30095  1.0000
  H   H3264     1.0  0.59811  0.94713  0.33474  1.0000
  H   H3265     1.0  0.60273  0.91979  0.32459  1.0000
  H   H3266     1.0  0.62989  0.91005  0.30489  1.0000
  H   H3267     1.0  0.64873  0.96086  0.27423  1.0000
  S   S570      1.0  0.51441  0.66149  0.22119  1.0000
  H   H3268     1.0  0.67524  0.90989  0.36269  1.0000
  H   H3269     1.0  0.67289  0.92949  0.22612  1.0000
  H   H3270     1.0  0.67522  0.91403  0.25567  1.0000
  H   H3271     1.0  0.69173  0.94159  0.27146  1.0000
  H   H3272     1.0  0.71312  0.95051  0.28260  1.0000
  H   H3273     1.0  0.71262  0.94410  0.31382  1.0000
  H   H3274     1.0  0.69030  0.92905  0.33442  1.0000
  H   H3275     1.0  0.66835  0.92069  0.32367  1.0000
  C   C4115     1.0  0.51728  0.75191  0.32010  1.0000
  C   C4116     1.0  0.52972  0.74248  0.32989  1.0000
  C   C4117     1.0  0.54603  0.74692  0.32631  1.0000
  C   C4118     1.0  0.54995  0.76070  0.31283  1.0000
  C   C4119     1.0  0.53763  0.76995  0.30263  1.0000
  C   C4120     1.0  0.52121  0.76553  0.30646  1.0000
  P   P136      1.0  0.54280  0.78722  0.28462  1.0000
  C   C4121     1.0  0.53229  0.80818  0.28985  1.0000
  C   C4122     1.0  0.56628  0.78483  0.27913  1.0000
  C   C4123     1.0  0.57467  0.79535  0.28412  1.0000
  C   C4124     1.0  0.59464  0.76919  0.26671  1.0000
  C   C4125     1.0  0.57646  0.77152  0.27076  1.0000
  C   C4126     1.0  0.53771  0.82318  0.27941  1.0000
  C   C4127     1.0  0.51839  0.80976  0.30407  1.0000
  C   C4128     1.0  0.53570  0.78445  0.26630  1.0000
  C   C4129     1.0  0.53618  0.76779  0.26412  1.0000
  C   C4130     1.0  0.53072  0.76557  0.25003  1.0000
  C   C4131     1.0  0.52481  0.77992  0.23793  1.0000
  C   C4132     1.0  0.52435  0.79650  0.23992  1.0000
  C   C4133     1.0  0.52973  0.79879  0.25404  1.0000
  C   C4134     1.0  0.62265  0.97264  0.15144  1.0000
  H   H3276     1.0  0.52670  0.73166  0.34015  1.0000
  H   H3277     1.0  0.55570  0.73956  0.33387  1.0000
  H   H3278     1.0  0.56269  0.76385  0.31028  1.0000
  H   H3279     1.0  0.51149  0.77250  0.29881  1.0000
  H   H3280     1.0  0.60223  0.75896  0.26001  1.0000
  H   H3281     1.0  0.57038  0.76282  0.26740  1.0000
  H   H3282     1.0  0.54829  0.82230  0.26830  1.0000
  H   H3283     1.0  0.51359  0.79856  0.31213  1.0000
  H   H3284     1.0  0.54096  0.75644  0.27318  1.0000
  H   H3285     1.0  0.49502  0.72102  0.11938  1.0000
  H   H3286     1.0  0.52072  0.77826  0.22689  1.0000
  H   H3287     1.0  0.51971  0.80757  0.23052  1.0000
  H   H3288     1.0  0.52887  0.81177  0.25541  1.0000
  H   H3289     1.0  0.59732  0.82374  0.23839  1.0000
  C   C4135     1.0  0.60182  0.85753  0.24575  1.0000
  C   C4136     1.0  0.51294  0.73672  0.14947  1.0000
  C   C4137     1.0  0.54966  0.71659  0.20961  1.0000
  H   H3290     1.0  0.61580  0.85763  0.20271  1.0000
  C   C4138     1.0  0.58423  0.79167  0.22854  1.0000
  H   H3291     1.0  0.62405  0.81323  0.21868  1.0000
  C   C4139     1.0  0.63140  0.84114  0.23969  1.0000
  H   H3292     1.0  0.64327  0.83380  0.24400  1.0000
  H   H3293     1.0  0.61722  0.84458  0.26511  1.0000
  H   H3294     1.0  0.61734  0.91242  0.17504  1.0000
  C   C4140     1.0  0.58064  0.88638  0.18540  1.0000
  H   H3295     1.0  0.71786  0.92829  0.18210  1.0000
  P   P137      1.0  0.54480  0.72122  0.15981  1.0000
  C   C4141     1.0  0.54514  0.72605  0.18009  1.0000
  C   C4142     1.0  0.53983  0.74315  0.18255  1.0000
  C   C4143     1.0  0.53976  0.74695  0.19833  1.0000
  C   C4144     1.0  0.63875  0.96126  0.15181  1.0000
  C   C4145     1.0  0.61858  0.94066  0.37635  1.0000
  H   H3296     1.0  0.57181  0.80986  0.24508  1.0000
  C   C4146     1.0  0.55463  0.73551  0.14127  1.0000
  C   C4147     1.0  0.55272  0.73517  0.12477  1.0000
  C   C4148     1.0  0.56031  0.74599  0.11014  1.0000
  C   C4149     1.0  0.57010  0.75705  0.11189  1.0000
  C   C4150     1.0  0.57253  0.75708  0.12822  1.0000
  C   C4151     1.0  0.56498  0.74624  0.14287  1.0000
  H   H3297     1.0  0.52497  0.93010  0.16770  1.0000
  H   H3298     1.0  0.53594  0.75357  0.17219  1.0000
  H   H3299     1.0  0.50054  0.83595  0.21877  1.0000
  H   H3300     1.0  0.65349  0.81299  0.13900  1.0000
  P   P138      1.0  0.63404  0.78434  0.19982  1.0000
  H   H3301     1.0  0.54510  0.72668  0.12336  1.0000
  H   H3302     1.0  0.55821  0.74618  0.09750  1.0000
  H   H3303     1.0  0.57565  0.76577  0.10064  1.0000
  H   H3304     1.0  0.58024  0.76559  0.12952  1.0000
  H   H3305     1.0  0.56737  0.74624  0.15531  1.0000
  C   C4152     1.0  0.71584  0.67388  0.16353  1.0000
  C   C4153     1.0  0.61415  0.79299  0.21374  1.0000
  H   H3306     1.0  0.55646  0.66519  0.14188  1.0000
  H   H3307     1.0  0.52494  0.67221  0.33295  1.0000
  C   C4154     1.0  0.69094  0.94071  0.18799  1.0000
  C   C4155     1.0  0.67001  0.89188  0.35050  1.0000
  C   C4156     1.0  0.51004  0.82604  0.30772  1.0000
  C   C4157     1.0  0.51009  0.84309  0.21033  1.0000
  H   H3308     1.0  0.72674  0.95405  0.16146  1.0000
  C   C4158     1.0  0.52074  0.68510  0.32587  1.0000
  H   H3309     1.0  0.59975  0.77490  0.21154  1.0000
  H   H3310     1.0  0.66477  0.95541  0.19031  1.0000
  C   C4159     1.0  0.60170  0.89652  0.19479  1.0000
  H   H3311     1.0  0.59732  0.89351  0.23808  1.0000
  H   H3312     1.0  0.60781  0.89731  0.20485  1.0000
  C   C4160     1.0  0.50066  0.79504  0.08954  1.0000
  H   H3313     1.0  0.51446  0.71040  0.20752  1.0000
  H   H3314     1.0  0.74312  0.67104  0.15133  1.0000
  H   H3315     1.0  0.71227  0.83592  0.19657  1.0000
  C   C4161     1.0  0.53228  0.71867  0.09505  1.0000
  C   C4162     1.0  0.60287  0.78007  0.27116  1.0000
  H   H3316     1.0  0.50308  0.86343  0.22470  1.0000
  H   H3317     1.0  0.54961  0.69297  0.05811  1.0000
  C   C4163     1.0  0.58875  0.88670  0.19860  1.0000
  C   C4164     1.0  0.63625  0.76113  0.20434  1.0000
  C   C4165     1.0  0.52208  0.72283  0.15997  1.0000
  H   H3318     1.0  0.57667  0.65895  0.19624  1.0000
  H   H3319     1.0  0.49881  0.76685  0.04182  1.0000
  C   C4166     1.0  0.67834  0.95546  0.18420  1.0000
  C   C4167     1.0  0.52724  0.65481  0.28657  1.0000
  C   C4168     1.0  0.59797  0.81299  0.23260  1.0000
  C   C4169     1.0  0.70231  0.96687  0.23036  1.0000
  C   C4170     1.0  0.64546  0.79995  0.16525  1.0000
  C   C4171     1.0  0.58341  0.89867  0.23963  1.0000
  H   H3320     1.0  0.70427  0.91873  0.21846  1.0000
  C   C4172     1.0  0.55011  0.71187  0.09050  1.0000
  C   C4173     1.0  0.67033  0.65290  0.20483  1.0000
  C   C4174     1.0  0.57625  0.91226  0.24845  1.0000
  H   H3321     1.0  0.59250  0.93633  0.20463  1.0000
  H   H3322     1.0  0.56725  0.80516  0.29138  1.0000
  C   C4175     1.0  0.63995  0.89513  0.34862  1.0000
  C   C4176     1.0  0.55729  0.70000  0.15731  1.0000
  H   H3323     1.0  0.73479  0.96448  0.38010  1.0000
  C   C4177     1.0  0.61317  0.80697  0.22130  1.0000
  C   C4178     1.0  0.70777  0.64960  0.18583  1.0000
  H   H3324     1.0  0.58975  0.97487  0.35887  1.0000
  C   C4179     1.0  0.55131  0.68957  0.14972  1.0000
  C   C4180     1.0  0.64350  0.80690  0.14818  1.0000
  C   C4181     1.0  0.67790  0.78179  0.21794  1.0000
  C   C4182     1.0  0.64604  0.92478  0.39606  1.0000
  H   H3325     1.0  0.53614  0.76024  0.19999  1.0000
  H   H3326     1.0  0.55293  0.93014  0.25703  1.0000
  C   C4183     1.0  0.55628  0.70270  0.07711  1.0000
  C   C4184     1.0  0.57278  0.89210  0.23270  1.0000
  C   C4185     1.0  0.55851  0.91969  0.25006  1.0000
  H   H3327     1.0  0.68665  0.77211  0.22525  1.0000
  C   C4186     1.0  0.57368  0.69421  0.16197  1.0000
  C   C4187     1.0  0.56624  0.66078  0.20729  1.0000
  C   C4188     1.0  0.54957  0.71273  0.19392  1.0000
  C   C4189     1.0  0.61732  0.79186  0.17203  1.0000
  C   C4190     1.0  0.52666  0.70690  0.07299  1.0000
  C   C4191     1.0  0.54460  0.70020  0.06834  1.0000
  C   C4192     1.0  0.58345  0.67778  0.16008  1.0000
  C   C4193     1.0  0.65369  0.91564  0.42929  1.0000
  H   H3328     1.0  0.55285  0.69932  0.19278  1.0000
  C   C4194     1.0  0.66522  0.90569  0.35909  1.0000
  H   H3329     1.0  0.66223  0.76408  0.21838  1.0000
  C   C4195     1.0  0.55019  0.92943  0.19532  1.0000
  H   H3330     1.0  0.71493  0.65269  0.24656  1.0000
  C   C4196     1.0  0.58695  0.95001  0.20371  1.0000
  H   H3331     1.0  0.58285  0.94872  0.23108  1.0000
  C   C4197     1.0  0.73293  0.95769  0.23190  1.0000
  H   H3332     1.0  0.63021  0.89122  0.34428  1.0000
  H   H3333     1.0  0.52337  0.96869  0.19602  1.0000
  C   C4198     1.0  0.71495  0.91141  0.22464  1.0000
  C   C4199     1.0  0.66151  0.65839  0.19102  1.0000
  H   H3334     1.0  0.63022  0.72730  0.23822  1.0000
  C   C4200     1.0  0.54800  0.91380  0.24253  1.0000
  C   C4201     1.0  0.55509  0.90007  0.23384  1.0000
  C   C4202     1.0  0.73546  0.93753  0.13199  1.0000
  C   C4203     1.0  0.63871  0.93586  0.40784  1.0000
  H   H3335     1.0  0.69338  0.95564  0.12883  1.0000
  C   C4204     1.0  0.73363  0.84564  0.22265  1.0000
  C   C4205     1.0  0.68057  0.79874  0.21246  1.0000
  C   C4206     1.0  0.73742  0.95784  0.21417  1.0000
  C   C4207     1.0  0.51636  0.95684  0.25313  1.0000
  C   C4208     1.0  0.56128  0.67327  0.14753  1.0000
  C   C4209     1.0  0.53970  0.96801  0.25815  1.0000
  P   P139      1.0  0.64166  0.93162  0.37442  1.0000
  C   C4210     1.0  0.56929  0.86001  0.22144  1.0000
  C   C4211     1.0  0.73819  0.86377  0.19408  1.0000
  H   H3336     1.0  0.50726  0.96526  0.29372  1.0000
  H   H3337     1.0  0.54971  0.86666  0.24363  1.0000
  H   H3338     1.0  0.66602  0.66418  0.28771  1.0000
  H   H3339     1.0  0.50465  0.74846  0.32294  1.0000
  C   C4212     1.0  0.62856  0.80620  0.14300  1.0000
  C   C4213     1.0  0.65531  0.80677  0.19921  1.0000
  C   C4214     1.0  0.63508  0.90877  0.35746  1.0000
  H   H3340     1.0  0.62153  0.91526  0.35970  1.0000
  C   C4215     1.0  0.59289  0.79309  0.27996  1.0000
  H   H3341     1.0  0.61696  0.77832  0.26789  1.0000
  H   H3342     1.0  0.70437  0.65958  0.21923  1.0000
  C   C4216     1.0  0.68310  0.96988  0.17207  1.0000
  Fe  Fe286     1.0  0.60274  0.96613  0.27469  1.0000
  H   H3343     1.0  0.54684  0.89602  0.22766  1.0000
  H   H3344     1.0  0.68978  0.67328  0.17776  1.0000
  H   H3345     1.0  0.72380  0.89393  0.20715  1.0000
  H   H3346     1.0  0.53437  0.92004  0.24331  1.0000
  H   H3347     1.0  0.58677  0.84943  0.19998  1.0000
  C   C4217     1.0  0.55423  0.85837  0.23430  1.0000
  H   H3348     1.0  0.54766  0.94960  0.20889  1.0000
  H   H3349     1.0  0.49700  0.93158  0.13128  1.0000
  H   H3350     1.0  0.51334  0.77863  0.15361  1.0000
  H   H3351     1.0  0.51361  0.67925  0.09560  1.0000
  C   C4218     1.0  0.52895  0.95633  0.19235  1.0000
  C   C4219     1.0  0.57716  0.66724  0.15304  1.0000
  H   H3352     1.0  0.50430  0.81115  0.13725  1.0000
  C   C4220     1.0  0.70447  0.94611  0.13256  1.0000
  H   H3353     1.0  0.50253  0.74072  0.19572  1.0000
  H   H3354     1.0  0.50842  0.85353  0.29962  1.0000
  C   C4221     1.0  0.50597  0.77712  0.09432  1.0000
  H   H3355     1.0  0.55869  0.66937  0.24743  1.0000
  H   H3356     1.0  0.66192  0.95250  0.38378  1.0000
  H   H3357     1.0  0.65691  0.91226  0.44199  1.0000
  C   C4222     1.0  0.49487  0.69410  0.07972  1.0000
  H   H3358     1.0  0.57882  0.70235  0.16726  1.0000
  C   C4223     1.0  0.53065  0.69422  0.03178  1.0000
  H   H3359     1.0  0.63720  0.94013  0.43320  1.0000
  C   C4224     1.0  0.66219  0.95599  0.37006  1.0000
  C   C4225     1.0  0.52976  0.93466  0.17654  1.0000
  H   H3360     1.0  0.49773  0.69066  0.34524  1.0000
  C   C4226     1.0  0.50976  0.71859  0.30791  1.0000
  H   H3361     1.0  0.56951  0.82819  0.20111  1.0000
  H   H3362     1.0  0.54881  0.91115  0.18106  1.0000
  H   H3363     1.0  0.52901  0.88036  0.14839  1.0000
  H   H3364     1.0  0.62688  0.81179  0.12984  1.0000
  C   C4227     1.0  0.52114  0.67064  0.05399  1.0000
  H   H3365     1.0  0.51234  0.74016  0.05913  1.0000
  C   C4228     1.0  0.65249  0.78978  0.20460  1.0000
  C   C4229     1.0  0.74146  0.85869  0.21093  1.0000
  C   C4230     1.0  0.54353  0.92392  0.18393  1.0000
  C   C4231     1.0  0.65422  0.94766  0.36205  1.0000
  C   C4232     1.0  0.63941  0.72511  0.21156  1.0000
  C   C4233     1.0  0.65697  0.90890  0.40125  1.0000
  H   H3366     1.0  0.56091  0.92109  0.20097  1.0000
  C   C4234     1.0  0.73112  0.90638  0.24718  1.0000
  C   C4235     1.0  0.72420  0.96312  0.20449  1.0000
  H   H3367     1.0  0.66278  0.89996  0.39266  1.0000
  H   H3368     1.0  0.59583  0.67324  0.16421  1.0000
  H   H3369     1.0  0.52400  0.90209  0.16634  1.0000
  C   C4236     1.0  0.66081  0.90441  0.41778  1.0000
  C   C4237     1.0  0.66396  0.96573  0.33438  1.0000
  C   C4238     1.0  0.65530  0.95254  0.34415  1.0000
  H   H3370     1.0  0.65976  0.96076  0.22022  1.0000
  C   C4239     1.0  0.61567  0.79838  0.15483  1.0000
  H   H3371     1.0  0.59929  0.80134  0.28366  1.0000
  H   H3372     1.0  0.60427  0.79756  0.15067  1.0000
  C   C4240     1.0  0.64348  0.73399  0.19450  1.0000
  C   C4241     1.0  0.50142  0.71644  0.21307  1.0000
  H   H3373     1.0  0.65738  0.80030  0.16868  1.0000
  C   C4242     1.0  0.71544  0.96214  0.23997  1.0000
  H   H3374     1.0  0.64927  0.94620  0.33787  1.0000
  C   C4243     1.0  0.50534  0.69557  0.33284  1.0000
  C   C4244     1.0  0.63210  0.79286  0.17749  1.0000
  C   C4245     1.0  0.72117  0.95014  0.12743  1.0000
  C   C4246     1.0  0.72611  0.89727  0.21828  1.0000
  H   H3375     1.0  0.60705  0.78597  0.18092  1.0000
  C   C4247     1.0  0.53581  0.66218  0.22125  1.0000
  C   C4248     1.0  0.71327  0.95460  0.16804  1.0000
  H   H3376     1.0  0.50572  0.86587  0.14941  1.0000
  H   H3377     1.0  0.61473  0.96523  0.23832  1.0000
  C   C4249     1.0  0.58152  0.95698  0.21861  1.0000
  S   S571      1.0  0.74158  0.86511  0.32196  1.0000
  H   H3378     1.0  0.66955  0.89230  0.42155  1.0000
  S   S572      1.0  0.58438  0.98242  0.25779  1.0000
  C   C4250     1.0  0.61239  0.95641  0.36586  1.0000
  H   H3379     1.0  0.56867  0.95857  0.37977  1.0000
  H   H3380     1.0  0.71682  0.82774  0.22668  1.0000
  C   C4251     1.0  0.50457  0.73925  0.05054  1.0000
  C   C4252     1.0  0.70311  0.66617  0.17592  1.0000
  H   H3381     1.0  0.64774  0.97624  0.24456  1.0000
  C   C4253     1.0  0.58860  0.93798  0.38951  1.0000
  H   H3382     1.0  0.59044  0.95535  0.17607  1.0000
  H   H3383     1.0  0.72565  0.96732  0.32457  1.0000
  S   S573      1.0  0.72401  0.97051  0.11432  1.0000
  C   C4254     1.0  0.72792  0.85539  0.18886  1.0000
  C   C4255     1.0  0.50164  0.72328  0.04963  1.0000
  C   C4256     1.0  0.58585  0.96081  0.18759  1.0000
  C   C4257     1.0  0.63369  0.73418  0.22502  1.0000
  S   S574      1.0  0.58333  0.96802  0.29942  1.0000
  C   C4258     1.0  0.53921  0.66577  0.23579  1.0000
  H   H3384     1.0  0.64504  0.75856  0.17757  1.0000
  H   H3385     1.0  0.57304  0.78565  0.23146  1.0000
  C   C4259     1.0  0.54490  0.73370  0.21178  1.0000
  C   C4260     1.0  0.64258  0.93132  0.42435  1.0000
  H   H3386     1.0  0.64759  0.72700  0.18404  1.0000
  H   H3387     1.0  0.72744  0.96450  0.19058  1.0000
  C   C4261     1.0  0.59445  0.96277  0.36712  1.0000
  H   H3388     1.0  0.69664  0.97158  0.20495  1.0000
  H   H3389     1.0  0.50481  0.82000  0.09000  1.0000
  H   H3390     1.0  0.53925  0.96204  0.23403  1.0000
  H   H3391     1.0  0.52880  0.66775  0.24683  1.0000
  C   C4262     1.0  0.53053  0.96960  0.27482  1.0000
  C   C4263     1.0  0.51453  0.96407  0.28085  1.0000
  C   C4264     1.0  0.72053  0.84216  0.20050  1.0000
  C   C4265     1.0  0.70670  0.96739  0.21259  1.0000
  Fe  Fe287     1.0  0.73329  0.87352  0.29626  1.0000
  H   H3392     1.0  0.51930  0.74669  0.14081  1.0000
  C   C4266     1.0  0.53285  0.98165  0.14960  1.0000
  H   H3393     1.0  0.67685  0.97550  0.36661  1.0000
  H   H3394     1.0  0.70241  0.97687  0.30727  1.0000
  H   H3395     1.0  0.66454  0.95699  0.15637  1.0000
  S   S575      1.0  0.50515  0.68830  0.14030  1.0000
  H   H3396     1.0  0.53143  0.75266  0.24837  1.0000
  H   H3397     1.0  0.62086  0.96476  0.32457  1.0000
  C   C4267     1.0  0.57922  0.97857  0.18637  1.0000
  H   H3398     1.0  0.53318  0.85102  0.27475  1.0000
  H   H3399     1.0  0.55356  0.70627  0.22002  1.0000
  C   C4268     1.0  0.49699  0.75456  0.04055  1.0000
  C   C4269     1.0  0.50850  0.80619  0.09441  1.0000
  H   H3400     1.0  0.66442  0.96970  0.32061  1.0000
  C   C4270     1.0  0.67183  0.97396  0.34245  1.0000
  H   H3401     1.0  0.71221  0.68663  0.15584  1.0000
  C   C4271     1.0  0.72385  0.98012  0.31650  1.0000
  C   C4272     1.0  0.49456  0.73371  0.20647  1.0000
  H   H3402     1.0  0.73296  0.90981  0.25848  1.0000
  H   H3403     1.0  0.51353  0.94792  0.14064  1.0000
  C   C4273     1.0  0.50010  0.68247  0.09429  1.0000
  H   H3404     1.0  0.50247  0.77003  0.18504  1.0000
  S   S576      1.0  0.49879  0.76258  0.08594  1.0000
  C   C4274     1.0  0.73995  0.88757  0.22634  1.0000
  H   H3405     1.0  0.61519  0.65328  0.19433  1.0000
  C   C4275     1.0  0.66304  0.65398  0.28338  1.0000
  H   H3406     1.0  0.55203  0.97206  0.25350  1.0000
  S   S577      1.0  0.52806  0.65547  0.17233  1.0000
  H   H3407     1.0  0.66760  0.65463  0.17873  1.0000
  C   C4276     1.0  0.49525  0.71216  0.17254  1.0000
  C   C4277     1.0  0.73328  0.66515  0.16103  1.0000
  C   C4278     1.0  0.74256  0.89247  0.24063  1.0000
  S   S578      1.0  0.53778  0.97994  0.28774  1.0000
  H   H3408     1.0  0.49891  0.83123  0.25650  1.0000
  C   C4279     1.0  0.49701  0.90074  0.17674  1.0000
  C   C4280     1.0  0.51629  0.97851  0.15055  1.0000
  C   C4281     1.0  0.57509  0.97472  0.21740  1.0000
  H   H3409     1.0  0.50148  0.71356  0.26058  1.0000
  H   H3410     1.0  0.74296  0.95455  0.23936  1.0000
  H   H3411     1.0  0.74302  0.92890  0.19747  1.0000
  P   P140      1.0  0.50561  0.96550  0.16975  1.0000
  C   C4282     1.0  0.49722  0.82180  0.14345  1.0000
  C   C4283     1.0  0.49558  0.82012  0.16119  1.0000
  H   H3412     1.0  0.49467  0.78948  0.43486  1.0000
  H   H3413     1.0  0.57156  0.97992  0.22897  1.0000
  H   H3414     1.0  0.50292  0.65301  0.33534  1.0000
  H   H3415     1.0  0.53968  0.97610  0.16015  1.0000
  C   C4284     1.0  0.50075  0.94623  0.14816  1.0000
  H   H3416     1.0  0.49498  0.91004  0.18479  1.0000
  H   H3417     1.0  0.49507  0.95373  0.27486  1.0000
  C   C4285     1.0  0.64936  0.98204  0.16107  1.0000
  H   H3418     1.0  0.70486  0.98062  0.15510  1.0000
  H   H3419     1.0  0.74321  0.87442  0.18500  1.0000
  H   H3420     1.0  0.74358  0.85713  0.25508  1.0000
  H   H3421     1.0  0.55519  0.64982  0.27986  1.0000
  H   H3422     1.0  0.50168  0.97860  0.62725  1.0000
  H   H3423     1.0  0.50640  0.98275  0.65469  1.0000
  H   H3424     1.0  0.85672  0.99503  0.40295  1.0000
  C   C4286     1.0  0.77796  0.29567  0.38950  1.0000
  H   H3425     1.0  0.75320  0.98808  0.26752  1.0000
  C   C4287     1.0  0.81469  0.27311  0.45214  1.0000
  H   H3426     1.0  0.78903  0.13105  0.45607  1.0000
  Fe  Fe288     1.0  0.83445  0.99627  0.21124  1.0000
  S   S579      1.0  0.84581  0.00903  0.22617  1.0000
  S   S580      1.0  0.82918  0.00989  0.18477  1.0000
  Fe  Fe289     1.0  0.82433  0.00145  0.24821  1.0000
  S   S581      1.0  0.80570  0.01711  0.26710  1.0000
  C   C4288     1.0  0.83432  0.98653  0.40088  1.0000
  Fe  Fe290     1.0  0.83021  0.20545  0.99462  1.0000
  S   S582      1.0  0.83927  0.22622  0.00156  1.0000
  S   S583      1.0  0.83081  0.17810  0.00913  1.0000
  Fe  Fe291     1.0  0.81259  0.24192  0.99917  1.0000
  H   H3427     1.0  0.77200  0.01212  0.35531  1.0000
  C   C4289     1.0  0.79541  0.15165  0.06493  1.0000
  H   H3428     1.0  0.86755  0.18613  0.99208  1.0000
  H   H3429     1.0  0.80611  0.02116  0.30584  1.0000
  C   C4290     1.0  0.80343  0.16889  0.97841  1.0000
  H   H3430     1.0  0.78803  0.30482  0.17757  1.0000
  C   C4291     1.0  0.82967  0.28017  0.44641  1.0000
  C   C4292     1.0  0.82169  0.20135  0.04840  1.0000
  C   C4293     1.0  0.80165  0.26044  0.03512  1.0000
  Fe  Fe292     1.0  0.77294  0.98900  0.13226  1.0000
  H   H3431     1.0  0.75659  0.16360  0.05174  1.0000
  C   C4294     1.0  0.83177  0.31317  0.38377  1.0000
  H   H3432     1.0  0.79943  0.12692  0.40652  1.0000
  Fe  Fe293     1.0  0.79318  0.10628  0.28833  1.0000
  S   S584      1.0  0.78995  0.13484  0.27742  1.0000
  S   S585      1.0  0.81673  0.08835  0.27608  1.0000
  Fe  Fe294     1.0  0.76064  0.11074  0.31622  1.0000
  H   H3433     1.0  0.75556  0.08104  0.07592  1.0000
  H   H3434     1.0  0.79104  0.98730  0.29611  1.0000
  Fe  Fe295     1.0  0.78332  0.13782  0.30513  1.0000
  S   S586      1.0  0.79224  0.15838  0.31315  1.0000
  S   S587      1.0  0.76534  0.10539  0.28965  1.0000
  S   S588      1.0  0.78879  0.10937  0.31585  1.0000
  Fe  Fe296     1.0  0.85420  0.17264  0.41060  1.0000
  S   S589      1.0  0.83062  0.19185  0.41921  1.0000
  S   S590      1.0  0.87949  0.16829  0.41997  1.0000
  Fe  Fe297     1.0  0.83521  0.16126  0.38798  1.0000
  S   S591      1.0  0.81023  0.17986  0.39527  1.0000
  S   S592      1.0  0.83638  0.14193  0.37171  1.0000
  Fe  Fe298     1.0  0.82776  0.19844  0.39161  1.0000
  S   S593      1.0  0.82181  0.22650  0.37902  1.0000
  Fe  Fe299     1.0  0.81569  0.17131  0.42194  1.0000
  S   S594      1.0  0.79591  0.16518  0.44608  1.0000
  S   S595      1.0  0.85254  0.18055  0.38238  1.0000
  S   S596      1.0  0.83951  0.15132  0.41526  1.0000
  C   C4295     1.0  0.75783  0.98798  0.18528  1.0000
  C   C4296     1.0  0.88923  0.13629  0.46169  1.0000
  C   C4297     1.0  0.77242  0.15156  0.12225  1.0000
  C   C4298     1.0  0.74861  0.25498  0.08101  1.0000
  C   C4299     1.0  0.81336  0.29450  0.25191  1.0000
  H   H3435     1.0  0.90556  0.13855  0.43630  1.0000
  C   C4300     1.0  0.80283  0.23094  0.37076  1.0000
  C   C4301     1.0  0.79858  0.21821  0.36483  1.0000
  C   C4302     1.0  0.78344  0.22179  0.35816  1.0000
  C   C4303     1.0  0.77227  0.23800  0.35776  1.0000
  C   C4304     1.0  0.77664  0.25079  0.36349  1.0000
  C   C4305     1.0  0.79197  0.24732  0.36989  1.0000
  H   H3436     1.0  0.80720  0.20571  0.36497  1.0000
  H   H3437     1.0  0.78040  0.21189  0.35349  1.0000
  H   H3438     1.0  0.76840  0.26349  0.36263  1.0000
  H   H3439     1.0  0.79531  0.25724  0.37433  1.0000
  C   C4306     1.0  0.80318  0.15367  0.33052  1.0000
  C   C4307     1.0  0.80876  0.13668  0.33883  1.0000
  C   C4308     1.0  0.81850  0.13330  0.35178  1.0000
  C   C4309     1.0  0.82253  0.14686  0.35672  1.0000
  C   C4310     1.0  0.81628  0.16391  0.34895  1.0000
  C   C4311     1.0  0.80683  0.16729  0.33574  1.0000
  H   H3440     1.0  0.80572  0.12614  0.33516  1.0000
  H   H3441     1.0  0.82298  0.12012  0.35800  1.0000
  H   H3442     1.0  0.81918  0.17446  0.35277  1.0000
  H   H3443     1.0  0.80250  0.18049  0.32944  1.0000
  H   H3444     1.0  0.86921  0.98521  0.09444  1.0000
  H   H3445     1.0  0.76692  0.30515  0.33436  1.0000
  C   C4312     1.0  0.86187  0.08934  0.35787  1.0000
  C   C4313     1.0  0.77870  0.15706  0.44403  1.0000
  C   C4314     1.0  0.76425  0.16836  0.43821  1.0000
  H   H3446     1.0  0.85519  0.13827  0.46165  1.0000
  H   H3447     1.0  0.80495  0.15674  0.06827  1.0000
  C   C4315     1.0  0.82353  0.02045  0.38391  1.0000
  H   H3448     1.0  0.76462  0.18183  0.43294  1.0000
  S   S597      1.0  0.75356  0.12499  0.02312  1.0000
  C   C4316     1.0  0.89862  0.19751  0.45095  1.0000
  C   C4317     1.0  0.91002  0.18618  0.44084  1.0000
  C   C4318     1.0  0.90375  0.17765  0.43154  1.0000
  C   C4319     1.0  0.88591  0.18038  0.43183  1.0000
  C   C4320     1.0  0.87423  0.19180  0.44187  1.0000
  C   C4321     1.0  0.88058  0.20042  0.45140  1.0000
  H   H3449     1.0  0.92391  0.18381  0.44033  1.0000
  H   H3450     1.0  0.91292  0.16886  0.42397  1.0000
  H   H3451     1.0  0.86036  0.19379  0.44248  1.0000
  H   H3452     1.0  0.87158  0.20914  0.45914  1.0000
  C   C4322     1.0  0.86737  0.26344  0.36549  1.0000
  C   C4323     1.0  0.90898  0.19760  0.38911  1.0000
  C   C4324     1.0  0.77224  0.19124  0.02608  1.0000
  S   S598      1.0  0.77270  0.30531  0.46049  1.0000
  C   C4325     1.0  0.76421  0.03076  0.24725  1.0000
  H   H3453     1.0  0.75498  0.01454  0.17204  1.0000
  H   H3454     1.0  0.80873  0.28572  0.27935  1.0000
  C   C4326     1.0  0.77447  0.20595  0.12584  1.0000
  H   H3455     1.0  0.76177  0.07536  0.31605  1.0000
  Fe  Fe300     1.0  0.80082  0.28402  0.09929  1.0000
  H   H3456     1.0  0.81937  0.03373  0.37761  1.0000
  C   C4327     1.0  0.79279  0.27380  0.04393  1.0000
  C   C4328     1.0  0.90559  0.10140  0.46678  1.0000
  C   C4329     1.0  0.74986  0.05697  0.07498  1.0000
  C   C4330     1.0  0.75344  0.27940  0.29025  1.0000
  C   C4331     1.0  0.90102  0.98316  0.15285  1.0000
  C   C4332     1.0  0.80750  0.29655  0.23668  1.0000
  C   C4333     1.0  0.90212  0.12993  0.44854  1.0000
  H   H3457     1.0  0.84708  0.02518  0.38796  1.0000
  C   C4334     1.0  0.82292  0.25801  0.40813  1.0000
  C   C4335     1.0  0.81568  0.24849  0.04111  1.0000
  C   C4336     1.0  0.82033  0.24954  0.05623  1.0000
  C   C4337     1.0  0.78084  0.22086  0.11688  1.0000
  H   H3458     1.0  0.75749  0.17735  0.12118  1.0000
  P   P141      1.0  0.86236  0.28237  0.01473  1.0000
  H   H3459     1.0  0.82262  0.23821  0.03436  1.0000
  H   H3460     1.0  0.83082  0.23997  0.06111  1.0000
  H   H3461     1.0  0.76385  0.29086  0.37270  1.0000
  C   C4338     1.0  0.87921  0.29461  0.05269  1.0000
  C   C4339     1.0  0.82004  0.24272  0.41973  1.0000
  C   C4340     1.0  0.89144  0.20206  0.38784  1.0000
  C   C4341     1.0  0.81679  0.16962  0.00163  1.0000
  C   C4342     1.0  0.85067  0.30364  0.46592  1.0000
  H   H3462     1.0  0.76743  0.26947  0.08068  1.0000
  C   C4343     1.0  0.88743  0.98918  0.16566  1.0000
  C   C4344     1.0  0.75347  0.06847  0.32656  1.0000
  C   C4345     1.0  0.80888  0.03717  0.26873  1.0000
  C   C4346     1.0  0.79534  0.04767  0.27825  1.0000
  C   C4347     1.0  0.79755  0.06346  0.28037  1.0000
  C   C4348     1.0  0.81337  0.06886  0.27307  1.0000
  C   C4349     1.0  0.82695  0.05834  0.26358  1.0000
  C   C4350     1.0  0.82470  0.04256  0.26134  1.0000
  H   H3463     1.0  0.78308  0.04355  0.28406  1.0000
  H   H3464     1.0  0.78703  0.07137  0.28774  1.0000
  H   H3465     1.0  0.83921  0.06246  0.25786  1.0000
  H   H3466     1.0  0.83523  0.03452  0.25404  1.0000
  H   H3467     1.0  0.83153  0.21962  0.43592  1.0000
  H   H3468     1.0  0.75562  0.30234  0.27000  1.0000
  H   H3469     1.0  0.74939  0.12891  0.34707  1.0000
  S   S599      1.0  0.81552  0.30921  0.14476  1.0000
  H   H3470     1.0  0.81160  0.28291  0.99127  1.0000
  H   H3471     1.0  0.78375  0.09459  0.18773  1.0000
  C   C4351     1.0  0.80482  0.00326  0.14991  1.0000
  C   C4352     1.0  0.81196  0.01060  0.15967  1.0000
  C   C4353     1.0  0.81981  0.00022  0.17331  1.0000
  C   C4354     1.0  0.81932  0.30982  0.29392  1.0000
  H   H3472     1.0  0.86233  0.03831  0.27487  1.0000
  H   H3473     1.0  0.79911  0.01133  0.13922  1.0000
  H   H3474     1.0  0.81152  0.02437  0.15655  1.0000
  H   H3475     1.0  0.79022  0.24810  0.26372  1.0000
  C   C4355     1.0  0.76571  0.22620  0.42458  1.0000
  H   H3476     1.0  0.77752  0.21962  0.41718  1.0000
  C   C4356     1.0  0.75303  0.15055  0.39837  1.0000
  H   H3477     1.0  0.74620  0.14037  0.19693  1.0000
  C   C4357     1.0  0.84311  0.19701  0.33151  1.0000
  C   C4358     1.0  0.83043  0.21145  0.32678  1.0000
  C   C4359     1.0  0.82575  0.21452  0.31077  1.0000
  C   C4360     1.0  0.83369  0.20314  0.29949  1.0000
  C   C4361     1.0  0.84625  0.18843  0.30426  1.0000
  C   C4362     1.0  0.85116  0.18564  0.32024  1.0000
  P   P142      1.0  0.85798  0.17497  0.28885  1.0000
  C   C4363     1.0  0.86514  0.15290  0.29924  1.0000
  C   C4364     1.0  0.84445  0.17347  0.27502  1.0000
  C   C4365     1.0  0.85189  0.17066  0.25819  1.0000
  C   C4366     1.0  0.84150  0.16848  0.24786  1.0000
  C   C4367     1.0  0.82371  0.16881  0.25435  1.0000
  C   C4368     1.0  0.81630  0.17134  0.27115  1.0000
  C   C4369     1.0  0.82664  0.17355  0.28150  1.0000
  C   C4370     1.0  0.87988  0.14240  0.29104  1.0000
  C   C4371     1.0  0.88533  0.12524  0.29905  1.0000
  C   C4372     1.0  0.87600  0.11842  0.31517  1.0000
  C   C4373     1.0  0.86109  0.12871  0.32316  1.0000
  C   C4374     1.0  0.85550  0.14577  0.31510  1.0000
  C   C4375     1.0  0.87620  0.18479  0.27682  1.0000
  C   C4376     1.0  0.89190  0.18028  0.28279  1.0000
  C   C4377     1.0  0.90587  0.18827  0.27374  1.0000
  C   C4378     1.0  0.90415  0.20101  0.25885  1.0000
  C   C4379     1.0  0.88839  0.20589  0.25309  1.0000
  C   C4380     1.0  0.87440  0.19793  0.26212  1.0000
  H   H3478     1.0  0.84672  0.19466  0.34395  1.0000
  H   H3479     1.0  0.82438  0.22035  0.33546  1.0000
  H   H3480     1.0  0.81605  0.22579  0.30707  1.0000
  H   H3481     1.0  0.83016  0.20596  0.28700  1.0000
  H   H3482     1.0  0.86125  0.17476  0.32402  1.0000
  H   H3483     1.0  0.86574  0.16984  0.25314  1.0000
  H   H3484     1.0  0.84728  0.16625  0.23490  1.0000
  H   H3485     1.0  0.81569  0.16679  0.24649  1.0000
  H   H3486     1.0  0.80259  0.17119  0.27632  1.0000
  H   H3487     1.0  0.82081  0.17494  0.29469  1.0000
  H   H3488     1.0  0.88713  0.14744  0.27847  1.0000
  H   H3489     1.0  0.89676  0.11719  0.29275  1.0000
  H   H3490     1.0  0.88026  0.10517  0.32142  1.0000
  H   H3491     1.0  0.85381  0.12355  0.33566  1.0000
  H   H3492     1.0  0.84367  0.15336  0.32132  1.0000
  H   H3493     1.0  0.89332  0.17072  0.29453  1.0000
  H   H3494     1.0  0.91799  0.18470  0.27837  1.0000
  H   H3495     1.0  0.91497  0.20723  0.25188  1.0000
  H   H3496     1.0  0.88699  0.21595  0.24169  1.0000
  H   H3497     1.0  0.86216  0.20213  0.25770  1.0000
  C   C4381     1.0  0.78166  0.21977  0.30964  1.0000
  C   C4382     1.0  0.78746  0.21211  0.29520  1.0000
  C   C4383     1.0  0.79066  0.22243  0.27870  1.0000
  C   C4384     1.0  0.78785  0.24043  0.27664  1.0000
  C   C4385     1.0  0.78181  0.24825  0.29113  1.0000
  C   C4386     1.0  0.77890  0.23770  0.30760  1.0000
  P   P143      1.0  0.77671  0.27157  0.28884  1.0000
  C   C4387     1.0  0.78238  0.27724  0.30651  1.0000
  H   H3498     1.0  0.79118  0.13939  0.01431  1.0000
  H   H3499     1.0  0.91306  0.23468  0.39788  1.0000
  H   H3500     1.0  0.82183  0.11122  0.98265  1.0000
  H   H3501     1.0  0.82204  0.02451  0.35083  1.0000
  C   C4388     1.0  0.77183  0.29108  0.31397  1.0000
  S   S600      1.0  0.75302  0.24216  0.34994  1.0000
  C   C4389     1.0  0.79515  0.15570  0.98900  1.0000
  C   C4390     1.0  0.76112  0.21589  0.03994  1.0000
  C   C4391     1.0  0.79703  0.26754  0.31331  1.0000
  C   C4392     1.0  0.87810  0.29208  0.99753  1.0000
  C   C4393     1.0  0.89360  0.17565  0.97957  1.0000
  C   C4394     1.0  0.81311  0.00826  0.38639  1.0000
  C   C4395     1.0  0.76874  0.19827  0.04092  1.0000
  H   H3502     1.0  0.83918  0.28815  0.07554  1.0000
  C   C4396     1.0  0.78655  0.13331  0.40405  1.0000
  H   H3503     1.0  0.77929  0.21183  0.32247  1.0000
  H   H3504     1.0  0.78945  0.19818  0.29686  1.0000
  S   S601      1.0  0.75426  0.08963  0.45630  1.0000
  C   C4397     1.0  0.79991  0.22538  0.46970  1.0000
  H   H3505     1.0  0.77456  0.24339  0.31891  1.0000
  H   H3506     1.0  0.85225  0.14680  0.98315  1.0000
  C   C4398     1.0  0.79672  0.01768  0.35571  1.0000
  C   C4399     1.0  0.89046  0.27458  0.37023  1.0000
  C   C4400     1.0  0.77038  0.28683  0.98049  1.0000
  S   S602      1.0  0.78346  0.14599  0.97997  1.0000
  C   C4401     1.0  0.80075  0.27135  0.32761  1.0000
  C   C4402     1.0  0.88146  0.21817  0.39056  1.0000
  H   H3507     1.0  0.77591  0.15293  0.16837  1.0000
  C   C4403     1.0  0.80407  0.28695  0.26773  1.0000
  C   C4404     1.0  0.80651  0.19692  0.04719  1.0000
  Fe  Fe301     1.0  0.80159  0.30465  0.12578  1.0000
  H   H3508     1.0  0.78952  0.12671  0.15657  1.0000
  H   H3509     1.0  0.77084  0.19590  0.99932  1.0000
  C   C4405     1.0  0.87824  0.23422  0.00278  1.0000
  H   H3510     1.0  0.79350  0.30885  0.00205  1.0000
  H   H3511     1.0  0.74635  0.16809  0.08148  1.0000
  H   H3512     1.0  0.81420  0.17815  0.46256  1.0000
  C   C4406     1.0  0.86742  0.25918  0.01643  1.0000
  C   C4407     1.0  0.87407  0.25212  0.00150  1.0000
  C   C4408     1.0  0.74759  0.28060  0.44989  1.0000
  H   H3513     1.0  0.76574  0.20572  0.44668  1.0000
  C   C4409     1.0  0.75514  0.08938  0.14472  1.0000
  H   H3514     1.0  0.75755  0.24271  0.08316  1.0000
  C   C4410     1.0  0.81574  0.02324  0.32741  1.0000
  C   C4411     1.0  0.79781  0.27518  0.05871  1.0000
  C   C4412     1.0  0.77515  0.05426  0.40570  1.0000
  C   C4413     1.0  0.75264  0.29397  0.98136  1.0000
  C   C4414     1.0  0.77322  0.00822  0.18896  1.0000
  H   H3515     1.0  0.78922  0.11329  0.06068  1.0000
  C   C4415     1.0  0.87841  0.29141  0.03688  1.0000
  H   H3516     1.0  0.82652  0.13920  0.45591  1.0000
  C   C4416     1.0  0.86818  0.23013  0.03377  1.0000
  H   H3517     1.0  0.86574  0.29570  0.07894  1.0000
  C   C4417     1.0  0.83243  0.30858  0.46959  1.0000
  C   C4418     1.0  0.75701  0.22622  0.02445  1.0000
  H   H3518     1.0  0.74859  0.98882  0.36262  1.0000
  C   C4419     1.0  0.75651  0.20472  0.08555  1.0000
  C   C4420     1.0  0.83180  0.31468  0.27933  1.0000
  H   H3519     1.0  0.75130  0.23982  0.02384  1.0000
  C   C4421     1.0  0.77897  0.99903  0.38848  1.0000
  H   H3520     1.0  0.81065  0.12565  0.06835  1.0000
  H   H3521     1.0  0.79039  0.99823  0.20697  1.0000
  C   C4422     1.0  0.74946  0.20037  0.34563  1.0000
  H   H3522     1.0  0.81210  0.26721  0.40337  1.0000
  C   C4423     1.0  0.78102  0.99544  0.20121  1.0000
  H   H3523     1.0  0.86065  0.27289  0.34043  1.0000
  C   C4424     1.0  0.75059  0.03467  0.26099  1.0000
  H   H3524     1.0  0.75017  0.07059  0.37533  1.0000
  C   C4425     1.0  0.77487  0.15287  0.15544  1.0000
  H   H3525     1.0  0.87347  0.01043  0.29305  1.0000
  C   C4426     1.0  0.75768  0.17348  0.21190  1.0000
  C   C4427     1.0  0.78138  0.13721  0.13223  1.0000
  S   S603      1.0  0.80875  0.30917  0.09681  1.0000
  H   H3526     1.0  0.75928  0.11461  0.25537  1.0000
  H   H3527     1.0  0.90343  0.24444  0.44745  1.0000
  C   C4428     1.0  0.78087  0.30805  0.39699  1.0000
  C   C4429     1.0  0.78013  0.16253  0.06023  1.0000
  C   C4430     1.0  0.78401  0.03881  0.40046  1.0000
  C   C4431     1.0  0.76830  0.15541  0.05565  1.0000
  S   S604      1.0  0.90830  0.20722  0.46244  1.0000
  H   H3528     1.0  0.90170  0.29260  0.34873  1.0000
  C   C4432     1.0  0.78438  0.01502  0.34775  1.0000
  H   H3529     1.0  0.85608  0.09937  0.36539  1.0000
  C   C4433     1.0  0.87532  0.22321  0.01891  1.0000
  H   H3530     1.0  0.76548  0.04315  0.36602  1.0000
  H   H3531     1.0  0.74964  0.04561  0.17474  1.0000
  H   H3532     1.0  0.81640  0.19374  0.09211  1.0000
  C   C4434     1.0  0.74666  0.27573  0.46768  1.0000
  H   H3533     1.0  0.83749  0.28264  0.04779  1.0000
  C   C4435     1.0  0.81238  0.02199  0.34531  1.0000
  H   H3534     1.0  0.84571  0.98667  0.31838  1.0000
  H   H3535     1.0  0.89909  0.05932  0.35004  1.0000
  H   H3536     1.0  0.76049  0.29884  0.30902  1.0000
  C   C4436     1.0  0.89747  0.25345  0.43730  1.0000
  C   C4437     1.0  0.75806  0.19000  0.07891  1.0000
  C   C4438     1.0  0.78994  0.28491  0.33516  1.0000
  H   H3537     1.0  0.74818  0.10000  0.11980  1.0000
  H   H3538     1.0  0.88226  0.29197  0.32984  1.0000
  C   C4439     1.0  0.75980  0.06176  0.38216  1.0000
  C   C4440     1.0  0.79856  0.18985  0.07843  1.0000
  S   S605      1.0  0.79452  0.25875  0.01703  1.0000
  H   H3539     1.0  0.82772  0.02674  0.31940  1.0000
  H   H3540     1.0  0.77172  0.27858  0.25313  1.0000
  C   C4441     1.0  0.76323  0.06585  0.39642  1.0000
  H   H3541     1.0  0.85861  0.25302  0.04426  1.0000
  C   C4442     1.0  0.76783  0.15731  0.38906  1.0000
  S   S606      1.0  0.77268  0.29556  0.09822  1.0000
  C   C4443     1.0  0.76119  0.26553  0.47423  1.0000
  C   C4444     1.0  0.76628  0.30049  0.37821  1.0000
  H   H3542     1.0  0.75399  0.21910  0.16371  1.0000
  C   C4445     1.0  0.78785  0.01619  0.32986  1.0000
  H   H3543     1.0  0.83275  0.12695  0.99857  1.0000
  H   H3544     1.0  0.79250  0.28755  0.34656  1.0000
  C   C4446     1.0  0.76315  0.27548  0.43860  1.0000
  S   S607      1.0  0.75467  0.13957  0.30750  1.0000
  H   H3545     1.0  0.88336  0.22890  0.99117  1.0000
  H   H3546     1.0  0.79516  0.21647  0.26749  1.0000
  C   C4447     1.0  0.77699  0.26047  0.46299  1.0000
  C   C4448     1.0  0.77781  0.26560  0.44510  1.0000
  C   C4449     1.0  0.76141  0.00456  0.18122  1.0000
  C   C4450     1.0  0.76644  0.11818  0.19246  1.0000
  P   P144      1.0  0.79263  0.01485  0.37905  1.0000
  C   C4451     1.0  0.83208  0.24561  0.46318  1.0000
  C   C4452     1.0  0.84710  0.25262  0.45710  1.0000
  C   C4453     1.0  0.84585  0.26997  0.44899  1.0000
  H   H3547     1.0  0.79572  0.15425  0.38505  1.0000
  H   H3548     1.0  0.82492  0.29915  0.25143  1.0000
  H   H3549     1.0  0.78413  0.28224  0.39298  1.0000
  H   H3550     1.0  0.78195  0.28307  0.03932  1.0000
  S   S608      1.0  0.81203  0.99043  0.23279  1.0000
  C   C4454     1.0  0.79996  0.20386  0.45399  1.0000
  C   C4455     1.0  0.79471  0.22082  0.45664  1.0000
  C   C4456     1.0  0.76185  0.02231  0.23540  1.0000
  H   H3551     1.0  0.88780  0.00026  0.17050  1.0000
  C   C4457     1.0  0.81391  0.17604  0.98480  1.0000
  C   C4458     1.0  0.81126  0.26277  0.06519  1.0000
  H   H3552     1.0  0.74802  0.29780  0.07413  1.0000
  H   H3553     1.0  0.74855  0.98544  0.17923  1.0000
  H   H3554     1.0  0.76404  0.27961  0.42478  1.0000
  S   S609      1.0  0.75847  0.04594  0.09357  1.0000
  C   C4459     1.0  0.80583  0.98541  0.15349  1.0000
  P   P145      1.0  0.75478  0.18662  0.15415  1.0000
  H   H3555     1.0  0.78991  0.26250  0.43615  1.0000
  C   C4460     1.0  0.75553  0.18227  0.17682  1.0000
  H   H3556     1.0  0.85966  0.24475  0.45919  1.0000
  H   H3557     1.0  0.85732  0.27559  0.44519  1.0000
  H   H3558     1.0  0.76654  0.16931  0.37969  1.0000
  C   C4461     1.0  0.76799  0.23418  0.14169  1.0000
  C   C4462     1.0  0.79472  0.19134  0.06220  1.0000
  C   C4463     1.0  0.80856  0.15639  0.01230  1.0000
  P   P146      1.0  0.87611  0.25085  0.39790  1.0000
  H   H3559     1.0  0.77242  0.98453  0.33747  1.0000
  H   H3560     1.0  0.75956  0.01475  0.40505  1.0000
  C   C4464     1.0  0.77800  0.13975  0.45124  1.0000
  H   H3561     1.0  0.89088  0.29777  0.05423  1.0000
  S   S610      1.0  0.74483  0.14919  0.26137  1.0000
  H   H3562     1.0  0.91190  0.08788  0.46872  1.0000
  H   H3563     1.0  0.79273  0.02979  0.40824  1.0000
  H   H3564     1.0  0.82714  0.30323  0.38061  1.0000
  H   H3565     1.0  0.76045  0.18425  0.46842  1.0000
  C   C4465     1.0  0.77213  0.05984  0.13125  1.0000
  C   C4466     1.0  0.77236  0.06022  0.14822  1.0000
  C   C4467     1.0  0.76393  0.07506  0.15511  1.0000
  C   C4468     1.0  0.86929  0.02123  0.31569  1.0000
  P   P147      1.0  0.76320  0.07493  0.17752  1.0000
  C   C4469     1.0  0.82799  0.13775  0.46906  1.0000
  C   C4470     1.0  0.78365  0.06364  0.18380  1.0000
  C   C4471     1.0  0.78404  0.05636  0.20129  1.0000
  C   C4472     1.0  0.79994  0.04872  0.20644  1.0000
  C   C4473     1.0  0.81554  0.04836  0.19422  1.0000
  C   C4474     1.0  0.81527  0.05553  0.17681  1.0000
  C   C4475     1.0  0.79941  0.06331  0.17161  1.0000
  H   H3566     1.0  0.92030  0.10763  0.44083  1.0000
  H   H3567     1.0  0.81167  0.26342  0.33324  1.0000
  H   H3568     1.0  0.81064  0.15144  0.02537  1.0000
  C   C4476     1.0  0.79745  0.14966  0.00609  1.0000
  S   S611      1.0  0.80308  0.22048  0.99451  1.0000
  H   H3569     1.0  0.91200  0.98956  0.14774  1.0000
  H   H3570     1.0  0.89964  0.27033  0.00114  1.0000
  H   H3571     1.0  0.80233  0.28137  0.45029  1.0000
  C   C4477     1.0  0.77280  0.98907  0.28062  1.0000
  H   H3572     1.0  0.78361  0.17868  0.20310  1.0000
  C   C4478     1.0  0.83704  0.12849  0.98468  1.0000
  C   C4479     1.0  0.74653  0.06373  0.19118  1.0000
  H   H3573     1.0  0.74810  0.10081  0.14966  1.0000
  H   H3574     1.0  0.77842  0.04830  0.12604  1.0000
  H   H3575     1.0  0.77887  0.04881  0.15603  1.0000
  C   C4480     1.0  0.87323  0.30881  0.98803  1.0000
  H   H3576     1.0  0.77214  0.05678  0.21103  1.0000
  H   H3577     1.0  0.80026  0.04303  0.21991  1.0000
  H   H3578     1.0  0.82784  0.04209  0.19816  1.0000
  H   H3579     1.0  0.82740  0.05478  0.16735  1.0000
  H   H3580     1.0  0.79952  0.06909  0.15812  1.0000
  C   C4481     1.0  0.83384  0.28294  0.00105  1.0000
  H   H3581     1.0  0.77248  0.01926  0.22482  1.0000
  C   C4482     1.0  0.76357  0.00258  0.40079  1.0000
  H   H3582     1.0  0.87375  0.00894  0.32375  1.0000
  H   H3583     1.0  0.76204  0.12064  0.45939  1.0000
  H   H3584     1.0  0.80413  0.19771  0.03450  1.0000
  H   H3585     1.0  0.86144  0.22486  0.42528  1.0000
  H   H3586     1.0  0.84114  0.27122  0.99671  1.0000
  C   C4483     1.0  0.81389  0.31290  0.01234  1.0000
  C   C4484     1.0  0.74895  0.16240  0.44008  1.0000
  C   C4485     1.0  0.87780  0.26429  0.37653  1.0000
  H   H3587     1.0  0.76205  0.13237  0.05276  1.0000
  C   C4486     1.0  0.78670  0.12698  0.06065  1.0000
  H   H3588     1.0  0.89940  0.27462  0.37810  1.0000
  H   H3589     1.0  0.79102  0.28565  0.06524  1.0000
  H   H3590     1.0  0.93028  0.20592  0.39381  1.0000
  H   H3591     1.0  0.89173  0.23353  0.42824  1.0000
  H   H3592     1.0  0.88289  0.14982  0.45940  1.0000
  C   C4487     1.0  0.80997  0.19127  0.46465  1.0000
  C   C4488     1.0  0.78890  0.28123  0.26841  1.0000
  H   H3593     1.0  0.83337  0.23238  0.47012  1.0000
  C   C4489     1.0  0.78445  0.14878  0.39199  1.0000
  Fe  Fe302     1.0  0.76863  0.29160  0.12693  1.0000
  H   H3594     1.0  0.77677  0.03388  0.24612  1.0000
  C   C4490     1.0  0.76857  0.04623  0.37691  1.0000
  H   H3595     1.0  0.83078  0.20547  0.03674  1.0000
  H   H3596     1.0  0.86783  0.22127  0.38962  1.0000
  S   S612      1.0  0.79626  0.27823  0.12831  1.0000
  H   H3597     1.0  0.88698  0.29656  0.42143  1.0000
  H   H3598     1.0  0.83677  0.20416  0.06542  1.0000
  H   H3599     1.0  0.77700  0.05705  0.41735  1.0000
  C   C4491     1.0  0.84077  0.29114  0.01014  1.0000
  C   C4492     1.0  0.86299  0.03777  0.28811  1.0000
  S   S613      1.0  0.74617  0.28218  0.14662  1.0000
  C   C4493     1.0  0.77755  0.23498  0.12478  1.0000
  H   H3600     1.0  0.80717  0.23978  0.42335  1.0000
  C   C4494     1.0  0.85396  0.24877  0.40772  1.0000
  C   C4495     1.0  0.86884  0.27355  0.34879  1.0000
  P   P148      1.0  0.79600  0.24768  0.47146  1.0000
  H   H3601     1.0  0.76125  0.04514  0.31643  1.0000
  H   H3602     1.0  0.76862  0.17671  0.34924  1.0000
  H   H3603     1.0  0.77713  0.19534  0.11934  1.0000
  H   H3604     1.0  0.86007  0.31616  0.99095  1.0000
  C   C4496     1.0  0.78120  0.03492  0.38568  1.0000
  C   C4497     1.0  0.81703  0.28962  0.99779  1.0000
  C   C4498     1.0  0.88355  0.25889  0.41282  1.0000
  C   C4499     1.0  0.77202  0.12624  0.41306  1.0000
  C   C4500     1.0  0.88896  0.22991  0.39476  1.0000
  H   H3605     1.0  0.77544  0.00125  0.27260  1.0000
  C   C4501     1.0  0.86336  0.28716  0.03487  1.0000
  C   C4502     1.0  0.75507  0.08898  0.12771  1.0000
  H   H3606     1.0  0.85807  0.30878  0.45351  1.0000
  C   C4503     1.0  0.83081  0.30640  0.01544  1.0000
  H   H3607     1.0  0.77648  0.02090  0.18539  1.0000
  C   C4504     1.0  0.79876  0.06606  0.32659  1.0000
  C   C4505     1.0  0.79086  0.06846  0.34330  1.0000
  C   C4506     1.0  0.80084  0.07018  0.35424  1.0000
  C   C4507     1.0  0.81864  0.07019  0.34819  1.0000
  C   C4508     1.0  0.82637  0.06905  0.33093  1.0000
  C   C4509     1.0  0.81634  0.06658  0.32037  1.0000
  P   P149      1.0  0.84866  0.07116  0.32156  1.0000
  C   C4510     1.0  0.84831  0.09109  0.30572  1.0000
  C   C4511     1.0  0.86017  0.07368  0.33681  1.0000
  C   C4512     1.0  0.85290  0.08669  0.34651  1.0000
  H   H3608     1.0  0.75485  0.14024  0.36979  1.0000
  H   H3609     1.0  0.78238  0.24659  0.11779  1.0000
  C   C4513     1.0  0.88608  0.06680  0.34921  1.0000
  C   C4514     1.0  0.87708  0.06409  0.33787  1.0000
  C   C4515     1.0  0.86205  0.09289  0.29136  1.0000
  C   C4516     1.0  0.86169  0.10850  0.27928  1.0000
  C   C4517     1.0  0.84785  0.12250  0.28173  1.0000
  C   C4518     1.0  0.83446  0.12100  0.29632  1.0000
  C   C4519     1.0  0.83473  0.10537  0.30829  1.0000
  C   C4520     1.0  0.85797  0.05222  0.31212  1.0000
  C   C4521     1.0  0.86349  0.03621  0.32259  1.0000
  C   C4522     1.0  0.75848  0.09652  0.18183  1.0000
  S   S614      1.0  0.88219  0.28670  0.47392  1.0000
  C   C4523     1.0  0.78332  0.28299  0.25297  1.0000
  C   C4524     1.0  0.85735  0.05279  0.29492  1.0000
  H   H3610     1.0  0.79117  0.06435  0.31821  1.0000
  H   H3611     1.0  0.77695  0.06928  0.34755  1.0000
  H   H3612     1.0  0.79466  0.07184  0.36729  1.0000
  H   H3613     1.0  0.82604  0.07133  0.35698  1.0000
  H   H3614     1.0  0.82198  0.06534  0.30716  1.0000
  H   H3615     1.0  0.84034  0.09499  0.34515  1.0000
  H   H3616     1.0  0.76549  0.21339  0.07971  1.0000
  C   C4525     1.0  0.87842  0.07933  0.35929  1.0000
  H   H3617     1.0  0.75621  0.07768  0.40070  1.0000
  H   H3618     1.0  0.88355  0.05480  0.32973  1.0000
  H   H3619     1.0  0.87294  0.08223  0.28937  1.0000
  H   H3620     1.0  0.87205  0.10969  0.26796  1.0000
  H   H3621     1.0  0.84743  0.13451  0.27232  1.0000
  H   H3622     1.0  0.82377  0.13189  0.29830  1.0000
  H   H3623     1.0  0.82432  0.10443  0.31955  1.0000
  H   H3624     1.0  0.86305  0.03525  0.33616  1.0000
  H   H3625     1.0  0.75308  0.04046  0.27046  1.0000
  C   C4526     1.0  0.77548  0.29476  0.32835  1.0000
  C   C4527     1.0  0.89645  0.27114  0.43524  1.0000
  H   H3626     1.0  0.85190  0.06468  0.28687  1.0000
  C   C4528     1.0  0.81568  0.25585  0.46086  1.0000
  H   H3627     1.0  0.85817  0.25485  0.36973  1.0000
  C   C4529     1.0  0.79871  0.13395  0.06502  1.0000
  H   H3628     1.0  0.77864  0.17792  0.02617  1.0000
  C   C4530     1.0  0.80352  0.02024  0.31970  1.0000
  C   C4531     1.0  0.83983  0.26116  0.40230  1.0000
  C   C4532     1.0  0.83383  0.23117  0.42644  1.0000
  H   H3629     1.0  0.84186  0.27294  0.39316  1.0000
  H   H3630     1.0  0.80536  0.25683  0.30779  1.0000
  C   C4533     1.0  0.74810  0.14520  0.44770  1.0000
  H   H3631     1.0  0.80284  0.31373  0.19600  1.0000
  C   C4534     1.0  0.80690  0.30433  0.00376  1.0000
  C   C4535     1.0  0.89193  0.28466  0.35350  1.0000
  H   H3632     1.0  0.88963  0.29210  0.02639  1.0000
  H   H3633     1.0  0.91647  0.18485  0.38761  1.0000
  H   H3634     1.0  0.75851  0.16990  0.22546  1.0000
  H   H3635     1.0  0.77736  0.31375  0.03619  1.0000
  C   C4536     1.0  0.91670  0.20943  0.39271  1.0000
  C   C4537     1.0  0.90681  0.22565  0.39525  1.0000
  C   C4538     1.0  0.85076  0.23419  0.42046  1.0000
  C   C4539     1.0  0.76784  0.20151  0.01069  1.0000
  C   C4540     1.0  0.75691  0.24225  0.41701  1.0000
  H   H3636     1.0  0.77358  0.11438  0.42266  1.0000
  H   H3637     1.0  0.78827  0.22159  0.10374  1.0000
  H   H3638     1.0  0.88542  0.19277  0.38529  1.0000
  C   C4541     1.0  0.86506  0.29348  0.06660  1.0000
  C   C4542     1.0  0.86911  0.02203  0.29842  1.0000
  H   H3639     1.0  0.87504  0.28593  0.40187  1.0000
  C   C4543     1.0  0.89089  0.24732  0.42628  1.0000
  C   C4544     1.0  0.77076  0.18278  0.18181  1.0000
  C   C4545     1.0  0.91034  0.11251  0.45108  1.0000
  C   C4546     1.0  0.90756  0.29053  0.98029  1.0000
  C   C4547     1.0  0.88163  0.27673  0.41145  1.0000
  H   H3640     1.0  0.76524  0.24527  0.14770  1.0000
  S   S615      1.0  0.81695  0.26336  0.08448  1.0000
  H   H3641     1.0  0.77578  0.12226  0.19722  1.0000
  C   C4548     1.0  0.79250  0.29076  0.23721  1.0000
  H   H3642     1.0  0.78998  0.18497  0.09017  1.0000
  H   H3643     1.0  0.75728  0.22709  0.99784  1.0000
  H   H3644     1.0  0.77822  0.01425  0.32377  1.0000
  P   P150      1.0  0.77526  0.18532  0.06063  1.0000
  C   C4549     1.0  0.74694  0.29490  0.27955  1.0000
  C   C4550     1.0  0.84463  0.99870  0.39824  1.0000
  Fe  Fe303     1.0  0.75384  0.02000  0.10994  1.0000
  C   C4551     1.0  0.82513  0.20044  0.06457  1.0000
  H   H3645     1.0  0.78735  0.12556  0.12715  1.0000
  C   C4552     1.0  0.76269  0.13384  0.45317  1.0000
  C   C4553     1.0  0.76168  0.21927  0.15073  1.0000
  C   C4554     1.0  0.75422  0.27016  0.07958  1.0000
  C   C4555     1.0  0.81360  0.19462  0.07959  1.0000
  H   H3646     1.0  0.86243  0.98615  0.18161  1.0000
  C   C4556     1.0  0.77086  0.10238  0.18711  1.0000
  H   H3647     1.0  0.75270  0.24625  0.27558  1.0000
  H   H3648     1.0  0.90179  0.27578  0.44371  1.0000
  C   C4557     1.0  0.88827  0.28282  0.42252  1.0000
  C   C4558     1.0  0.75290  0.99043  0.40765  1.0000
  C   C4559     1.0  0.77146  0.13771  0.05606  1.0000
  S   S616      1.0  0.76111  0.01602  0.13570  1.0000
  H   H3649     1.0  0.81448  0.30285  0.22451  1.0000
  Fe  Fe304     1.0  0.75772  0.14047  0.99616  1.0000
  H   H3650     1.0  0.89993  0.18009  0.98735  1.0000
  Fe  Fe305     1.0  0.76170  0.13414  0.28072  1.0000
  H   H3651     1.0  0.78189  0.18635  0.17218  1.0000
  H   H3652     1.0  0.82034  0.29639  0.30036  1.0000
  H   H3653     1.0  0.88541  0.08149  0.36802  1.0000
  C   C4560     1.0  0.87541  0.17915  0.98215  1.0000
  C   C4561     1.0  0.76478  0.20501  0.14288  1.0000
  C   C4562     1.0  0.76027  0.21902  0.00986  1.0000
  C   C4563     1.0  0.77181  0.17838  0.19929  1.0000
  S   S617      1.0  0.79354  0.30155  0.41293  1.0000
  C   C4564     1.0  0.84916  0.28616  0.04890  1.0000
  C   C4565     1.0  0.88104  0.28424  0.34283  1.0000
  H   H3654     1.0  0.76321  0.07375  0.10791  1.0000
  C   C4566     1.0  0.85006  0.28928  0.06468  1.0000
  H   H3655     1.0  0.82857  0.29375  0.44059  1.0000
  S   S618      1.0  0.76715  0.99315  0.10570  1.0000
  C   C4567     1.0  0.86423  0.24803  0.03256  1.0000
  H   H3656     1.0  0.86560  0.22163  0.04625  1.0000
  H   H3657     1.0  0.76188  0.24815  0.40379  1.0000
  C   C4568     1.0  0.75535  0.13476  0.41020  1.0000
  H   H3658     1.0  0.79644  0.20045  0.44354  1.0000
  H   H3659     1.0  0.78787  0.29248  0.22541  1.0000
  H   H3660     1.0  0.77143  0.15109  0.10938  1.0000
  C   C4569     1.0  0.74600  0.17918  0.08656  1.0000
  C   C4570     1.0  0.75135  0.17574  0.33354  1.0000
  C   C4571     1.0  0.75904  0.21839  0.44149  1.0000
  C   C4572     1.0  0.75327  0.05128  0.32688  1.0000
  H   H3661     1.0  0.84253  0.30506  0.27436  1.0000
  H   H3662     1.0  0.77449  0.27433  0.98845  1.0000
  C   C4573     1.0  0.78261  0.13787  0.14881  1.0000
  C   C4574     1.0  0.83922  0.01566  0.38977  1.0000
  C   C4575     1.0  0.76454  0.16647  0.12894  1.0000
  C   C4576     1.0  0.76577  0.16737  0.14551  1.0000
  H   H3663     1.0  0.78698  0.23034  0.44827  1.0000
  H   H3664     1.0  0.83599  0.31316  0.02218  1.0000
  C   C4577     1.0  0.74980  0.12842  0.19226  1.0000
  H   H3665     1.0  0.87826  0.20935  0.01983  1.0000
  H   H3666     1.0  0.74854  0.18254  0.40686  1.0000
  C   C4578     1.0  0.76352  0.07421  0.12100  1.0000
  H   H3667     1.0  0.87597  0.26039  0.98880  1.0000
  C   C4579     1.0  0.84427  0.13718  0.47242  1.0000
  C   C4580     1.0  0.75755  0.18362  0.34338  1.0000
  H   H3668     1.0  0.75845  0.22179  0.05102  1.0000
  C   C4581     1.0  0.75040  0.07452  0.06893  1.0000
  C   C4582     1.0  0.89544  0.28309  0.99373  1.0000
  C   C4583     1.0  0.83406  0.31151  0.40054  1.0000
  C   C4584     1.0  0.78168  0.31584  0.18358  1.0000
  H   H3669     1.0  0.75381  0.20631  0.35378  1.0000
  C   C4585     1.0  0.81859  0.99127  0.39504  1.0000
  C   C4586     1.0  0.74667  0.11881  0.25180  1.0000
  H   H3670     1.0  0.83129  0.30021  0.41019  1.0000
  H   H3671     1.0  0.75754  0.16270  0.33191  1.0000
  H   H3672     1.0  0.74724  0.09440  0.24595  1.0000
  H   H3673     1.0  0.74618  0.25952  0.31238  1.0000
  C   C4587     1.0  0.74442  0.08375  0.05382  1.0000
  C   C4588     1.0  0.88435  0.12522  0.47749  1.0000
  H   H3674     1.0  0.74453  0.98736  0.32351  1.0000
  C   C4589     1.0  0.74593  0.01751  0.23743  1.0000
  C   C4590     1.0  0.78359  0.98305  0.38333  1.0000
  H   H3675     1.0  0.74427  0.01065  0.22838  1.0000
  H   H3676     1.0  0.74442  0.12911  0.41767  1.0000
  H   H3677     1.0  0.74481  0.22351  0.30063  1.0000
  H   H3678     1.0  0.74503  0.21374  0.40436  1.0000
  H   H3679     1.0  0.74483  0.09725  0.04946  1.0000
  H   H3680     1.0  0.78481  0.13562  0.65179  1.0000
  C   C4591     1.0  0.86957  0.15474  0.49478  1.0000
  S   S619      1.0  0.79771  0.22893  0.94790  1.0000
  C   C4592     1.0  0.96192  0.24559  0.55374  1.0000
  H   H3681     1.0  0.86500  0.17455  0.58949  1.0000
  C   C4593     1.0  0.96753  0.29141  0.85928  1.0000
  H   H3682     1.0  0.76591  0.21614  0.96908  1.0000
  C   C4594     1.0  0.78652  0.24991  0.52893  1.0000
  Fe  Fe306     1.0  0.98448  0.13230  0.74444  1.0000
  H   H3683     1.0  0.81403  0.29363  0.93383  1.0000
  S   S620      1.0  0.97424  0.13209  0.72092  1.0000
  Fe  Fe307     1.0  0.98153  0.14703  0.77615  1.0000
  S   S621      1.0  0.96336  0.16708  0.79075  1.0000
  C   C4595     1.0  0.75310  0.19673  0.94337  1.0000
  S   S622      1.0  0.97328  0.12394  0.77261  1.0000
  Fe  Fe308     1.0  0.98105  0.23685  0.87847  1.0000
  S   S623      1.0  0.98107  0.24034  0.85037  1.0000
  C   C4596     1.0  0.81432  0.19552  0.47826  1.0000
  Fe  Fe309     1.0  0.95010  0.21835  0.89044  1.0000
  S   S624      1.0  0.94780  0.22002  0.86320  1.0000
  S   S625      1.0  0.93203  0.20444  0.91250  1.0000
  Fe  Fe310     1.0  0.97701  0.21300  0.85724  1.0000
  C   C4597     1.0  0.75921  0.29337  0.51358  1.0000
  Fe  Fe311     1.0  0.95193  0.24695  0.85890  1.0000
  S   S626      1.0  0.93347  0.26862  0.84611  1.0000
  S   S627      1.0  0.97915  0.20889  0.88492  1.0000
  S   S628      1.0  0.95209  0.24597  0.88645  1.0000
  C   C4598     1.0  0.88618  0.30750  0.59690  1.0000
  Fe  Fe312     1.0  0.78394  0.14601  0.57874  1.0000
  S   S629      1.0  0.80349  0.12119  0.58390  1.0000
  C   C4599     1.0  0.81984  0.03727  0.53492  1.0000
  Fe  Fe313     1.0  0.80837  0.16220  0.54847  1.0000
  S   S630      1.0  0.83012  0.13903  0.55073  1.0000
  S   S631      1.0  0.81002  0.18652  0.52830  1.0000
  Fe  Fe314     1.0  0.80923  0.12375  0.55488  1.0000
  S   S632      1.0  0.81521  0.10136  0.54102  1.0000
  Fe  Fe315     1.0  0.82268  0.13851  0.57937  1.0000
  S   S633      1.0  0.84431  0.13437  0.59422  1.0000
  S   S634      1.0  0.78822  0.14704  0.55021  1.0000
  S   S635      1.0  0.80260  0.16296  0.57663  1.0000
  Fe  Fe316     1.0  0.88799  0.17096  0.68562  1.0000
  S   S636      1.0  0.86023  0.18617  0.68699  1.0000
  S   S637      1.0  0.89581  0.15261  0.70971  1.0000
  Fe  Fe317     1.0  0.89938  0.18837  0.64880  1.0000
  S   S638      1.0  0.87302  0.20506  0.64727  1.0000
  S   S639      1.0  0.92009  0.19194  0.62476  1.0000
  Fe  Fe318     1.0  0.87266  0.20895  0.67353  1.0000
  S   S640      1.0  0.86412  0.23660  0.67743  1.0000
  Fe  Fe319     1.0  0.86267  0.18102  0.66041  1.0000
  S   S641      1.0  0.83936  0.17773  0.65117  1.0000
  S   S642      1.0  0.90003  0.19427  0.67398  1.0000
  S   S643      1.0  0.88934  0.16384  0.66025  1.0000
  Fe  Fe320     1.0  0.88083  0.23180  0.51793  1.0000
  S   S644      1.0  0.86203  0.22446  0.54257  1.0000
  C   C4600     1.0  0.91914  0.23228  0.57305  1.0000
  C   C4601     1.0  0.86368  0.28123  0.56173  1.0000
  Fe  Fe321     1.0  0.98272  0.24574  0.61882  1.0000
  S   S645      1.0  0.97927  0.22138  0.63825  1.0000
  Fe  Fe322     1.0  0.91866  0.23538  0.50757  1.0000
  H   H3684     1.0  0.82435  0.28505  0.51042  1.0000
  S   S646      1.0  0.77825  0.07434  0.49556  1.0000
  H   H3685     1.0  0.87786  0.21150  0.95573  1.0000
  S   S647      1.0  0.95740  0.27630  0.56514  1.0000
  H   H3686     1.0  0.86098  0.28432  0.95307  1.0000
  H   H3687     1.0  0.92480  0.17623  0.54385  1.0000
  C   C4602     1.0  0.94608  0.24265  0.53292  1.0000
  C   C4603     1.0  0.93731  0.25985  0.53243  1.0000
  C   C4604     1.0  0.94117  0.26993  0.54215  1.0000
  H   H3688     1.0  0.92790  0.26550  0.52418  1.0000
  H   H3689     1.0  0.93480  0.28338  0.54110  1.0000
  C   C4605     1.0  0.93739  0.19902  0.62831  1.0000
  C   C4606     1.0  0.94177  0.19451  0.64460  1.0000
  C   C4607     1.0  0.95495  0.20109  0.64752  1.0000
  C   C4608     1.0  0.96347  0.21252  0.63425  1.0000
  C   C4609     1.0  0.95921  0.21691  0.61790  1.0000
  C   C4610     1.0  0.94645  0.20985  0.61484  1.0000
  H   H3690     1.0  0.93518  0.18574  0.65490  1.0000
  H   H3691     1.0  0.95833  0.19758  0.66013  1.0000
  H   H3692     1.0  0.96583  0.22566  0.60759  1.0000
  H   H3693     1.0  0.94320  0.21324  0.60220  1.0000
  H   H3694     1.0  0.77562  0.14356  0.51175  1.0000
  H   H3695     1.0  0.96542  0.22242  0.54400  1.0000
  C   C4611     1.0  0.84841  0.29236  0.95129  1.0000
  C   C4612     1.0  0.86754  0.24052  0.69646  1.0000
  C   C4613     1.0  0.86910  0.22723  0.71092  1.0000
  C   C4614     1.0  0.87064  0.23081  0.72636  1.0000
  S   S648      1.0  0.94236  0.22965  0.52016  1.0000
  H   H3696     1.0  0.74841  0.28482  0.82604  1.0000
  H   H3697     1.0  0.86862  0.21430  0.71032  1.0000
  H   H3698     1.0  0.87133  0.22057  0.73767  1.0000
  C   C4615     1.0  0.84279  0.14657  0.60997  1.0000
  C   C4616     1.0  0.85751  0.14514  0.61686  1.0000
  C   C4617     1.0  0.85668  0.15461  0.62943  1.0000
  C   C4618     1.0  0.84106  0.16542  0.63543  1.0000
  C   C4619     1.0  0.82629  0.16656  0.62875  1.0000
  C   C4620     1.0  0.82718  0.15739  0.61596  1.0000
  H   H3699     1.0  0.86963  0.13672  0.61245  1.0000
  H   H3700     1.0  0.86804  0.15344  0.63463  1.0000
  H   H3701     1.0  0.81404  0.17447  0.63352  1.0000
  H   H3702     1.0  0.81569  0.15845  0.61097  1.0000
  C   C4621     1.0  0.82370  0.19756  0.53294  1.0000
  C   C4622     1.0  0.82516  0.21424  0.52366  1.0000
  C   C4623     1.0  0.83708  0.22253  0.52645  1.0000
  C   C4624     1.0  0.84680  0.21452  0.53925  1.0000
  C   C4625     1.0  0.84445  0.19840  0.54938  1.0000
  C   C4626     1.0  0.83339  0.18964  0.54579  1.0000
  H   H3703     1.0  0.81719  0.22081  0.51432  1.0000
  H   H3704     1.0  0.83853  0.23523  0.51891  1.0000
  H   H3705     1.0  0.85175  0.19234  0.55952  1.0000
  H   H3706     1.0  0.83240  0.17677  0.55304  1.0000
  C   C4627     1.0  0.80400  0.09632  0.52738  1.0000
  C   C4628     1.0  0.78633  0.10326  0.52662  1.0000
  C   C4629     1.0  0.77813  0.09746  0.51626  1.0000
  C   C4630     1.0  0.78758  0.08457  0.50686  1.0000
  C   C4631     1.0  0.80521  0.07815  0.50747  1.0000
  C   C4632     1.0  0.81329  0.08388  0.51762  1.0000
  H   H3707     1.0  0.77892  0.11266  0.53436  1.0000
  H   H3708     1.0  0.79648  0.28993  0.96898  1.0000
  H   H3709     1.0  0.81269  0.06841  0.50016  1.0000
  H   H3710     1.0  0.82687  0.07841  0.51806  1.0000
  C   C4633     1.0  0.75232  0.28414  0.93843  1.0000
  C   C4634     1.0  0.86687  0.25816  0.61458  1.0000
  C   C4635     1.0  0.74896  0.17477  0.58403  1.0000
  H   H3711     1.0  0.77568  0.26213  0.63653  1.0000
  C   C4636     1.0  0.78233  0.16403  0.90841  1.0000
  S   S649      1.0  0.77409  0.28511  0.85568  1.0000
  Fe  Fe323     1.0  0.76828  0.31217  0.84062  1.0000
  H   H3712     1.0  0.77209  0.17564  0.56412  1.0000
  H   H3713     1.0  0.90018  0.29728  0.85334  1.0000
  H   H3714     1.0  0.95016  0.21755  0.68687  1.0000
  C   C4637     1.0  0.74572  0.26386  0.81596  1.0000
  H   H3715     1.0  0.77868  0.23901  0.79246  1.0000
  C   C4638     1.0  0.95335  0.26287  0.55300  1.0000
  H   H3716     1.0  0.88219  0.26729  0.82619  1.0000
  H   H3717     1.0  0.80654  0.26907  0.48966  1.0000
  C   C4639     1.0  0.96737  0.28960  0.84276  1.0000
  C   C4640     1.0  0.95625  0.18559  0.55849  1.0000
  C   C4641     1.0  0.87509  0.15035  0.55541  1.0000
  H   H3718     1.0  0.86782  0.14011  0.55871  1.0000
  C   C4642     1.0  0.95942  0.19076  0.73510  1.0000
  C   C4643     1.0  0.84625  0.13512  0.48948  1.0000
  C   C4644     1.0  0.96648  0.20517  0.72581  1.0000
  Fe  Fe324     1.0  0.74654  0.29104  0.87057  1.0000
  S   S650      1.0  0.89384  0.25347  0.51618  1.0000
  H   H3719     1.0  0.90801  0.28027  0.56166  1.0000
  P   P151      1.0  0.98060  0.22600  0.69516  1.0000
  H   H3720     1.0  0.83179  0.18920  0.78109  1.0000
  H   H3721     1.0  0.76294  0.04374  0.60310  1.0000
  C   C4645     1.0  0.76918  0.02284  0.57777  1.0000
  H   H3722     1.0  0.89691  0.22073  0.54908  1.0000
  C   C4646     1.0  0.88249  0.14907  0.92871  1.0000
  C   C4647     1.0  0.81941  0.26544  0.55149  1.0000
  C   C4648     1.0  0.84745  0.13300  0.94879  1.0000
  C   C4649     1.0  0.95224  0.13877  0.71830  1.0000
  C   C4650     1.0  0.94887  0.14392  0.70149  1.0000
  C   C4651     1.0  0.93165  0.14890  0.69873  1.0000
  C   C4652     1.0  0.91758  0.14817  0.71278  1.0000
  C   C4653     1.0  0.92092  0.14306  0.72963  1.0000
  C   C4654     1.0  0.93817  0.13864  0.73241  1.0000
  H   H3723     1.0  0.95965  0.14406  0.69050  1.0000
  H   H3724     1.0  0.92926  0.15277  0.68571  1.0000
  H   H3725     1.0  0.91010  0.14245  0.74056  1.0000
  H   H3726     1.0  0.94060  0.13464  0.74540  1.0000
  C   C4655     1.0  0.97165  0.17416  0.80515  1.0000
  Fe  Fe325     1.0  0.89113  0.26003  0.48852  1.0000
  H   H3727     1.0  0.80679  0.14758  0.94646  1.0000
  C   C4656     1.0  0.98470  0.18603  0.82795  1.0000
  C   C4657     1.0  0.96901  0.19501  0.82293  1.0000
  C   C4658     1.0  0.96247  0.18904  0.81158  1.0000
  H   H3728     1.0  0.80542  0.23565  0.58620  1.0000
  C   C4659     1.0  0.92391  0.17534  0.57090  1.0000
  H   H3729     1.0  0.96212  0.20663  0.82762  1.0000
  H   H3730     1.0  0.95039  0.19600  0.80767  1.0000
  C   C4660     1.0  0.87403  0.16276  0.54023  1.0000
  C   C4661     1.0  0.79737  0.28807  0.77134  1.0000
  H   H3731     1.0  0.77776  0.24368  0.92174  1.0000
  Fe  Fe326     1.0  0.97502  0.26934  0.58500  1.0000
  C   C4662     1.0  0.88710  0.23533  0.94628  1.0000
  C   C4663     1.0  0.88786  0.21787  0.94706  1.0000
  C   C4664     1.0  0.90177  0.20853  0.93667  1.0000
  C   C4665     1.0  0.91492  0.21660  0.92538  1.0000
  C   C4666     1.0  0.91411  0.23408  0.92458  1.0000
  C   C4667     1.0  0.90029  0.24339  0.93508  1.0000
  C   C4668     1.0  0.88701  0.24166  0.56280  1.0000
  H   H3732     1.0  0.90233  0.19504  0.93729  1.0000
  H   H3733     1.0  0.92415  0.24039  0.91593  1.0000
  H   H3734     1.0  0.89979  0.25688  0.93445  1.0000
  H   H3735     1.0  0.77519  0.16816  0.89799  1.0000
  C   C4669     1.0  0.97407  0.19327  0.69990  1.0000
  C   C4670     1.0  0.86440  0.29131  0.53092  1.0000
  H   H3736     1.0  0.76408  0.19966  0.52212  1.0000
  Fe  Fe327     1.0  0.87753  0.30041  0.77064  1.0000
  C   C4671     1.0  0.77460  0.17876  0.65159  1.0000
  H   H3737     1.0  0.90238  0.26709  0.68038  1.0000
  C   C4672     1.0  0.90361  0.16655  0.96681  1.0000
  H   H3738     1.0  0.77923  0.14669  0.62202  1.0000
  H   H3739     1.0  0.83260  0.13302  0.51619  1.0000
  C   C4673     1.0  0.79636  0.26075  0.51649  1.0000
  C   C4674     1.0  0.96456  0.25013  0.71606  1.0000
  H   H3740     1.0  0.80108  0.13652  0.47999  1.0000
  C   C4675     1.0  0.80065  0.24521  0.92962  1.0000
  C   C4676     1.0  0.94943  0.18222  0.57623  1.0000
  H   H3741     1.0  0.77743  0.25621  0.58456  1.0000
  C   C4677     1.0  0.98724  0.16517  0.81033  1.0000
  P   P152      1.0  0.86630  0.15828  0.94548  1.0000
  H   H3742     1.0  0.90573  0.16025  0.88790  1.0000
  H   H3743     1.0  0.86687  0.24835  0.85108  1.0000
  H   H3744     1.0  0.78382  0.16819  0.48385  1.0000
  H   H3745     1.0  0.82152  0.18568  0.48691  1.0000
  C   C4678     1.0  0.95932  0.17786  0.72672  1.0000
  C   C4679     1.0  0.90659  0.24605  0.57860  1.0000
  C   C4680     1.0  0.77328  0.06424  0.60624  1.0000
  C   C4681     1.0  0.77934  0.99717  0.59818  1.0000
  C   C4682     1.0  0.80032  0.15239  0.93555  1.0000
  C   C4683     1.0  0.88686  0.18544  0.58945  1.0000
  H   H3746     1.0  0.80874  0.04293  0.56011  1.0000
  C   C4684     1.0  0.77299  0.27286  0.81208  1.0000
  H   H3747     1.0  0.78737  0.07434  0.55629  1.0000
  H   H3748     1.0  0.77486  0.30387  0.52421  1.0000
  H   H3749     1.0  0.78591  0.17586  0.51075  1.0000
  H   H3750     1.0  0.79356  0.22154  0.86862  1.0000
  C   C4685     1.0  0.78339  0.22294  0.87998  1.0000
  C   C4686     1.0  0.96681  0.17905  0.70917  1.0000
  C   C4687     1.0  0.91210  0.24394  0.62570  1.0000
  C   C4688     1.0  0.78050  0.24834  0.63776  1.0000
  H   H3751     1.0  0.95389  0.16669  0.73393  1.0000
  H   H3752     1.0  0.96699  0.16895  0.70270  1.0000
  H   H3753     1.0  0.81285  0.21634  0.65229  1.0000
  H   H3754     1.0  0.78004  0.28143  0.81437  1.0000
  C   C4689     1.0  0.84384  0.30332  0.67627  1.0000
  C   C4690     1.0  0.87320  0.18805  0.49452  1.0000
  C   C4691     1.0  0.94315  0.16912  0.85293  1.0000
  C   C4692     1.0  0.94955  0.16671  0.86792  1.0000
  C   C4693     1.0  0.94025  0.17589  0.88083  1.0000
  C   C4694     1.0  0.92480  0.18783  0.87856  1.0000
  C   C4695     1.0  0.91867  0.19092  0.86323  1.0000
  C   C4696     1.0  0.92771  0.18108  0.85062  1.0000
  P   P153      1.0  0.89960  0.20753  0.85955  1.0000
  C   C4697     1.0  0.89635  0.22347  0.87258  1.0000
  C   C4698     1.0  0.90311  0.21808  0.83705  1.0000
  C   C4699     1.0  0.92005  0.21964  0.82798  1.0000
  C   C4700     1.0  0.92300  0.22731  0.81048  1.0000
  C   C4701     1.0  0.90903  0.23438  0.80209  1.0000
  C   C4702     1.0  0.89204  0.23360  0.81118  1.0000
  C   C4703     1.0  0.88907  0.22519  0.82854  1.0000
  C   C4704     1.0  0.88812  0.22021  0.89009  1.0000
  C   C4705     1.0  0.88482  0.23276  0.90003  1.0000
  C   C4706     1.0  0.88992  0.24854  0.89270  1.0000
  C   C4707     1.0  0.89836  0.25178  0.87542  1.0000
  C   C4708     1.0  0.90170  0.23929  0.86538  1.0000
  C   C4709     1.0  0.88050  0.19801  0.86519  1.0000
  C   C4710     1.0  0.88204  0.18081  0.86407  1.0000
  C   C4711     1.0  0.86739  0.17319  0.86938  1.0000
  C   C4712     1.0  0.85105  0.18275  0.87565  1.0000
  C   C4713     1.0  0.84932  0.20002  0.87639  1.0000
  C   C4714     1.0  0.86394  0.20766  0.87111  1.0000
  H   H3755     1.0  0.95061  0.16224  0.84278  1.0000
  H   H3756     1.0  0.96194  0.15804  0.86935  1.0000
  H   H3757     1.0  0.94535  0.17429  0.89234  1.0000
  H   H3758     1.0  0.91814  0.19509  0.88854  1.0000
  H   H3759     1.0  0.92329  0.18312  0.83867  1.0000
  H   H3760     1.0  0.93104  0.21494  0.83438  1.0000
  H   H3761     1.0  0.93617  0.22797  0.80343  1.0000
  H   H3762     1.0  0.91145  0.24062  0.78856  1.0000
  H   H3763     1.0  0.88125  0.23961  0.80470  1.0000
  H   H3764     1.0  0.87585  0.22444  0.83527  1.0000
  H   H3765     1.0  0.88443  0.20790  0.89612  1.0000
  H   H3766     1.0  0.87875  0.23014  0.91358  1.0000
  H   H3767     1.0  0.88768  0.25808  0.90055  1.0000
  H   H3768     1.0  0.90249  0.26394  0.86980  1.0000
  H   H3769     1.0  0.90848  0.24213  0.85206  1.0000
  H   H3770     1.0  0.89456  0.17316  0.85929  1.0000
  H   H3771     1.0  0.86874  0.15980  0.86876  1.0000
  H   H3772     1.0  0.83974  0.17678  0.87998  1.0000
  H   H3773     1.0  0.83666  0.20744  0.88128  1.0000
  H   H3774     1.0  0.86233  0.22101  0.87192  1.0000
  C   C4715     1.0  0.88072  0.11119  0.54130  1.0000
  C   C4716     1.0  0.87153  0.09777  0.54740  1.0000
  C   C4717     1.0  0.86159  0.09480  0.53714  1.0000
  C   C4718     1.0  0.86061  0.10537  0.52088  1.0000
  C   C4719     1.0  0.86913  0.11941  0.51498  1.0000
  C   C4720     1.0  0.87953  0.12199  0.52516  1.0000
  C   C4721     1.0  0.92581  0.29899  0.66426  1.0000
  C   C4722     1.0  0.79972  0.03403  0.51905  1.0000
  C   C4723     1.0  0.77807  0.15560  0.63029  1.0000
  C   C4724     1.0  0.78183  0.07790  0.59797  1.0000
  S   S651      1.0  0.90568  0.21308  0.51070  1.0000
  H   H3775     1.0  0.82460  0.30627  0.55407  1.0000
  C   C4725     1.0  0.77457  0.17891  0.48865  1.0000
  H   H3776     1.0  0.76307  0.30051  0.50060  1.0000
  C   C4726     1.0  0.90130  0.15222  0.90019  1.0000
  H   H3777     1.0  0.94371  0.30396  0.67708  1.0000
  H   H3778     1.0  0.98338  0.30350  0.91337  1.0000
  C   C4727     1.0  0.97541  0.30725  0.77965  1.0000
  Fe  Fe328     1.0  0.90163  0.22330  0.48332  1.0000
  C   C4728     1.0  0.93480  0.29583  0.67763  1.0000
  C   C4729     1.0  0.83156  0.13430  0.50296  1.0000
  C   C4730     1.0  0.81540  0.13469  0.49957  1.0000
  C   C4731     1.0  0.85530  0.28532  0.86675  1.0000
  P   P154      1.0  0.76816  0.28997  0.56159  1.0000
  H   H3779     1.0  0.97858  0.09800  0.74364  1.0000
  H   H3780     1.0  0.88851  0.11340  0.54923  1.0000
  H   H3781     1.0  0.87201  0.08977  0.56013  1.0000
  H   H3782     1.0  0.85425  0.08455  0.54191  1.0000
  H   H3783     1.0  0.80341  0.28901  0.54070  1.0000
  S   S652      1.0  0.75401  0.30101  0.89053  1.0000
  S   S653      1.0  0.87556  0.24007  0.49104  1.0000
  C   C4732     1.0  0.90931  0.13479  0.90379  1.0000
  H   H3784     1.0  0.90088  0.17798  0.48905  1.0000
  C   C4733     1.0  0.98427  0.27751  0.79418  1.0000
  S   S654      1.0  0.75666  0.15331  0.59380  1.0000
  C   C4734     1.0  0.76304  0.20548  0.94870  1.0000
  C   C4735     1.0  0.75677  0.28417  0.59754  1.0000
  C   C4736     1.0  0.88622  0.15855  0.49153  1.0000
  C   C4737     1.0  0.78883  0.04106  0.54756  1.0000
  H   H3785     1.0  0.80446  0.13330  0.51024  1.0000
  H   H3786     1.0  0.84396  0.28291  0.74285  1.0000
  C   C4738     1.0  0.76739  0.98889  0.59547  1.0000
  P   P155      1.0  0.77106  0.04428  0.56571  1.0000
  C   C4739     1.0  0.89958  0.22784  0.55732  1.0000
  H   H3787     1.0  0.92573  0.21324  0.55727  1.0000
  H   H3788     1.0  0.83569  0.27068  0.79555  1.0000
  H   H3789     1.0  0.93170  0.22875  0.57681  1.0000
  C   C4740     1.0  0.81017  0.27349  0.77592  1.0000
  C   C4741     1.0  0.78179  0.25988  0.80267  1.0000
  C   C4742     1.0  0.75755  0.01428  0.57475  1.0000
  C   C4743     1.0  0.92105  0.27522  0.81677  1.0000
  C   C4744     1.0  0.87278  0.28222  0.54453  1.0000
  C   C4745     1.0  0.75667  0.22670  0.90897  1.0000
  P   P156      1.0  0.75990  0.19151  0.92216  1.0000
  C   C4746     1.0  0.75056  0.20648  0.50092  1.0000
  H   H3790     1.0  0.90806  0.31116  0.80972  1.0000
  H   H3791     1.0  0.88301  0.21971  0.60776  1.0000
  C   C4747     1.0  0.96580  0.23725  0.68079  1.0000
  H   H3792     1.0  0.90950  0.25284  0.58691  1.0000
  H   H3793     1.0  0.82094  0.19343  0.81127  1.0000
  C   C4748     1.0  0.91575  0.22341  0.56214  1.0000
  P   P157      1.0  0.87494  0.26979  0.57910  1.0000
  C   C4749     1.0  0.93224  0.28231  0.69174  1.0000
  C   C4750     1.0  0.95250  0.22986  0.67914  1.0000
  H   H3794     1.0  0.78996  0.02013  0.59117  1.0000
  H   H3795     1.0  0.83348  0.24116  0.64205  1.0000
  C   C4751     1.0  0.89556  0.18465  0.73152  1.0000
  C   C4752     1.0  0.87831  0.18276  0.73443  1.0000
  C   C4753     1.0  0.86768  0.18271  0.75082  1.0000
  C   C4754     1.0  0.87421  0.18481  0.76429  1.0000
  C   C4755     1.0  0.89143  0.18710  0.76137  1.0000
  C   C4756     1.0  0.90221  0.18657  0.74498  1.0000
  P   P158      1.0  0.89988  0.18988  0.77873  1.0000
  C   C4757     1.0  0.88163  0.19980  0.79351  1.0000
  C   C4758     1.0  0.91154  0.16931  0.78880  1.0000
  C   C4759     1.0  0.91665  0.16753  0.80449  1.0000
  C   C4760     1.0  0.92644  0.15189  0.81177  1.0000
  C   C4761     1.0  0.93126  0.13791  0.80345  1.0000
  C   C4762     1.0  0.92614  0.13950  0.78792  1.0000
  C   C4763     1.0  0.91636  0.15512  0.78059  1.0000
  C   C4764     1.0  0.87601  0.19104  0.81044  1.0000
  C   C4765     1.0  0.86176  0.19909  0.82147  1.0000
  C   C4766     1.0  0.85273  0.21571  0.81555  1.0000
  C   C4767     1.0  0.85778  0.22417  0.79852  1.0000
  C   C4768     1.0  0.87218  0.21629  0.78761  1.0000
  C   C4769     1.0  0.91430  0.20507  0.76985  1.0000
  C   C4770     1.0  0.91092  0.21859  0.75581  1.0000
  C   C4771     1.0  0.92206  0.23025  0.74875  1.0000
  C   C4772     1.0  0.93655  0.22870  0.75578  1.0000
  C   C4773     1.0  0.93999  0.21542  0.76979  1.0000
  C   C4774     1.0  0.92896  0.20363  0.77678  1.0000
  H   H3796     1.0  0.90384  0.18433  0.71883  1.0000
  H   H3797     1.0  0.87327  0.18110  0.72397  1.0000
  H   H3798     1.0  0.85443  0.18094  0.75298  1.0000
  H   H3799     1.0  0.86584  0.18466  0.77693  1.0000
  H   H3800     1.0  0.91573  0.18766  0.74254  1.0000
  H   H3801     1.0  0.91364  0.17843  0.81077  1.0000
  H   H3802     1.0  0.93108  0.15084  0.82340  1.0000
  H   H3803     1.0  0.93942  0.12600  0.80874  1.0000
  H   H3804     1.0  0.93018  0.12876  0.78129  1.0000
  H   H3805     1.0  0.91296  0.15608  0.76833  1.0000
  H   H3806     1.0  0.88239  0.17798  0.81513  1.0000
  H   H3807     1.0  0.85765  0.19239  0.83458  1.0000
  H   H3808     1.0  0.84172  0.22200  0.82405  1.0000
  H   H3809     1.0  0.85072  0.23693  0.79369  1.0000
  H   H3810     1.0  0.87586  0.22306  0.77448  1.0000
  H   H3811     1.0  0.89972  0.22016  0.75015  1.0000
  H   H3812     1.0  0.91937  0.24052  0.73786  1.0000
  H   H3813     1.0  0.94512  0.23780  0.75043  1.0000
  H   H3814     1.0  0.95122  0.21426  0.77526  1.0000
  H   H3815     1.0  0.93210  0.19345  0.78749  1.0000
  P   P159      1.0  0.80516  0.25706  0.79494  1.0000
  C   C4775     1.0  0.81452  0.25880  0.81222  1.0000
  C   C4776     1.0  0.80661  0.25330  0.82955  1.0000
  C   C4777     1.0  0.81295  0.25577  0.84297  1.0000
  C   C4778     1.0  0.82737  0.26346  0.83925  1.0000
  C   C4779     1.0  0.83592  0.26805  0.82214  1.0000
  C   C4780     1.0  0.82938  0.26603  0.80865  1.0000
  C   C4781     1.0  0.81355  0.23560  0.79033  1.0000
  C   C4782     1.0  0.81926  0.23301  0.77325  1.0000
  C   C4783     1.0  0.82605  0.21635  0.76997  1.0000
  C   C4784     1.0  0.82671  0.20210  0.78367  1.0000
  C   C4785     1.0  0.82060  0.20450  0.80067  1.0000
  C   C4786     1.0  0.81401  0.22117  0.80400  1.0000
  H   H3816     1.0  0.78437  0.29002  0.77920  1.0000
  H   H3817     1.0  0.79509  0.24776  0.83274  1.0000
  H   H3818     1.0  0.80629  0.25246  0.85626  1.0000
  H   H3819     1.0  0.83143  0.26644  0.84960  1.0000
  H   H3820     1.0  0.84705  0.27417  0.81922  1.0000
  H   H3821     1.0  0.81847  0.24372  0.76235  1.0000
  H   H3822     1.0  0.83075  0.21453  0.75675  1.0000
  H   H3823     1.0  0.80923  0.22277  0.81724  1.0000
  H   H3824     1.0  0.79900  0.14234  0.89803  1.0000
  C   C4787     1.0  0.89074  0.25133  0.57287  1.0000
  C   C4788     1.0  0.77229  0.24902  0.79979  1.0000
  Fe  Fe329     1.0  0.75328  0.08184  0.48499  1.0000
  C   C4789     1.0  0.79582  0.14940  0.90838  1.0000
  C   C4790     1.0  0.97342  0.20671  0.70803  1.0000
  C   C4791     1.0  0.83632  0.12164  0.95779  1.0000
  H   H3825     1.0  0.91932  0.13345  0.57704  1.0000
  H   H3826     1.0  0.84180  0.16493  0.50156  1.0000
  H   H3827     1.0  0.87931  0.26071  0.61480  1.0000
  H   H3828     1.0  0.87457  0.24501  0.55885  1.0000
  C   C4792     1.0  0.82706  0.27191  0.76562  1.0000
  H   H3829     1.0  0.86134  0.24833  0.64202  1.0000
  C   C4793     1.0  0.90188  0.28767  0.57166  1.0000
  C   C4794     1.0  0.86119  0.26148  0.59896  1.0000
  H   H3830     1.0  0.88641  0.27601  0.54161  1.0000
  C   C4795     1.0  0.88205  0.17685  0.53685  1.0000
  H   H3831     1.0  0.77037  0.28140  0.59838  1.0000
  C   C4796     1.0  0.89102  0.17858  0.54863  1.0000
  C   C4797     1.0  0.84634  0.29028  0.56514  1.0000
  C   C4798     1.0  0.88792  0.15937  0.91256  1.0000
  C   C4799     1.0  0.84983  0.28494  0.49417  1.0000
  H   H3832     1.0  0.94136  0.31231  0.74695  1.0000
  H   H3833     1.0  0.97140  0.23997  0.56191  1.0000
  C   C4800     1.0  0.85673  0.25112  0.63005  1.0000
  H   H3834     1.0  0.77067  0.25028  0.96650  1.0000
  H   H3835     1.0  0.80156  0.26985  0.52025  1.0000
  H   H3836     1.0  0.88026  0.29761  0.82720  1.0000
  C   C4801     1.0  0.95846  0.23564  0.54358  1.0000
  Fe  Fe330     1.0  0.81325  0.22976  0.96658  1.0000
  H   H3837     1.0  0.95426  0.18941  0.74887  1.0000
  C   C4802     1.0  0.88462  0.15172  0.56693  1.0000
  H   H3838     1.0  0.83933  0.29041  0.57828  1.0000
  C   C4803     1.0  0.86724  0.17373  0.97187  1.0000
  C   C4804     1.0  0.98047  0.24060  0.70857  1.0000
  H   H3839     1.0  0.80172  0.17367  0.96523  1.0000
  H   H3840     1.0  0.96650  0.21498  0.73252  1.0000
  C   C4805     1.0  0.84093  0.24715  0.63003  1.0000
  C   C4806     1.0  0.98986  0.31124  0.78328  1.0000
  C   C4807     1.0  0.96724  0.30768  0.86224  1.0000
  C   C4808     1.0  0.90602  0.13540  0.62570  1.0000
  C   C4809     1.0  0.78913  0.25929  0.57564  1.0000
  C   C4810     1.0  0.84697  0.29979  0.53437  1.0000
  H   H3841     1.0  0.93995  0.30623  0.79885  1.0000
  S   S655      1.0  0.96537  0.30598  0.63032  1.0000
  C   C4811     1.0  0.74744  0.28250  0.51686  1.0000
  C   C4812     1.0  0.87123  0.24758  0.72722  1.0000
  S   S656      1.0  0.96082  0.26780  0.61263  1.0000
  C   C4813     1.0  0.89066  0.13157  0.93225  1.0000
  H   H3842     1.0  0.89786  0.14880  0.48887  1.0000
  C   C4814     1.0  0.86806  0.25732  0.69734  1.0000
  C   C4815     1.0  0.78852  0.27472  0.56319  1.0000
  C   C4816     1.0  0.95447  0.31247  0.73957  1.0000
  C   C4817     1.0  0.78354  0.07126  0.57024  1.0000
  C   C4818     1.0  0.96433  0.26155  0.72637  1.0000
  C   C4819     1.0  0.84555  0.25699  0.59893  1.0000
  H   H3843     1.0  0.92715  0.25768  0.60317  1.0000
  C   C4820     1.0  0.88571  0.28527  0.58220  1.0000
  C   C4821     1.0  0.90195  0.24459  0.64218  1.0000
  H   H3844     1.0  0.78432  0.25050  0.54240  1.0000
  H   H3845     1.0  0.83041  0.30517  0.68322  1.0000
  H   H3846     1.0  0.85651  0.27577  0.50369  1.0000
  C   C4822     1.0  0.85628  0.26817  0.86611  1.0000
  C   C4823     1.0  0.87773  0.29552  0.59462  1.0000
  C   C4824     1.0  0.77362  0.23931  0.88199  1.0000
  C   C4825     1.0  0.82187  0.29769  0.94048  1.0000
  C   C4826     1.0  0.91040  0.29950  0.57409  1.0000
  H   H3847     1.0  0.91479  0.23226  0.62068  1.0000
  C   C4827     1.0  0.83529  0.25015  0.61448  1.0000
  H   H3848     1.0  0.78720  0.19581  0.89047  1.0000
  H   H3849     1.0  0.83151  0.11470  0.95090  1.0000
  C   C4828     1.0  0.77783  0.17305  0.92198  1.0000
  C   C4829     1.0  0.87714  0.16449  0.95912  1.0000
  C   C4830     1.0  0.91153  0.27510  0.67923  1.0000
  S   S657      1.0  0.87195  0.25166  0.74715  1.0000
  C   C4831     1.0  0.85661  0.18431  0.49793  1.0000
  C   C4832     1.0  0.78869  0.25002  0.91871  1.0000
  C   C4833     1.0  0.94220  0.23818  0.66688  1.0000
  H   H3850     1.0  0.74772  0.25306  0.85596  1.0000
  C   C4834     1.0  0.77916  0.16095  0.65778  1.0000
  H   H3851     1.0  0.93249  0.23210  0.66511  1.0000
  S   S658      1.0  0.86162  0.30957  0.79482  1.0000
  H   H3852     1.0  0.74703  0.24242  0.80455  1.0000
  H   H3853     1.0  0.96270  0.28649  0.78102  1.0000
  S   S659      1.0  0.83990  0.21335  0.96607  1.0000
  C   C4835     1.0  0.88541  0.31624  0.97464  1.0000
  H   H3854     1.0  0.84305  0.27578  0.93739  1.0000
  C   C4836     1.0  0.82979  0.30901  0.81647  1.0000
  H   H3855     1.0  0.84152  0.25834  0.58690  1.0000
  H   H3856     1.0  0.95236  0.24862  0.71399  1.0000
  C   C4837     1.0  0.87022  0.26081  0.71260  1.0000
  H   H3857     1.0  0.90971  0.28273  0.82359  1.0000
  H   H3858     1.0  0.97941  0.30431  0.70101  1.0000
  C   C4838     1.0  0.95049  0.25547  0.79936  1.0000
  C   C4839     1.0  0.75191  0.28851  0.58139  1.0000
  C   C4840     1.0  0.77366  0.17337  0.62401  1.0000
  C   C4841     1.0  0.77254  0.18511  0.63442  1.0000
  C   C4842     1.0  0.93470  0.26632  0.82515  1.0000
  H   H3859     1.0  0.86671  0.26765  0.68624  1.0000
  H   H3860     1.0  0.83726  0.26094  0.76892  1.0000
  C   C4843     1.0  0.87391  0.30501  0.67358  1.0000
  C   C4844     1.0  0.91876  0.25833  0.61576  1.0000
  H   H3861     1.0  0.88027  0.18713  0.52574  1.0000
  H   H3862     1.0  0.93982  0.25476  0.93159  1.0000
  C   C4845     1.0  0.75100  0.05609  0.55894  1.0000
  H   H3863     1.0  0.95203  0.26885  0.73219  1.0000
  H   H3864     1.0  0.97177  0.25257  0.92145  1.0000
  C   C4846     1.0  0.95903  0.30780  0.72342  1.0000
  H   H3865     1.0  0.86619  0.16198  0.53159  1.0000
  C   C4847     1.0  0.80599  0.04060  0.54869  1.0000
  C   C4848     1.0  0.96283  0.26439  0.91723  1.0000
  P   P160      1.0  0.76738  0.20806  0.62599  1.0000
  H   H3866     1.0  0.77128  0.17783  0.61097  1.0000
  C   C4849     1.0  0.77136  0.31183  0.55720  1.0000
  S   S660      1.0  0.87056  0.30246  0.74507  1.0000
  H   H3867     1.0  0.86499  0.29430  0.60251  1.0000
  C   C4850     1.0  0.77226  0.23850  0.63181  1.0000
  C   C4851     1.0  0.76348  0.19673  0.51008  1.0000
  C   C4852     1.0  0.78493  0.31559  0.56254  1.0000
  H   H3868     1.0  0.82413  0.24957  0.93422  1.0000
  H   H3869     1.0  0.92025  0.28429  0.61395  1.0000
  C   C4853     1.0  0.80438  0.27192  0.90070  1.0000
  H   H3870     1.0  0.88441  0.14242  0.57902  1.0000
  C   C4854     1.0  0.88800  0.17509  0.49162  1.0000
  H   H3871     1.0  0.80113  0.24791  0.65030  1.0000
  C   C4855     1.0  0.92067  0.27189  0.69251  1.0000
  C   C4856     1.0  0.76036  0.24120  0.89650  1.0000
  C   C4857     1.0  0.81359  0.13635  0.48264  1.0000
  C   C4858     1.0  0.74972  0.14336  0.52667  1.0000
  C   C4859     1.0  0.81473  0.25348  0.92591  1.0000
  C   C4860     1.0  0.94502  0.25392  0.65630  1.0000
  C   C4861     1.0  0.75433  0.25097  0.80652  1.0000
  C   C4862     1.0  0.91503  0.27347  0.62218  1.0000
  C   C4863     1.0  0.79044  0.26352  0.90434  1.0000
  S   S661      1.0  0.93863  0.26431  0.76924  1.0000
  H   H3872     1.0  0.85115  0.13479  0.93485  1.0000
  H   H3873     1.0  0.76121  0.24486  0.62572  1.0000
  C   C4864     1.0  0.75790  0.20972  0.96503  1.0000
  C   C4865     1.0  0.76614  0.22266  0.59125  1.0000
  C   C4866     1.0  0.82289  0.30196  0.48566  1.0000
  C   C4867     1.0  0.76503  0.27304  0.94709  1.0000
  C   C4868     1.0  0.77603  0.21162  0.60309  1.0000
  H   H3874     1.0  0.76507  0.23262  0.56446  1.0000
  H   H3875     1.0  0.95976  0.24892  0.82320  1.0000
  C   C4869     1.0  0.77818  0.22053  0.63381  1.0000
  H   H3876     1.0  0.78095  0.26749  0.89614  1.0000
  C   C4870     1.0  0.94928  0.25608  0.81664  1.0000
  C   C4871     1.0  0.77301  0.22459  0.57353  1.0000
  H   H3877     1.0  0.82336  0.24646  0.61438  1.0000
  C   C4872     1.0  0.76152  0.18844  0.47960  1.0000
  C   C4873     1.0  0.79309  0.20323  0.59699  1.0000
  H   H3878     1.0  0.80488  0.30868  0.83376  1.0000
  C   C4874     1.0  0.95804  0.29321  0.89937  1.0000
  H   H3879     1.0  0.78139  0.15611  0.67084  1.0000
  H   H3880     1.0  0.86956  0.29964  0.91544  1.0000
  C   C4875     1.0  0.92211  0.27447  0.79961  1.0000
  H   H3881     1.0  0.87055  0.27380  0.71320  1.0000
  H   H3882     1.0  0.76263  0.20532  0.55011  1.0000
  H   H3883     1.0  0.98682  0.08686  0.67558  1.0000
  C   C4876     1.0  0.78981  0.21572  0.56753  1.0000
  H   H3884     1.0  0.96740  0.27711  0.84048  1.0000
  H   H3885     1.0  0.79310  0.09227  0.57354  1.0000
  C   C4877     1.0  0.83891  0.31070  0.79928  1.0000
  C   C4878     1.0  0.97595  0.30766  0.71364  1.0000
  H   H3886     1.0  0.76921  0.06163  0.62018  1.0000
  H   H3887     1.0  0.82278  0.21880  0.91479  1.0000
  H   H3888     1.0  0.93084  0.30560  0.90021  1.0000
  H   H3889     1.0  0.79502  0.21680  0.55380  1.0000
  H   H3890     1.0  0.77827  0.27519  0.94369  1.0000
  H   H3891     1.0  0.87147  0.29180  0.51765  1.0000
  H   H3892     1.0  0.91156  0.28158  0.79313  1.0000
  C   C4879     1.0  0.79991  0.20526  0.57930  1.0000
  C   C4880     1.0  0.79492  0.24035  0.64543  1.0000
  H   H3893     1.0  0.98088  0.23204  0.75934  1.0000
  H   H3894     1.0  0.97779  0.25964  0.67193  1.0000
  H   H3895     1.0  0.89687  0.23337  0.64992  1.0000
  H   H3896     1.0  0.77130  0.23046  0.53349  1.0000
  C   C4881     1.0  0.83162  0.29015  0.49795  1.0000
  C   C4882     1.0  0.80374  0.27758  0.55093  1.0000
  H   H3897     1.0  0.85214  0.21998  0.91759  1.0000
  C   C4883     1.0  0.89545  0.16095  0.95663  1.0000
  H   H3898     1.0  0.90516  0.19935  0.59242  1.0000
  C   C4884     1.0  0.85649  0.30780  0.68227  1.0000
  H   H3899     1.0  0.77491  0.20889  0.94031  1.0000
  C   C4885     1.0  0.93697  0.26481  0.79082  1.0000
  H   H3900     1.0  0.96187  0.24774  0.79263  1.0000
  C   C4886     1.0  0.90395  0.12446  0.91980  1.0000
  C   C4887     1.0  0.76577  0.29533  0.52708  1.0000
  H   H3901     1.0  0.81341  0.21553  0.49099  1.0000
  H   H3902     1.0  0.95243  0.18624  0.53317  1.0000
  C   C4888     1.0  0.75657  0.99741  0.58370  1.0000
  H   H3903     1.0  0.77618  0.25054  0.87225  1.0000
  H   H3904     1.0  0.91197  0.31281  0.96032  1.0000
  H   H3905     1.0  0.88658  0.13242  0.52082  1.0000
  H   H3906     1.0  0.93753  0.26000  0.64640  1.0000
  C   C4889     1.0  0.75137  0.06724  0.54276  1.0000
  H   H3907     1.0  0.84906  0.26014  0.87673  1.0000
  C   C4890     1.0  0.80141  0.22262  0.64669  1.0000
  C   C4891     1.0  0.89303  0.16569  0.56342  1.0000
  H   H3908     1.0  0.75306  0.22959  0.59553  1.0000
  H   H3909     1.0  0.90355  0.15415  0.94670  1.0000
  S   S662      1.0  0.86987  0.24745  0.95908  1.0000
  H   H3910     1.0  0.75323  0.14409  0.53840  1.0000
  C   C4892     1.0  0.81668  0.26679  0.91132  1.0000
  H   H3911     1.0  0.98245  0.26429  0.79809  1.0000
  C   C4893     1.0  0.90519  0.27416  0.63896  1.0000
  C   C4894     1.0  0.84772  0.20788  0.92203  1.0000
  H   H3912     1.0  0.83213  0.24097  0.56466  1.0000
  H   H3913     1.0  0.79865  0.19917  0.64169  1.0000
  C   C4895     1.0  0.83829  0.28758  0.94242  1.0000
  C   C4896     1.0  0.91541  0.13406  0.59061  1.0000
  Fe  Fe331     1.0  0.88279  0.27412  0.74830  1.0000
  H   H3914     1.0  0.77283  0.03713  0.53175  1.0000
  C   C4897     1.0  0.83108  0.20728  0.92053  1.0000
  H   H3915     1.0  0.87109  0.19384  0.93107  1.0000
  S   S663      1.0  0.88765  0.27189  0.77466  1.0000
  H   H3916     1.0  0.89573  0.19037  0.54655  1.0000
  C   C4898     1.0  0.85225  0.17754  0.93614  1.0000
  H   H3917     1.0  0.82998  0.16569  0.94014  1.0000
  C   C4899     1.0  0.96940  0.27807  0.90549  1.0000
  C   C4900     1.0  0.89259  0.10771  0.47994  1.0000
  C   C4901     1.0  0.85829  0.19309  0.92981  1.0000
  P   P161      1.0  0.90147  0.29314  0.64821  1.0000
  H   H3918     1.0  0.89662  0.16254  0.61752  1.0000
  H   H3919     1.0  0.75281  0.25392  0.89806  1.0000
  H   H3920     1.0  0.93909  0.28011  0.70212  1.0000
  H   H3921     1.0  0.85191  0.21711  0.61491  1.0000
  C   C4902     1.0  0.87483  0.27221  0.83764  1.0000
  H   H3922     1.0  0.91983  0.12935  0.89426  1.0000
  H   H3923     1.0  0.82735  0.03186  0.50925  1.0000
  C   C4903     1.0  0.76635  0.21017  0.90705  1.0000
  H   H3924     1.0  0.96845  0.19003  0.55366  1.0000
  H   H3925     1.0  0.82748  0.27329  0.90845  1.0000
  P   P162      1.0  0.90292  0.16911  0.57948  1.0000
  H   H3926     1.0  0.76445  0.10251  0.51599  1.0000
  S   S664      1.0  0.90967  0.27815  0.73503  1.0000
  C   C4904     1.0  0.89853  0.25958  0.64880  1.0000
  H   H3927     1.0  0.91862  0.26140  0.70346  1.0000
  C   C4905     1.0  0.90256  0.30941  0.58669  1.0000
  Fe  Fe332     1.0  0.91349  0.27835  0.76104  1.0000
  C   C4906     1.0  0.79317  0.21278  0.64078  1.0000
  C   C4907     1.0  0.86915  0.18452  0.59309  1.0000
  C   C4908     1.0  0.85656  0.19617  0.60191  1.0000
  H   H3928     1.0  0.83663  0.31525  0.77272  1.0000
  H   H3929     1.0  0.95960  0.27404  0.65033  1.0000
  Fe  Fe333     1.0  0.97777  0.28470  0.61502  1.0000
  C   C4909     1.0  0.90697  0.14980  0.59566  1.0000
  C   C4910     1.0  0.78230  0.23779  0.50650  1.0000
  H   H3930     1.0  0.84516  0.19432  0.50026  1.0000
  H   H3931     1.0  0.96793  0.28009  0.86962  1.0000
  Fe  Fe334     1.0  0.78092  0.29768  0.87382  1.0000
  C   C4911     1.0  0.80481  0.14358  0.92197  1.0000
  C   C4912     1.0  0.82482  0.19201  0.92710  1.0000
  H   H3932     1.0  0.84051  0.30675  0.52375  1.0000
  H   H3933     1.0  0.91030  0.11098  0.92267  1.0000
  H   H3934     1.0  0.96665  0.30239  0.81649  1.0000
  C   C4913     1.0  0.93348  0.17690  0.58241  1.0000
  C   C4914     1.0  0.78587  0.03727  0.53282  1.0000
  C   C4915     1.0  0.93123  0.17808  0.55311  1.0000
  H   H3935     1.0  0.81159  0.19183  0.92664  1.0000
  H   H3936     1.0  0.92845  0.17429  0.59622  1.0000
  C   C4916     1.0  0.94722  0.18339  0.54696  1.0000
  C   C4917     1.0  0.75957  0.18259  0.56943  1.0000
  S   S665      1.0  0.80625  0.28899  0.88302  1.0000
  C   C4918     1.0  0.85477  0.16765  0.49838  1.0000
  C   C4919     1.0  0.77928  0.23859  0.52392  1.0000
  C   C4920     1.0  0.83534  0.17719  0.93485  1.0000
  C   C4921     1.0  0.90260  0.15045  0.61329  1.0000
  H   H3937     1.0  0.90248  0.13595  0.63929  1.0000
  C   C4922     1.0  0.91878  0.11903  0.60306  1.0000
  C   C4923     1.0  0.74994  0.20295  0.48508  1.0000
  C   C4924     1.0  0.96708  0.30388  0.82913  1.0000
  C   C4925     1.0  0.93339  0.28057  0.91673  1.0000
  H   H3938     1.0  0.81294  0.19845  0.57477  1.0000
  H   H3939     1.0  0.92510  0.10687  0.59912  1.0000
  C   C4926     1.0  0.89170  0.19834  0.59470  1.0000
  H   H3940     1.0  0.95635  0.18393  0.58526  1.0000
  C   C4927     1.0  0.91400  0.11969  0.62061  1.0000
  C   C4928     1.0  0.86598  0.29348  0.65268  1.0000
  C   C4929     1.0  0.87906  0.21005  0.60345  1.0000
  H   H3941     1.0  0.89059  0.25967  0.66160  1.0000
  H   H3942     1.0  0.97967  0.27209  0.73763  1.0000
  C   C4930     1.0  0.76989  0.05404  0.59651  1.0000
  H   H3943     1.0  0.75576  0.29479  0.92821  1.0000
  H   H3944     1.0  0.91656  0.10806  0.63029  1.0000
  C   C4931     1.0  0.97308  0.29011  0.78463  1.0000
  H   H3945     1.0  0.78445  0.08588  0.60543  1.0000
  C   C4932     1.0  0.86155  0.20877  0.60729  1.0000
  C   C4933     1.0  0.74927  0.27497  0.54709  1.0000
  H   H3946     1.0  0.88215  0.17295  0.90952  1.0000
  C   C4934     1.0  0.75415  0.19961  0.56140  1.0000
  H   H3947     1.0  0.88897  0.09888  0.49193  1.0000
  H   H3948     1.0  0.83298  0.03744  0.53565  1.0000
  H   H3949     1.0  0.78326  0.17320  0.94662  1.0000
  H   H3950     1.0  0.81495  0.13200  0.92222  1.0000
  H   H3951     1.0  0.83107  0.26743  0.54180  1.0000
  C   C4935     1.0  0.78687  0.16703  0.93561  1.0000
  C   C4936     1.0  0.75505  0.27483  0.81869  1.0000
  C   C4937     1.0  0.86619  0.26157  0.85162  1.0000
  H   H3952     1.0  0.84302  0.19501  0.60510  1.0000
  C   C4938     1.0  0.76046  0.28653  0.54404  1.0000
  C   C4939     1.0  0.87392  0.28934  0.83832  1.0000
  H   H3953     1.0  0.91944  0.28131  0.92081  1.0000
  C   C4940     1.0  0.77570  0.18318  0.50378  1.0000
  C   C4941     1.0  0.78035  0.01403  0.58925  1.0000
  C   C4942     1.0  0.82002  0.25045  0.56433  1.0000
  C   C4943     1.0  0.79237  0.24853  0.49395  1.0000
  C   C4944     1.0  0.91729  0.31490  0.84063  1.0000
  C   C4945     1.0  0.77975  0.20838  0.89244  1.0000
  H   H3954     1.0  0.88698  0.12348  0.94476  1.0000
  S   S666      1.0  0.80014  0.30862  0.49088  1.0000
  C   C4946     1.0  0.77541  0.05722  0.57846  1.0000
  H   H3955     1.0  0.77672  0.22886  0.50282  1.0000
  C   C4947     1.0  0.76247  0.14307  0.51158  1.0000
  H   H3956     1.0  0.86945  0.28777  0.64134  1.0000
  H   H3957     1.0  0.80106  0.19481  0.60589  1.0000
  C   C4948     1.0  0.80233  0.31405  0.80721  1.0000
  C   C4949     1.0  0.81812  0.29878  0.74628  1.0000
  H   H3958     1.0  0.76363  0.06893  0.53410  1.0000
  C   C4950     1.0  0.85325  0.14245  0.95766  1.0000
  C   C4951     1.0  0.80493  0.24744  0.57646  1.0000
  H   H3959     1.0  0.87464  0.20098  0.49414  1.0000
  C   C4952     1.0  0.84858  0.29624  0.66144  1.0000
  C   C4953     1.0  0.83800  0.29943  0.55147  1.0000
  C   C4954     1.0  0.91414  0.28858  0.66485  1.0000
  H   H3960     1.0  0.79718  0.03199  0.50738  1.0000
  C   C4955     1.0  0.81670  0.03403  0.52009  1.0000
  H   H3961     1.0  0.92316  0.30087  0.56621  1.0000
  H   H3962     1.0  0.83882  0.29251  0.65695  1.0000
  H   H3963     1.0  0.87434  0.29508  0.88577  1.0000
  C   C4956     1.0  0.94484  0.26561  0.92285  1.0000
  C   C4957     1.0  0.93994  0.29432  0.90502  1.0000
  H   H3964     1.0  0.94936  0.30450  0.71843  1.0000
  S   S667      1.0  0.91716  0.24387  0.47933  1.0000
  H   H3965     1.0  0.97959  0.19415  0.68621  1.0000
  C   C4958     1.0  0.76076  0.25894  0.95989  1.0000
  H   H3966     1.0  0.74663  0.09652  0.59913  1.0000
  H   H3967     1.0  0.93390  0.30026  0.62468  1.0000
  P   P163      1.0  0.96665  0.31055  0.88360  1.0000
  H   H3968     1.0  0.74684  0.08755  0.57218  1.0000
  C   C4959     1.0  0.95759  0.26174  0.65842  1.0000
  C   C4960     1.0  0.79916  0.26022  0.49905  1.0000
  C   C4961     1.0  0.83094  0.28441  0.75080  1.0000
  H   H3969     1.0  0.98302  0.20050  0.77112  1.0000
  C   C4962     1.0  0.75823  0.14233  0.49629  1.0000
  C   C4963     1.0  0.78677  0.08149  0.57999  1.0000
  H   H3970     1.0  0.85279  0.10280  0.51318  1.0000
  C   C4964     1.0  0.97993  0.26344  0.72940  1.0000
  C   C4965     1.0  0.87882  0.29757  0.65887  1.0000
  C   C4966     1.0  0.78288  0.29581  0.96945  1.0000
  H   H3971     1.0  0.83680  0.30642  0.82680  1.0000
  C   C4967     1.0  0.84224  0.30740  0.95799  1.0000
  C   C4968     1.0  0.96785  0.25354  0.67072  1.0000
  Fe  Fe335     1.0  0.84634  0.23565  0.97276  1.0000
  P   P164      1.0  0.86735  0.13347  0.49422  1.0000
  H   H3972     1.0  0.76813  0.14220  0.48461  1.0000
  C   C4969     1.0  0.80942  0.21248  0.48071  1.0000
  H   H3973     1.0  0.84700  0.29039  0.87777  1.0000
  Fe  Fe336     1.0  0.89822  0.30638  0.73385  1.0000
  H   H3974     1.0  0.88354  0.30843  0.67856  1.0000
  S   S668      1.0  0.90406  0.30677  0.75907  1.0000
  C   C4970     1.0  0.90254  0.30707  0.97071  1.0000
  H   H3975     1.0  0.77301  0.18751  0.66011  1.0000
  C   C4971     1.0  0.86446  0.30998  0.90563  1.0000
  C   C4972     1.0  0.74738  0.31023  0.97136  1.0000
  H   H3976     1.0  0.91773  0.16407  0.96462  1.0000
  H   H3977     1.0  0.85314  0.17663  0.97397  1.0000
  H   H3978     1.0  0.76010  0.26204  0.48806  1.0000
  H   H3979     1.0  0.74606  0.22841  0.91995  1.0000
  C   C4973     1.0  0.80133  0.30059  0.75653  1.0000
  H   H3980     1.0  0.98026  0.07370  0.76887  1.0000
  C   C4974     1.0  0.98940  0.08702  0.74306  1.0000
  C   C4975     1.0  0.98848  0.31060  0.88541  1.0000
  C   C4976     1.0  0.86474  0.29579  0.85316  1.0000
  C   C4977     1.0  0.78107  0.14939  0.64708  1.0000
  H   H3981     1.0  0.92899  0.30510  0.84209  1.0000
  H   H3982     1.0  0.79145  0.31189  0.75323  1.0000
  H   H3983     1.0  0.78795  0.99045  0.60708  1.0000
  S   S669      1.0  0.82014  0.25298  0.97089  1.0000
  C   C4978     1.0  0.77771  0.31222  0.95947  1.0000
  H   H3984     1.0  0.82005  0.18629  0.97648  1.0000
  C   C4979     1.0  0.81536  0.31260  0.94758  1.0000
  C   C4980     1.0  0.98835  0.31194  0.72016  1.0000
  C   C4981     1.0  0.86694  0.30736  0.88883  1.0000
  H   H3985     1.0  0.82125  0.30857  0.73494  1.0000
  H   H3986     1.0  0.98338  0.27658  0.90088  1.0000
  H   H3987     1.0  0.85005  0.31101  0.96493  1.0000
  H   H3988     1.0  0.79364  0.30541  0.56942  1.0000
  C   C4982     1.0  0.81163  0.31035  0.82044  1.0000
  C   C4983     1.0  0.90089  0.31049  0.84691  1.0000
  H   H3989     1.0  0.92812  0.30963  0.65367  1.0000
  C   C4984     1.0  0.90661  0.31184  0.63199  1.0000
  S   S670      1.0  0.99097  0.15627  0.74774  1.0000
  C   C4985     1.0  0.92371  0.31160  0.62243  1.0000
  C   C4986     1.0  0.99333  0.20675  0.77116  1.0000
  C   C4987     1.0  0.99378  0.17113  0.82160  1.0000
  C   C4988     1.0  0.82973  0.31380  0.78603  1.0000
  C   C4989     1.0  0.99025  0.07329  0.75721  1.0000
  H   H3990     1.0  0.88004  0.31530  0.60655  1.0000
  H   H3991     1.0  0.74772  0.28012  0.62521  1.0000
  C   C4990     1.0  0.93150  0.31597  0.79131  1.0000
  H   H3992     1.0  0.85288  0.31319  0.69383  1.0000
  H   H3993     1.0  0.74535  0.26759  0.55993  1.0000
  S   S671      1.0  0.99064  0.28801  0.58692  1.0000
  C   C4991     1.0  0.99220  0.22445  0.76450  1.0000
  S   S672      1.0  0.99354  0.19302  0.84197  1.0000
  H   H3994     1.0  0.74941  0.02049  0.56531  1.0000
  C   C4992     1.0  0.83094  0.11955  0.97570  1.0000
  H   H3995     1.0  0.74522  0.16044  0.93181  1.0000
  H   H3996     1.0  0.74754  0.99088  0.58134  1.0000
  C   C4993     1.0  0.99285  0.30686  0.90175  1.0000
  C   C4994     1.0  0.84813  0.13989  0.97575  1.0000
  C   C4995     1.0  0.85938  0.29198  0.47827  1.0000
  C   C4996     1.0  0.81144  0.31578  0.79000  1.0000
  C   C4997     1.0  0.74399  0.28361  0.61277  1.0000
  H   H3997     1.0  0.92088  0.28344  0.97732  1.0000
  Fe  Fe337     1.0  0.79405  0.56939  0.13042  1.0000
  S   S673      1.0  0.78647  0.55970  0.15903  1.0000
  S   S674      1.0  0.79533  0.55110  0.11271  1.0000
  Fe  Fe338     1.0  0.80803  0.59961  0.13616  1.0000
  S   S675      1.0  0.80144  0.59149  0.16490  1.0000
  Fe  Fe339     1.0  0.81204  0.56461  0.16053  1.0000
  S   S676      1.0  0.83205  0.54457  0.17314  1.0000
  Fe  Fe340     1.0  0.77653  0.58771  0.16032  1.0000
  S   S677      1.0  0.82043  0.57268  0.13200  1.0000
  S   S678      1.0  0.78229  0.59752  0.13150  1.0000
  H   H3998     1.0  0.77585  0.33515  0.39737  1.0000
  C   C4998     1.0  0.90328  0.58945  0.10701  1.0000
  H   H3999     1.0  0.87294  0.48060  0.33681  1.0000
  Fe  Fe341     1.0  0.94394  0.63648  0.27208  1.0000
  S   S679      1.0  0.93974  0.61514  0.29488  1.0000
  C   C4999     1.0  0.88145  0.34494  0.38032  1.0000
  Fe  Fe342     1.0  0.96609  0.61637  0.29825  1.0000
  S   S680      1.0  0.97089  0.61448  0.32496  1.0000
  Fe  Fe343     1.0  0.95371  0.59734  0.27638  1.0000
  S   S681      1.0  0.93948  0.57522  0.28010  1.0000
  S   S682      1.0  0.96900  0.63930  0.27688  1.0000
  S   S683      1.0  0.95631  0.61900  0.25325  1.0000
  Fe  Fe344     1.0  0.77063  0.43894  0.34622  1.0000
  S   S684      1.0  0.79669  0.43017  0.33014  1.0000
  C   C5000     1.0  0.83590  0.51356  0.02084  1.0000
  C   C5001     1.0  0.86560  0.54354  0.32963  1.0000
  S   S685      1.0  0.79534  0.47123  0.31135  1.0000
  C   C5002     1.0  0.76590  0.49513  0.02321  1.0000
  Fe  Fe345     1.0  0.78590  0.44880  0.30840  1.0000
  S   S686      1.0  0.78656  0.44146  0.28371  1.0000
  Fe  Fe346     1.0  0.80379  0.45322  0.33480  1.0000
  S   S687      1.0  0.82889  0.45051  0.34334  1.0000
  C   C5003     1.0  0.82440  0.32761  0.14260  1.0000
  S   S688      1.0  0.77853  0.46038  0.35310  1.0000
  Fe  Fe347     1.0  0.86681  0.51684  0.24847  1.0000
  S   S689      1.0  0.88509  0.52059  0.22312  1.0000
  S   S690      1.0  0.84204  0.53693  0.24883  1.0000
  Fe  Fe348     1.0  0.89129  0.48492  0.26247  1.0000
  S   S691      1.0  0.91147  0.48638  0.23767  1.0000
  S   S692      1.0  0.89559  0.46386  0.28570  1.0000
  Fe  Fe349     1.0  0.90620  0.51482  0.23825  1.0000
  S   S693      1.0  0.92635  0.53211  0.23068  1.0000
  Fe  Fe350     1.0  0.88821  0.49215  0.22500  1.0000
  S   S694      1.0  0.88219  0.48506  0.20218  1.0000
  S   S695      1.0  0.88751  0.51283  0.26369  1.0000
  S   S696      1.0  0.86869  0.48876  0.24979  1.0000
  Fe  Fe351     1.0  0.77524  0.35293  0.44220  1.0000
  S   S697      1.0  0.79929  0.33188  0.44096  1.0000
  S   S698      1.0  0.77760  0.38081  0.43349  1.0000
  C   C5004     1.0  0.86006  0.63911  0.25094  1.0000
  C   C5005     1.0  0.82879  0.51745  0.98815  1.0000
  C   C5006     1.0  0.76173  0.33028  0.38056  1.0000
  H   H4000     1.0  0.76524  0.53014  0.04788  1.0000
  H   H4001     1.0  0.77100  0.44230  0.06149  1.0000
  S   S699      1.0  0.75979  0.33959  0.43231  1.0000
  Fe  Fe352     1.0  0.85158  0.40584  0.18605  1.0000
  S   S700      1.0  0.82560  0.40733  0.20424  1.0000
  S   S701      1.0  0.87395  0.41332  0.19266  1.0000
  Fe  Fe353     1.0  0.84098  0.38625  0.16349  1.0000
  S   S702      1.0  0.81460  0.38592  0.18066  1.0000
  S   S703      1.0  0.84698  0.37516  0.13912  1.0000
  Fe  Fe354     1.0  0.81441  0.41340  0.18051  1.0000
  S   S704      1.0  0.78955  0.43273  0.17765  1.0000
  Fe  Fe355     1.0  0.82855  0.37978  0.20260  1.0000
  S   S705      1.0  0.82428  0.35932  0.22651  1.0000
  S   S706      1.0  0.84023  0.41446  0.16206  1.0000
  S   S707      1.0  0.85514  0.37766  0.18560  1.0000
  C   C5007     1.0  0.75086  0.46141  0.23659  1.0000
  C   C5008     1.0  0.83852  0.35666  0.14060  1.0000
  C   C5009     1.0  0.83162  0.34731  0.15665  1.0000
  C   C5010     1.0  0.82495  0.33270  0.15760  1.0000
  C   C5011     1.0  0.75388  0.40539  0.11672  1.0000
  C   C5012     1.0  0.83452  0.50835  0.28755  1.0000
  C   C5013     1.0  0.83874  0.35112  0.12554  1.0000
  H   H4002     1.0  0.83169  0.35115  0.16837  1.0000
  H   H4003     1.0  0.74449  0.40647  0.31925  1.0000
  C   C5014     1.0  0.89911  0.64028  0.13287  1.0000
  H   H4004     1.0  0.84349  0.63911  0.29348  1.0000
  C   C5015     1.0  0.79890  0.34073  0.24143  1.0000
  C   C5016     1.0  0.80270  0.35651  0.23166  1.0000
  C   C5017     1.0  0.78934  0.36969  0.22592  1.0000
  C   C5018     1.0  0.76911  0.34374  0.06106  1.0000
  H   H4005     1.0  0.80924  0.33062  0.24586  1.0000
  H   H4006     1.0  0.79224  0.38191  0.21832  1.0000
  H   H4007     1.0  0.90736  0.33546  0.36679  1.0000
  C   C5019     1.0  0.79009  0.32093  0.19386  1.0000
  C   C5020     1.0  0.79822  0.42815  0.12800  1.0000
  C   C5021     1.0  0.79986  0.42601  0.14508  1.0000
  C   C5022     1.0  0.78665  0.43434  0.15671  1.0000
  C   C5023     1.0  0.77134  0.44413  0.15140  1.0000
  H   H4008     1.0  0.81325  0.36846  0.38943  1.0000
  H   H4009     1.0  0.80874  0.42215  0.11897  1.0000
  H   H4010     1.0  0.81142  0.41794  0.14914  1.0000
  H   H4011     1.0  0.76091  0.45033  0.16041  1.0000
  C   C5024     1.0  0.87770  0.46474  0.20296  1.0000
  C   C5025     1.0  0.88898  0.44942  0.20856  1.0000
  C   C5026     1.0  0.88703  0.43360  0.20618  1.0000
  C   C5027     1.0  0.87358  0.43287  0.19852  1.0000
  C   C5028     1.0  0.86153  0.44803  0.19399  1.0000
  C   C5029     1.0  0.86386  0.46396  0.19582  1.0000
  H   H4012     1.0  0.89988  0.44988  0.21374  1.0000
  H   H4013     1.0  0.89643  0.42195  0.20966  1.0000
  H   H4014     1.0  0.85123  0.44766  0.18791  1.0000
  H   H4015     1.0  0.85526  0.47578  0.19118  1.0000
  C   C5030     1.0  0.75728  0.33991  0.18785  1.0000
  C   C5031     1.0  0.76338  0.40790  0.38146  1.0000
  H   H4016     1.0  0.76754  0.40616  0.11336  1.0000
  C   C5032     1.0  0.76859  0.38169  0.40304  1.0000
  C   C5033     1.0  0.77305  0.39086  0.41303  1.0000
  C   C5034     1.0  0.77342  0.40842  0.40684  1.0000
  C   C5035     1.0  0.76876  0.41692  0.39094  1.0000
  C   C5036     1.0  0.84197  0.33964  0.39265  1.0000
  H   H4017     1.0  0.76866  0.36810  0.40750  1.0000
  H   H4018     1.0  0.77713  0.41548  0.41444  1.0000
  H   H4019     1.0  0.76902  0.43046  0.38619  1.0000
  C   C5037     1.0  0.84706  0.45439  0.32691  1.0000
  C   C5038     1.0  0.86378  0.44716  0.33031  1.0000
  C   C5039     1.0  0.87855  0.44976  0.31741  1.0000
  C   C5040     1.0  0.87673  0.46015  0.30123  1.0000
  C   C5041     1.0  0.86001  0.46745  0.29784  1.0000
  C   C5042     1.0  0.84516  0.46452  0.31065  1.0000
  H   H4020     1.0  0.86533  0.43933  0.34287  1.0000
  H   H4021     1.0  0.89144  0.44392  0.32003  1.0000
  H   H4022     1.0  0.85850  0.47527  0.28534  1.0000
  H   H4023     1.0  0.83231  0.47030  0.30799  1.0000
  C   C5043     1.0  0.93532  0.56445  0.26554  1.0000
  C   C5044     1.0  0.94441  0.56553  0.24838  1.0000
  C   C5045     1.0  0.94143  0.55569  0.23781  1.0000
  C   C5046     1.0  0.92914  0.54491  0.24415  1.0000
  C   C5047     1.0  0.91965  0.54434  0.26109  1.0000
  C   C5048     1.0  0.92286  0.55387  0.27175  1.0000
  H   H4024     1.0  0.95408  0.57353  0.24342  1.0000
  H   H4025     1.0  0.94884  0.55628  0.22472  1.0000
  H   H4026     1.0  0.91001  0.53635  0.26604  1.0000
  H   H4027     1.0  0.91574  0.55294  0.28496  1.0000
  H   H4028     1.0  0.87633  0.56476  0.33072  1.0000
  H   H4029     1.0  0.77439  0.37920  0.07338  1.0000
  C   C5049     1.0  0.76901  0.43113  0.28730  1.0000
  C   C5050     1.0  0.82423  0.33576  0.05444  1.0000
  C   C5051     1.0  0.86581  0.56103  0.32742  1.0000
  H   H4030     1.0  0.75422  0.35326  0.32827  1.0000
  C   C5052     1.0  0.83865  0.51358  0.31404  1.0000
  C   C5053     1.0  0.83147  0.33682  0.12650  1.0000
  H   H4031     1.0  0.89329  0.47464  0.16104  1.0000
  C   C5054     1.0  0.75304  0.34782  0.31793  1.0000
  H   H4032     1.0  0.92298  0.48286  0.30369  1.0000
  H   H4033     1.0  0.81144  0.46921  0.19579  1.0000
  H   H4034     1.0  0.76689  0.40015  0.15096  1.0000
  C   C5055     1.0  0.89771  0.36242  0.39503  1.0000
  C   C5056     1.0  0.91421  0.63935  0.24934  1.0000
  C   C5057     1.0  0.90830  0.63654  0.23581  1.0000
  H   H4035     1.0  0.79797  0.33732  0.35922  1.0000
  H   H4036     1.0  0.91933  0.62846  0.25861  1.0000
  H   H4037     1.0  0.90916  0.62349  0.23449  1.0000
  H   H4038     1.0  0.80179  0.63009  0.15685  1.0000
  C   C5058     1.0  0.89132  0.63194  0.12465  1.0000
  C   C5059     1.0  0.83236  0.54266  0.19491  1.0000
  C   C5060     1.0  0.82686  0.55693  0.20295  1.0000
  C   C5061     1.0  0.82950  0.55512  0.21976  1.0000
  C   C5062     1.0  0.83704  0.53904  0.22863  1.0000
  C   C5063     1.0  0.84189  0.52478  0.22073  1.0000
  C   C5064     1.0  0.83977  0.52663  0.20387  1.0000
  H   H4039     1.0  0.82153  0.56944  0.19589  1.0000
  H   H4040     1.0  0.82668  0.56623  0.22558  1.0000
  H   H4041     1.0  0.84789  0.51236  0.22733  1.0000
  H   H4042     1.0  0.84443  0.51564  0.19760  1.0000
  C   C5065     1.0  0.81239  0.63697  0.15296  1.0000
  H   H4043     1.0  0.79137  0.51709  0.11287  1.0000
  H   H4044     1.0  0.80600  0.32436  0.01688  1.0000
  S   S708      1.0  0.89460  0.64664  0.20688  1.0000
  H   H4045     1.0  0.83150  0.33278  0.11488  1.0000
  H   H4046     1.0  0.94223  0.61561  0.18519  1.0000
  C   C5066     1.0  0.75008  0.51843  0.03794  1.0000
  S   S709      1.0  0.74707  0.34769  0.24542  1.0000
  C   C5067     1.0  0.87078  0.59547  0.09796  1.0000
  C   C5068     1.0  0.88524  0.58511  0.08945  1.0000
  C   C5069     1.0  0.83712  0.37731  0.38675  1.0000
  C   C5070     1.0  0.75816  0.42199  0.06229  1.0000
  C   C5071     1.0  0.88877  0.59981  0.11567  1.0000
  C   C5072     1.0  0.87256  0.60286  0.11093  1.0000
  H   H4047     1.0  0.75744  0.45280  0.13065  1.0000
  C   C5073     1.0  0.87184  0.60674  0.15001  1.0000
  H   H4048     1.0  0.81565  0.37286  0.42003  1.0000
  C   C5074     1.0  0.91015  0.58721  0.15653  1.0000
  C   C5075     1.0  0.78171  0.51041  0.03405  1.0000
  H   H4049     1.0  0.77103  0.50662  0.10146  1.0000
  C   C5076     1.0  0.81321  0.51511  0.14773  1.0000
  H   H4050     1.0  0.78913  0.33985  0.20841  1.0000
  C   C5077     1.0  0.86466  0.61915  0.16035  1.0000
  C   C5078     1.0  0.84924  0.61787  0.17262  1.0000
  C   C5079     1.0  0.84088  0.60427  0.17469  1.0000
  C   C5080     1.0  0.84821  0.59160  0.16479  1.0000
  C   C5081     1.0  0.86379  0.59265  0.15269  1.0000
  P   P165      1.0  0.78582  0.50194  0.19696  1.0000
  C   C5082     1.0  0.77821  0.52170  0.20519  1.0000
  C   C5083     1.0  0.91044  0.59889  0.14060  1.0000
  C   C5084     1.0  0.78681  0.41717  0.06869  1.0000
  C   C5085     1.0  0.80533  0.32227  0.30009  1.0000
  C   C5086     1.0  0.79320  0.48428  0.21362  1.0000
  C   C5087     1.0  0.93623  0.64832  0.33950  1.0000
  H   H4051     1.0  0.88382  0.57935  0.07943  1.0000
  C   C5088     1.0  0.79979  0.51143  0.16181  1.0000
  H   H4052     1.0  0.74604  0.42722  0.12914  1.0000
  H   H4053     1.0  0.76009  0.35639  0.20360  1.0000
  H   H4054     1.0  0.89806  0.58376  0.16427  1.0000
  H   H4055     1.0  0.92539  0.57129  0.17516  1.0000
  H   H4056     1.0  0.84032  0.32331  0.41825  1.0000
  C   C5089     1.0  0.77208  0.36718  0.23036  1.0000
  C   C5090     1.0  0.80339  0.50478  0.17845  1.0000
  H   H4057     1.0  0.87045  0.63021  0.15855  1.0000
  H   H4058     1.0  0.84330  0.62799  0.17987  1.0000
  H   H4059     1.0  0.82861  0.60371  0.18377  1.0000
  H   H4060     1.0  0.84174  0.58104  0.16628  1.0000
  H   H4061     1.0  0.86919  0.58268  0.14514  1.0000
  H   H4062     1.0  0.80089  0.53260  0.19156  1.0000
  H   H4063     1.0  0.95247  0.62494  0.21366  1.0000
  C   C5091     1.0  0.75369  0.54959  0.09386  1.0000
  C   C5092     1.0  0.80576  0.46983  0.20917  1.0000
  C   C5093     1.0  0.76924  0.52022  0.10125  1.0000
  C   C5094     1.0  0.76564  0.55307  0.21665  1.0000
  H   H4064     1.0  0.74670  0.56645  0.17414  1.0000
  Fe  Fe356     1.0  0.78704  0.32123  0.46823  1.0000
  H   H4065     1.0  0.88592  0.44653  0.16280  1.0000
  H   H4066     1.0  0.97761  0.63483  0.21727  1.0000
  H   H4067     1.0  0.81021  0.52080  0.13507  1.0000
  H   H4068     1.0  0.80236  0.51678  0.00114  1.0000
  C   C5095     1.0  0.83338  0.48955  0.38322  1.0000
  C   C5096     1.0  0.78233  0.33562  0.20090  1.0000
  H   H4069     1.0  0.82017  0.32534  0.17007  1.0000
  H   H4070     1.0  0.80943  0.52010  0.06901  1.0000
  C   C5097     1.0  0.74719  0.42350  0.27639  1.0000
  C   C5098     1.0  0.77397  0.39290  0.07045  1.0000
  H   H4071     1.0  0.90402  0.36916  0.40076  1.0000
  C   C5099     1.0  0.79172  0.35752  0.12694  1.0000
  H   H4072     1.0  0.76056  0.56537  0.22067  1.0000
  C   C5100     1.0  0.74538  0.40864  0.17058  1.0000
  H   H4073     1.0  0.76575  0.48479  0.01715  1.0000
  C   C5101     1.0  0.84115  0.35632  0.42131  1.0000
  C   C5102     1.0  0.77678  0.39301  0.25710  1.0000
  C   C5103     1.0  0.76469  0.55547  0.10109  1.0000
  H   H4074     1.0  0.79278  0.36279  0.15118  1.0000
  C   C5104     1.0  0.78308  0.43806  0.12258  1.0000
  C   C5105     1.0  0.81346  0.64835  0.16289  1.0000
  H   H4075     1.0  0.75227  0.36724  0.02592  1.0000
  C   C5106     1.0  0.80228  0.54755  0.06611  1.0000
  H   H4076     1.0  0.82582  0.31778  0.46012  1.0000
  C   C5107     1.0  0.77198  0.42848  0.06378  1.0000
  C   C5108     1.0  0.75339  0.47680  0.18583  1.0000
  C   C5109     1.0  0.79041  0.56335  0.04094  1.0000
  C   C5110     1.0  0.93312  0.64927  0.32318  1.0000
  C   C5111     1.0  0.80416  0.53201  0.06097  1.0000
  C   C5112     1.0  0.82012  0.37905  0.38432  1.0000
  H   H4077     1.0  0.78663  0.51431  0.15963  1.0000
  C   C5113     1.0  0.78810  0.39925  0.07161  1.0000
  H   H4078     1.0  0.78392  0.50117  0.07337  1.0000
  C   C5114     1.0  0.81663  0.51007  0.29413  1.0000
  H   H4079     1.0  0.85810  0.59777  0.09465  1.0000
  P   P166      1.0  0.89058  0.60930  0.13273  1.0000
  C   C5115     1.0  0.75656  0.43881  0.22035  1.0000
  H   H4080     1.0  0.93685  0.63619  0.34879  1.0000
  H   H4081     1.0  0.93106  0.63794  0.32002  1.0000
  C   C5116     1.0  0.76535  0.32528  0.18053  1.0000
  C   C5117     1.0  0.83105  0.39737  0.31088  1.0000
  C   C5118     1.0  0.83571  0.40172  0.32433  1.0000
  C   C5119     1.0  0.84680  0.41335  0.32064  1.0000
  C   C5120     1.0  0.85341  0.42051  0.30348  1.0000
  C   C5121     1.0  0.84917  0.41590  0.28983  1.0000
  C   C5122     1.0  0.83773  0.40441  0.29371  1.0000
  P   P167      1.0  0.85819  0.42507  0.26769  1.0000
  C   C5123     1.0  0.84573  0.44641  0.26089  1.0000
  C   C5124     1.0  0.88065  0.42598  0.26613  1.0000
  C   C5125     1.0  0.89100  0.41299  0.27633  1.0000
  C   C5126     1.0  0.90845  0.41348  0.27507  1.0000
  C   C5127     1.0  0.91577  0.42673  0.26340  1.0000
  C   C5128     1.0  0.90569  0.43943  0.25294  1.0000
  C   C5129     1.0  0.88817  0.43917  0.25436  1.0000
  C   C5130     1.0  0.84743  0.45392  0.24322  1.0000
  C   C5131     1.0  0.83905  0.47098  0.23786  1.0000
  C   C5132     1.0  0.82854  0.48051  0.25005  1.0000
  C   C5133     1.0  0.82629  0.47292  0.26762  1.0000
  C   C5134     1.0  0.83485  0.45595  0.27305  1.0000
  C   C5135     1.0  0.85763  0.41153  0.25353  1.0000
  C   C5136     1.0  0.87286  0.40088  0.24625  1.0000
  C   C5137     1.0  0.87183  0.38963  0.23632  1.0000
  C   C5138     1.0  0.85561  0.38863  0.23397  1.0000
  C   C5139     1.0  0.84048  0.39929  0.24107  1.0000
  C   C5140     1.0  0.84158  0.41116  0.25022  1.0000
  H   H4082     1.0  0.85006  0.41705  0.33108  1.0000
  H   H4083     1.0  0.86187  0.42964  0.30086  1.0000
  H   H4084     1.0  0.83387  0.40075  0.28366  1.0000
  H   H4085     1.0  0.88560  0.40251  0.28527  1.0000
  H   H4086     1.0  0.91628  0.40365  0.28319  1.0000
  H   H4087     1.0  0.92921  0.42730  0.26255  1.0000
  H   H4088     1.0  0.91138  0.44968  0.24390  1.0000
  H   H4089     1.0  0.88066  0.44933  0.24625  1.0000
  H   H4090     1.0  0.85566  0.44674  0.23361  1.0000
  H   H4091     1.0  0.84095  0.47693  0.22425  1.0000
  H   H4092     1.0  0.82238  0.49382  0.24585  1.0000
  H   H4093     1.0  0.81818  0.48028  0.27707  1.0000
  H   H4094     1.0  0.83311  0.45045  0.28673  1.0000
  H   H4095     1.0  0.88555  0.40129  0.24800  1.0000
  H   H4096     1.0  0.88360  0.38182  0.23023  1.0000
  H   H4097     1.0  0.82792  0.39838  0.23938  1.0000
  H   H4098     1.0  0.82989  0.41975  0.25521  1.0000
  C   C5141     1.0  0.76117  0.43183  0.27366  1.0000
  C   C5142     1.0  0.76595  0.34504  0.19799  1.0000
  C   C5143     1.0  0.87959  0.36397  0.39946  1.0000
  S   S710      1.0  0.76422  0.34346  0.47017  1.0000
  S   S711      1.0  0.77083  0.34576  0.08146  1.0000
  H   H4099     1.0  0.75153  0.64191  0.16910  1.0000
  C   C5144     1.0  0.80740  0.49367  0.05501  1.0000
  C   C5145     1.0  0.82234  0.48072  0.05191  1.0000
  C   C5146     1.0  0.82579  0.46613  0.06487  1.0000
  C   C5147     1.0  0.81422  0.46427  0.08083  1.0000
  C   C5148     1.0  0.79923  0.47698  0.08386  1.0000
  C   C5149     1.0  0.79585  0.49162  0.07103  1.0000
  S   S712      1.0  0.82348  0.62104  0.12467  1.0000
  H   H4100     1.0  0.74726  0.32899  0.28117  1.0000
  S   S713      1.0  0.76159  0.33771  0.00951  1.0000
  H   H4101     1.0  0.83988  0.50550  0.27479  1.0000
  C   C5150     1.0  0.92639  0.60307  0.13096  1.0000
  C   C5151     1.0  0.88477  0.64125  0.10985  1.0000
  H   H4102     1.0  0.76314  0.56914  0.10049  1.0000
  H   H4103     1.0  0.83716  0.45602  0.06244  1.0000
  H   H4104     1.0  0.81652  0.45273  0.09071  1.0000
  H   H4105     1.0  0.78993  0.47520  0.09599  1.0000
  C   C5152     1.0  0.81985  0.40874  0.36945  1.0000
  C   C5153     1.0  0.83494  0.32785  0.37129  1.0000
  C   C5154     1.0  0.97713  0.63013  0.33258  1.0000
  C   C5155     1.0  0.94135  0.58438  0.15316  1.0000
  H   H4106     1.0  0.85938  0.50824  0.29229  1.0000
  C   C5156     1.0  0.90358  0.50635  0.30091  1.0000
  C   C5157     1.0  0.85232  0.34652  0.43252  1.0000
  C   C5158     1.0  0.83889  0.49048  0.35250  1.0000
  C   C5159     1.0  0.90148  0.58213  0.09395  1.0000
  H   H4107     1.0  0.84774  0.64281  0.12100  1.0000
  H   H4108     1.0  0.79346  0.57513  0.06059  1.0000
  C   C5160     1.0  0.76355  0.39026  0.38738  1.0000
  C   C5161     1.0  0.78192  0.55019  0.20566  1.0000
  H   H4109     1.0  0.88166  0.52750  0.30008  1.0000
  C   C5162     1.0  0.78829  0.53448  0.20014  1.0000
  H   H4110     1.0  0.80602  0.54750  0.07795  1.0000
  H   H4111     1.0  0.82209  0.38869  0.31378  1.0000
  H   H4112     1.0  0.85591  0.33862  0.45889  1.0000
  C   C5163     1.0  0.80961  0.51356  0.31065  1.0000
  H   H4113     1.0  0.79873  0.39578  0.37334  1.0000
  H   H4114     1.0  0.78775  0.34531  0.13284  1.0000
  P   P168      1.0  0.85274  0.51590  0.32691  1.0000
  C   C5164     1.0  0.78059  0.52616  0.10797  1.0000
  C   C5165     1.0  0.78618  0.48458  0.23114  1.0000
  C   C5166     1.0  0.79154  0.47067  0.24392  1.0000
  C   C5167     1.0  0.80397  0.45637  0.23938  1.0000
  C   C5168     1.0  0.81117  0.45596  0.22201  1.0000
  C   C5169     1.0  0.87506  0.50540  0.31971  1.0000
  H   H4115     1.0  0.75988  0.38320  0.37980  1.0000
  C   C5170     1.0  0.75404  0.60739  0.22487  1.0000
  S   S714      1.0  0.78172  0.44049  0.10098  1.0000
  H   H4116     1.0  0.76920  0.39567  0.24720  1.0000
  C   C5171     1.0  0.75294  0.37980  0.16468  1.0000
  C   C5172     1.0  0.83028  0.51221  0.15013  1.0000
  C   C5173     1.0  0.83405  0.50523  0.16656  1.0000
  C   C5174     1.0  0.82064  0.50175  0.18072  1.0000
  H   H4117     1.0  0.77644  0.49537  0.23510  1.0000
  H   H4118     1.0  0.78599  0.47095  0.25740  1.0000
  H   H4119     1.0  0.80813  0.44570  0.24938  1.0000
  H   H4120     1.0  0.82097  0.44493  0.21849  1.0000
  H   H4121     1.0  0.91592  0.58684  0.11036  1.0000
  C   C5175     1.0  0.94177  0.59585  0.13723  1.0000
  H   H4122     1.0  0.76655  0.61600  0.19851  1.0000
  C   C5176     1.0  0.78818  0.40366  0.25603  1.0000
  H   H4123     1.0  0.84045  0.51600  0.13942  1.0000
  H   H4124     1.0  0.84721  0.50352  0.16851  1.0000
  H   H4125     1.0  0.82368  0.49738  0.19348  1.0000
  C   C5177     1.0  0.76265  0.44941  0.22747  1.0000
  C   C5178     1.0  0.77842  0.54382  0.10793  1.0000
  H   H4126     1.0  0.83041  0.39639  0.33762  1.0000
  C   C5179     1.0  0.82470  0.36540  0.42823  1.0000
  H   H4127     1.0  0.79572  0.51461  0.31583  1.0000
  H   H4128     1.0  0.77656  0.44830  0.22590  1.0000
  H   H4129     1.0  0.76570  0.42960  0.21317  1.0000
  H   H4130     1.0  0.85479  0.37984  0.22635  1.0000
  P   P169      1.0  0.84789  0.35710  0.39831  1.0000
  C   C5180     1.0  0.76837  0.35128  0.23998  1.0000
  H   H4131     1.0  0.86229  0.51501  0.00740  1.0000
  H   H4132     1.0  0.78568  0.36146  0.98813  1.0000
  H   H4133     1.0  0.98975  0.63263  0.36851  1.0000
  H   H4134     1.0  0.82829  0.47054  0.37193  1.0000
  H   H4135     1.0  0.80663  0.34898  0.03717  1.0000
  C   C5181     1.0  0.76288  0.42208  0.30377  1.0000
  H   H4136     1.0  0.87203  0.37200  0.40862  1.0000
  C   C5182     1.0  0.76625  0.34700  0.30305  1.0000
  C   C5183     1.0  0.76425  0.33964  0.29010  1.0000
  P   P170      1.0  0.78549  0.35566  0.30000  1.0000
  C   C5184     1.0  0.78501  0.37539  0.28374  1.0000
  C   C5185     1.0  0.78719  0.35920  0.32055  1.0000
  C   C5186     1.0  0.78145  0.37579  0.32442  1.0000
  C   C5187     1.0  0.78236  0.37860  0.34034  1.0000
  C   C5188     1.0  0.78853  0.36477  0.35280  1.0000
  C   C5189     1.0  0.79380  0.34814  0.34931  1.0000
  C   C5190     1.0  0.79315  0.34534  0.33328  1.0000
  C   C5191     1.0  0.79624  0.38638  0.28268  1.0000
  C   C5192     1.0  0.80394  0.33977  0.29208  1.0000
  H   H4137     1.0  0.79542  0.31824  0.31095  1.0000
  H   H4138     1.0  0.75675  0.52430  0.18153  1.0000
  H   H4139     1.0  0.83864  0.48464  0.34204  1.0000
  H   H4140     1.0  0.79237  0.33368  0.97879  1.0000
  C   C5193     1.0  0.81643  0.34448  0.27723  1.0000
  C   C5194     1.0  0.77514  0.32784  0.05592  1.0000
  H   H4141     1.0  0.84449  0.35791  0.11313  1.0000
  H   H4142     1.0  0.90399  0.63354  0.14446  1.0000
  C   C5195     1.0  0.98089  0.62539  0.34916  1.0000
  H   H4143     1.0  0.77423  0.33900  0.27854  1.0000
  H   H4144     1.0  0.77602  0.38655  0.31524  1.0000
  H   H4145     1.0  0.83311  0.32914  0.35829  1.0000
  H   H4146     1.0  0.92176  0.35092  0.37987  1.0000
  C   C5196     1.0  0.84529  0.39159  0.38061  1.0000
  H   H4147     1.0  0.79692  0.33230  0.33115  1.0000
  H   H4148     1.0  0.80416  0.38388  0.29225  1.0000
  H   H4149     1.0  0.74657  0.43076  0.05891  1.0000
  C   C5197     1.0  0.75609  0.39653  0.16107  1.0000
  C   C5198     1.0  0.74900  0.41371  0.30653  1.0000
  C   C5199     1.0  0.95423  0.63801  0.20783  1.0000
  H   H4150     1.0  0.81545  0.35767  0.27009  1.0000
  C   C5200     1.0  0.77684  0.51950  0.27815  1.0000
  C   C5201     1.0  0.78547  0.51338  0.26309  1.0000
  C   C5202     1.0  0.79114  0.52488  0.24808  1.0000
  C   C5203     1.0  0.78794  0.54253  0.24805  1.0000
  C   C5204     1.0  0.77866  0.54892  0.26293  1.0000
  C   C5205     1.0  0.77349  0.53716  0.27813  1.0000
  P   P171      1.0  0.77539  0.57161  0.26335  1.0000
  C   C5206     1.0  0.77210  0.58530  0.24270  1.0000
  C   C5207     1.0  0.75626  0.57730  0.27955  1.0000
  H   H4151     1.0  0.95323  0.57887  0.15813  1.0000
  C   C5208     1.0  0.84569  0.51698  0.98981  1.0000
  H   H4152     1.0  0.81311  0.42090  0.36289  1.0000
  C   C5209     1.0  0.77286  0.32612  0.04002  1.0000
  C   C5210     1.0  0.75614  0.58819  0.29044  1.0000
  C   C5211     1.0  0.75589  0.59614  0.24066  1.0000
  C   C5212     1.0  0.89865  0.48014  0.32143  1.0000
  C   C5213     1.0  0.76815  0.60764  0.21089  1.0000
  C   C5214     1.0  0.78432  0.59704  0.21282  1.0000
  C   C5215     1.0  0.78631  0.58614  0.22871  1.0000
  C   C5216     1.0  0.79475  0.57555  0.26768  1.0000
  C   C5217     1.0  0.80749  0.56179  0.27391  1.0000
  C   C5218     1.0  0.82298  0.56491  0.27601  1.0000
  C   C5219     1.0  0.82590  0.58173  0.27194  1.0000
  C   C5220     1.0  0.81318  0.59553  0.26601  1.0000
  C   C5221     1.0  0.79767  0.59247  0.26384  1.0000
  H   H4153     1.0  0.77287  0.51051  0.28996  1.0000
  H   H4154     1.0  0.78802  0.49969  0.26318  1.0000
  H   H4155     1.0  0.79823  0.52017  0.23645  1.0000
  H   H4156     1.0  0.79291  0.55100  0.23640  1.0000
  H   H4157     1.0  0.76704  0.54150  0.29009  1.0000
  C   C5222     1.0  0.75015  0.50571  0.02925  1.0000
  H   H4158     1.0  0.77633  0.46955  0.19660  1.0000
  H   H4159     1.0  0.75180  0.45822  0.39094  1.0000
  C   C5223     1.0  0.84010  0.34101  0.37567  1.0000
  H   H4160     1.0  0.76772  0.59276  0.28993  1.0000
  H   H4161     1.0  0.78154  0.31687  0.06419  1.0000
  H   H4162     1.0  0.97988  0.61263  0.35675  1.0000
  C   C5224     1.0  0.83664  0.40723  0.37200  1.0000
  H   H4163     1.0  0.79529  0.59731  0.20199  1.0000
  H   H4164     1.0  0.79896  0.57843  0.23017  1.0000
  H   H4165     1.0  0.80590  0.54855  0.27660  1.0000
  H   H4166     1.0  0.83301  0.55410  0.28013  1.0000
  H   H4167     1.0  0.83816  0.58401  0.27307  1.0000
  H   H4168     1.0  0.81553  0.60857  0.26269  1.0000
  H   H4169     1.0  0.78809  0.60327  0.25889  1.0000
  H   H4170     1.0  0.84051  0.32593  0.07339  1.0000
  H   H4171     1.0  0.85824  0.39082  0.38246  1.0000
  C   C5225     1.0  0.85394  0.63287  0.26844  1.0000
  C   C5226     1.0  0.77314  0.32544  0.39213  1.0000
  C   C5227     1.0  0.87364  0.55795  0.18732  1.0000
  C   C5228     1.0  0.88991  0.54685  0.18484  1.0000
  C   C5229     1.0  0.90299  0.54811  0.19254  1.0000
  C   C5230     1.0  0.89978  0.56044  0.20272  1.0000
  C   C5231     1.0  0.88361  0.57190  0.20499  1.0000
  C   C5232     1.0  0.87050  0.57052  0.19724  1.0000
  P   P172      1.0  0.88076  0.58860  0.21696  1.0000
  C   C5233     1.0  0.86028  0.60393  0.21626  1.0000
  C   C5234     1.0  0.87963  0.57952  0.23966  1.0000
  C   C5235     1.0  0.87379  0.56400  0.24707  1.0000
  C   C5236     1.0  0.87193  0.55759  0.26488  1.0000
  C   C5237     1.0  0.87628  0.56637  0.27532  1.0000
  C   C5238     1.0  0.88196  0.58190  0.26804  1.0000
  C   C5239     1.0  0.88327  0.58866  0.25034  1.0000
  C   C5240     1.0  0.85973  0.62175  0.21083  1.0000
  C   C5241     1.0  0.84372  0.63342  0.21094  1.0000
  C   C5242     1.0  0.82813  0.62740  0.21643  1.0000
  C   C5243     1.0  0.82852  0.60972  0.22232  1.0000
  C   C5244     1.0  0.84451  0.59808  0.22260  1.0000
  C   C5245     1.0  0.89982  0.59807  0.20744  1.0000
  C   C5246     1.0  0.90123  0.60859  0.19085  1.0000
  C   C5247     1.0  0.91645  0.61498  0.18291  1.0000
  C   C5248     1.0  0.93052  0.61055  0.19128  1.0000
  C   C5249     1.0  0.92946  0.59960  0.20752  1.0000
  C   C5250     1.0  0.91427  0.59323  0.21549  1.0000
  H   H4172     1.0  0.86339  0.55658  0.18170  1.0000
  H   H4173     1.0  0.89213  0.53684  0.17752  1.0000
  H   H4174     1.0  0.91542  0.53908  0.19125  1.0000
  H   H4175     1.0  0.91000  0.56106  0.20877  1.0000
  H   H4176     1.0  0.85788  0.57900  0.19874  1.0000
  H   H4177     1.0  0.87060  0.55688  0.23915  1.0000
  H   H4178     1.0  0.86727  0.54569  0.27049  1.0000
  H   H4179     1.0  0.87551  0.56101  0.28896  1.0000
  H   H4180     1.0  0.88574  0.58855  0.27602  1.0000
  H   H4181     1.0  0.88750  0.60083  0.24493  1.0000
  H   H4182     1.0  0.87154  0.62678  0.20661  1.0000
  Fe  Fe357     1.0  0.75080  0.32825  0.46020  1.0000
  C   C5251     1.0  0.74830  0.39277  0.11192  1.0000
  H   H4183     1.0  0.81645  0.60503  0.22668  1.0000
  H   H4184     1.0  0.84464  0.58445  0.22765  1.0000
  H   H4185     1.0  0.89057  0.61190  0.18407  1.0000
  H   H4186     1.0  0.77903  0.32558  0.25243  1.0000
  C   C5252     1.0  0.76181  0.52473  0.21622  1.0000
  H   H4187     1.0  0.87549  0.33802  0.37448  1.0000
  H   H4188     1.0  0.91408  0.58425  0.22777  1.0000
  H   H4189     1.0  0.78929  0.41464  0.24542  1.0000
  C   C5253     1.0  0.84725  0.34617  0.45028  1.0000
  H   H4190     1.0  0.75034  0.48475  0.29093  1.0000
  H   H4191     1.0  0.85030  0.52464  0.36064  1.0000
  H   H4192     1.0  0.81173  0.64218  0.34240  1.0000
  H   H4193     1.0  0.79360  0.48858  0.02159  1.0000
  C   C5254     1.0  0.83024  0.33198  0.27091  1.0000
  C   C5255     1.0  0.83304  0.48240  0.36949  1.0000
  C   C5256     1.0  0.84548  0.51291  0.36288  1.0000
  H   H4194     1.0  0.83952  0.33579  0.25921  1.0000
  C   C5257     1.0  0.83961  0.50479  0.37991  1.0000
  H   H4195     1.0  0.83992  0.51028  0.39057  1.0000
  H   H4196     1.0  0.93110  0.64511  0.19714  1.0000
  P   P173      1.0  0.80191  0.51223  0.03843  1.0000
  H   H4197     1.0  0.77789  0.39148  0.34316  1.0000
  H   H4198     1.0  0.82886  0.48324  0.39639  1.0000
  C   C5258     1.0  0.75585  0.51097  0.18297  1.0000
  H   H4199     1.0  0.80670  0.37152  0.45131  1.0000
  S   S715      1.0  0.75613  0.41842  0.36237  1.0000
  H   H4200     1.0  0.86118  0.61083  0.11741  1.0000
  H   H4201     1.0  0.90335  0.46672  0.32685  1.0000
  C   C5259     1.0  0.82057  0.51540  0.32056  1.0000
  H   H4202     1.0  0.91268  0.57406  0.08737  1.0000
  H   H4203     1.0  0.76174  0.37741  0.22603  1.0000
  H   H4204     1.0  0.87857  0.63532  0.10327  1.0000
  C   C5260     1.0  0.79754  0.40059  0.26907  1.0000
  H   H4205     1.0  0.74820  0.39929  0.06470  1.0000
  S   S716      1.0  0.75534  0.50464  0.32702  1.0000
  Fe  Fe358     1.0  0.75823  0.45956  0.09335  1.0000
  C   C5261     1.0  0.83919  0.56887  0.31634  1.0000
  C   C5262     1.0  0.83080  0.35511  0.45706  1.0000
  Fe  Fe359     1.0  0.78296  0.31775  0.43331  1.0000
  Fe  Fe360     1.0  0.76944  0.47682  0.32921  1.0000
  H   H4206     1.0  0.95401  0.59923  0.12980  1.0000
  C   C5263     1.0  0.90973  0.48923  0.30836  1.0000
  H   H4207     1.0  0.78953  0.56020  0.20117  1.0000
  H   H4208     1.0  0.75670  0.37042  0.05384  1.0000
  H   H4209     1.0  0.91726  0.62353  0.17037  1.0000
  C   C5264     1.0  0.81170  0.39460  0.37542  1.0000
  C   C5265     1.0  0.83826  0.64420  0.13278  1.0000
  H   H4210     1.0  0.82896  0.57867  0.31117  1.0000
  C   C5266     1.0  0.84552  0.51004  0.29747  1.0000
  H   H4211     1.0  0.81495  0.51808  0.33337  1.0000
  H   H4212     1.0  0.94041  0.59595  0.21399  1.0000
  H   H4213     1.0  0.76620  0.43857  0.26097  1.0000
  C   C5267     1.0  0.78185  0.33793  0.24516  1.0000
  C   C5268     1.0  0.97829  0.64686  0.32303  1.0000
  H   H4214     1.0  0.78888  0.36688  0.36528  1.0000
  H   H4215     1.0  0.74467  0.59620  0.25115  1.0000
  H   H4216     1.0  0.85287  0.58724  0.31900  1.0000
  C   C5269     1.0  0.87130  0.35521  0.39218  1.0000
  C   C5270     1.0  0.75908  0.40423  0.06567  1.0000
  C   C5271     1.0  0.85221  0.53856  0.32511  1.0000
  H   H4217     1.0  0.79701  0.42249  0.07054  1.0000
  C   C5272     1.0  0.90770  0.35214  0.38327  1.0000
  C   C5273     1.0  0.75574  0.54023  0.22215  1.0000
  C   C5274     1.0  0.88134  0.48811  0.32701  1.0000
  H   H4218     1.0  0.85389  0.61924  0.27304  1.0000
  H   H4219     1.0  0.82851  0.54797  0.31483  1.0000
  H   H4220     1.0  0.76618  0.37097  0.27126  1.0000
  C   C5275     1.0  0.76948  0.44578  0.13441  1.0000
  C   C5276     1.0  0.79524  0.56318  0.05625  1.0000
  H   H4221     1.0  0.83109  0.48156  0.03945  1.0000
  C   C5277     1.0  0.89958  0.34343  0.37591  1.0000
  C   C5278     1.0  0.83137  0.33683  0.06794  1.0000
  C   C5279     1.0  0.76449  0.34025  0.02924  1.0000
  H   H4222     1.0  0.91218  0.51324  0.29059  1.0000
  H   H4223     1.0  0.92691  0.61208  0.11865  1.0000
  H   H4224     1.0  0.84288  0.41830  0.36734  1.0000
  C   C5280     1.0  0.98641  0.63681  0.35589  1.0000
  S   S717      1.0  0.76013  0.47880  0.06831  1.0000
  C   C5281     1.0  0.74908  0.33370  0.29168  1.0000
  C   C5282     1.0  0.92559  0.58006  0.16276  1.0000
  C   C5283     1.0  0.79439  0.36745  0.13732  1.0000
  C   C5284     1.0  0.79964  0.38314  0.12981  1.0000
  C   C5285     1.0  0.80282  0.38862  0.11185  1.0000
  C   C5286     1.0  0.80156  0.37806  0.10127  1.0000
  C   C5287     1.0  0.79528  0.36279  0.10894  1.0000
  P   P174      1.0  0.80714  0.38457  0.07807  1.0000
  C   C5288     1.0  0.77508  0.37898  0.27092  1.0000
  C   C5289     1.0  0.82589  0.39466  0.07121  1.0000
  C   C5290     1.0  0.83799  0.39159  0.08187  1.0000
  C   C5291     1.0  0.85262  0.39920  0.07624  1.0000
  C   C5292     1.0  0.85542  0.40980  0.05986  1.0000
  C   C5293     1.0  0.84366  0.41263  0.04901  1.0000
  C   C5294     1.0  0.82904  0.40496  0.05459  1.0000
  H   H4225     1.0  0.74779  0.42160  0.16782  1.0000
  C   C5295     1.0  0.88627  0.51438  0.30639  1.0000
  S   S718      1.0  0.77348  0.31754  0.12665  1.0000
  H   H4226     1.0  0.80550  0.40944  0.26885  1.0000
  S   S719      1.0  0.75930  0.45600  0.32401  1.0000
  C   C5296     1.0  0.81383  0.36571  0.06843  1.0000
  C   C5297     1.0  0.82612  0.35170  0.07498  1.0000
  H   H4227     1.0  0.76902  0.42122  0.31436  1.0000
  H   H4228     1.0  0.80832  0.50850  0.28644  1.0000
  C   C5298     1.0  0.81237  0.34985  0.04749  1.0000
  C   C5299     1.0  0.80741  0.36491  0.05424  1.0000
  C   C5300     1.0  0.82477  0.63485  0.13781  1.0000
  C   C5301     1.0  0.81898  0.51361  0.01932  1.0000
  H   H4229     1.0  0.80173  0.39078  0.13791  1.0000
  H   H4230     1.0  0.80670  0.40088  0.10616  1.0000
  C   C5302     1.0  0.75872  0.35625  0.03421  1.0000
  H   H4231     1.0  0.83625  0.38326  0.09449  1.0000
  H   H4232     1.0  0.86184  0.39672  0.08459  1.0000
  H   H4233     1.0  0.86680  0.41563  0.05552  1.0000
  H   H4234     1.0  0.84590  0.42065  0.03622  1.0000
  H   H4235     1.0  0.82015  0.40705  0.04597  1.0000
  H   H4236     1.0  0.79351  0.35472  0.10108  1.0000
  H   H4237     1.0  0.86477  0.63044  0.24192  1.0000
  H   H4238     1.0  0.75361  0.51523  0.22008  1.0000
  H   H4239     1.0  0.84241  0.35235  0.36585  1.0000
  C   C5303     1.0  0.76797  0.49738  0.19045  1.0000
  H   H4240     1.0  0.83145  0.35218  0.08572  1.0000
  C   C5304     1.0  0.76677  0.48028  0.19160  1.0000
  H   H4241     1.0  0.75593  0.46951  0.24188  1.0000
  H   H4242     1.0  0.76148  0.37046  0.15741  1.0000
  H   H4243     1.0  0.79834  0.37567  0.04851  1.0000
  C   C5305     1.0  0.84059  0.51597  0.08556  1.0000
  C   C5306     1.0  0.84881  0.51180  0.06948  1.0000
  C   C5307     1.0  0.85722  0.49477  0.06841  1.0000
  C   C5308     1.0  0.85746  0.48189  0.08342  1.0000
  C   C5309     1.0  0.84922  0.48600  0.09962  1.0000
  C   C5310     1.0  0.84076  0.50314  0.10054  1.0000
  P   P175      1.0  0.84868  0.46956  0.11918  1.0000
  C   C5311     1.0  0.85518  0.44806  0.11456  1.0000
  C   C5312     1.0  0.86317  0.47128  0.13206  1.0000
  C   C5313     1.0  0.86964  0.45672  0.14386  1.0000
  C   C5314     1.0  0.88086  0.45787  0.15385  1.0000
  C   C5315     1.0  0.88517  0.47367  0.15271  1.0000
  C   C5316     1.0  0.87881  0.48822  0.14104  1.0000
  C   C5317     1.0  0.86806  0.48699  0.13056  1.0000
  C   C5318     1.0  0.84286  0.43765  0.11760  1.0000
  C   C5319     1.0  0.84836  0.42031  0.11616  1.0000
  C   C5320     1.0  0.86610  0.41325  0.11166  1.0000
  C   C5321     1.0  0.87840  0.42364  0.10807  1.0000
  C   C5322     1.0  0.87297  0.44099  0.10948  1.0000
  C   C5323     1.0  0.82650  0.47243  0.13120  1.0000
  C   C5324     1.0  0.81260  0.47877  0.12238  1.0000
  C   C5325     1.0  0.79537  0.48041  0.13150  1.0000
  C   C5326     1.0  0.79188  0.47568  0.14946  1.0000
  C   C5327     1.0  0.80559  0.46921  0.15833  1.0000
  C   C5328     1.0  0.82287  0.46758  0.14928  1.0000
  H   H4244     1.0  0.83398  0.52913  0.08650  1.0000
  H   H4245     1.0  0.84865  0.52181  0.05789  1.0000
  H   H4246     1.0  0.86358  0.49154  0.05594  1.0000
  H   H4247     1.0  0.86392  0.46879  0.08232  1.0000
  H   H4248     1.0  0.83409  0.50657  0.11286  1.0000
  H   H4249     1.0  0.86597  0.44444  0.14552  1.0000
  H   H4250     1.0  0.81581  0.63649  0.21600  1.0000
  H   H4251     1.0  0.86492  0.33905  0.42763  1.0000
  H   H4252     1.0  0.88214  0.50047  0.14025  1.0000
  H   H4253     1.0  0.86351  0.49838  0.12152  1.0000
  H   H4254     1.0  0.82909  0.44258  0.12182  1.0000
  H   H4255     1.0  0.83896  0.41202  0.11935  1.0000
  H   H4256     1.0  0.87028  0.39957  0.11147  1.0000
  H   H4257     1.0  0.89218  0.41806  0.10483  1.0000
  H   H4258     1.0  0.88271  0.44871  0.10732  1.0000
  H   H4259     1.0  0.81504  0.48226  0.10844  1.0000
  H   H4260     1.0  0.78466  0.48502  0.12471  1.0000
  H   H4261     1.0  0.77853  0.47650  0.15641  1.0000
  H   H4262     1.0  0.80278  0.46486  0.17218  1.0000
  H   H4263     1.0  0.83327  0.46224  0.15642  1.0000
  C   C5329     1.0  0.84810  0.64420  0.27999  1.0000
  C   C5330     1.0  0.81955  0.36473  0.44604  1.0000
  C   C5331     1.0  0.83896  0.55138  0.31848  1.0000
  C   C5332     1.0  0.81543  0.51591  0.00282  1.0000
  C   C5333     1.0  0.85262  0.57370  0.32077  1.0000
  H   H4264     1.0  0.74475  0.38242  0.34802  1.0000
  C   C5334     1.0  0.75769  0.31770  0.37420  1.0000
  C   C5335     1.0  0.75604  0.53197  0.09367  1.0000
  S   S720      1.0  0.98012  0.59662  0.28172  1.0000
  H   H4265     1.0  0.75544  0.34367  0.37713  1.0000
  C   C5336     1.0  0.79913  0.53204  0.04571  1.0000
  C   C5337     1.0  0.79250  0.54784  0.03559  1.0000
  H   H4266     1.0  0.82665  0.35437  0.47089  1.0000
  H   H4267     1.0  0.84344  0.64714  0.20633  1.0000
  H   H4268     1.0  0.75261  0.46351  0.18679  1.0000
  C   C5338     1.0  0.84513  0.50582  0.34904  1.0000
  C   C5339     1.0  0.78161  0.49733  0.02576  1.0000
  C   C5340     1.0  0.76128  0.35805  0.05000  1.0000
  Fe  Fe361     1.0  0.98134  0.61995  0.25996  1.0000
  H   H4269     1.0  0.75772  0.38345  0.10512  1.0000
  H   H4270     1.0  0.83873  0.51239  0.03341  1.0000
  S   S721      1.0  0.75230  0.59913  0.17765  1.0000
  H   H4271     1.0  0.82768  0.32394  0.04957  1.0000
  C   C5341     1.0  0.83908  0.32469  0.40505  1.0000
  H   H4272     1.0  0.78873  0.54814  0.02368  1.0000
  H   H4273     1.0  0.87603  0.53389  0.33465  1.0000
  C   C5342     1.0  0.76577  0.52072  0.04043  1.0000
  H   H4274     1.0  0.75937  0.32117  0.17223  1.0000
  H   H4275     1.0  0.78496  0.57548  0.03328  1.0000
  C   C5343     1.0  0.84923  0.51512  0.00615  1.0000
  C   C5344     1.0  0.96834  0.64363  0.20994  1.0000
  H   H4276     1.0  0.75253  0.48841  0.37540  1.0000
  Fe  Fe362     1.0  0.78022  0.32026  0.09790  1.0000
  C   C5345     1.0  0.94216  0.64940  0.19860  1.0000
  H   H4277     1.0  0.85600  0.51825  0.97841  1.0000
  H   H4278     1.0  0.98764  0.37316  0.60944  1.0000
  H   H4279     1.0  0.87554  0.35018  0.83573  1.0000
  C   C5346     1.0  0.77899  0.32531  0.91800  1.0000
  C   C5347     1.0  0.95914  0.36534  0.57076  1.0000
  C   C5348     1.0  0.91815  0.35750  0.66499  1.0000
  C   C5349     1.0  0.95348  0.37664  0.58233  1.0000
  C   C5350     1.0  0.88709  0.34014  0.83691  1.0000
  S   S722      1.0  0.99059  0.39047  0.67038  1.0000
  S   S723      1.0  0.90847  0.32362  0.70900  1.0000
  H   H4280     1.0  0.97011  0.35034  0.61641  1.0000
  H   H4281     1.0  0.88959  0.41875  0.61012  1.0000
  C   C5351     1.0  0.93713  0.33654  0.87967  1.0000
  H   H4282     1.0  0.97298  0.33986  0.56680  1.0000
  C   C5352     1.0  0.82191  0.34956  0.82394  1.0000
  H   H4283     1.0  0.94024  0.39022  0.65069  1.0000
  H   H4284     1.0  0.91448  0.35669  0.87623  1.0000
  C   C5353     1.0  0.95651  0.34170  0.89528  1.0000
  H   H4285     1.0  0.85367  0.32797  0.92271  1.0000
  C   C5354     1.0  0.97884  0.31727  0.63524  1.0000
  S   S724      1.0  0.94979  0.38017  0.70885  1.0000
  C   C5355     1.0  0.79247  0.32907  0.92346  1.0000
  H   H4286     1.0  0.81181  0.35633  0.81667  1.0000
  H   H4287     1.0  0.79784  0.33549  0.56308  1.0000
  H   H4288     1.0  0.90018  0.35070  0.76503  1.0000
  H   H4289     1.0  0.77285  0.38814  0.93910  1.0000
  C   C5356     1.0  0.90214  0.33121  0.78818  1.0000
  H   H4290     1.0  0.99275  0.32398  0.77864  1.0000
  S   S725      1.0  0.77675  0.32436  0.85786  1.0000
  H   H4291     1.0  0.96483  0.35268  0.73715  1.0000
  H   H4292     1.0  0.84284  0.35190  0.89995  1.0000
  H   H4293     1.0  0.94886  0.36589  0.90387  1.0000
  H   H4294     1.0  0.74870  0.32284  0.54551  1.0000
  H   H4295     1.0  0.91064  0.39340  0.62131  1.0000
  C   C5357     1.0  0.83028  0.33347  0.85092  1.0000
  C   C5358     1.0  0.95736  0.37134  0.59895  1.0000
  H   H4296     1.0  0.82599  0.51915  0.97545  1.0000
  H   H4297     1.0  0.80379  0.34491  0.84798  1.0000
  H   H4298     1.0  0.76628  0.32896  0.89678  1.0000
  C   C5359     1.0  0.77706  0.33128  0.90085  1.0000
  C   C5360     1.0  0.92099  0.33781  0.71055  1.0000
  C   C5361     1.0  0.91487  0.34855  0.72263  1.0000
  C   C5362     1.0  0.92383  0.36146  0.72206  1.0000
  C   C5363     1.0  0.93927  0.36331  0.70983  1.0000
  C   C5364     1.0  0.94560  0.35224  0.69807  1.0000
  C   C5365     1.0  0.93642  0.33966  0.69834  1.0000
  H   H4299     1.0  0.90283  0.34741  0.73191  1.0000
  H   H4300     1.0  0.91871  0.37013  0.73103  1.0000
  H   H4301     1.0  0.95703  0.35395  0.68814  1.0000
  H   H4302     1.0  0.94112  0.33162  0.68876  1.0000
  C   C5366     1.0  0.88566  0.32304  0.84488  1.0000
  H   H4303     1.0  0.97986  0.33041  0.59602  1.0000
  H   H4304     1.0  0.82644  0.32774  0.86444  1.0000
  C   C5367     1.0  0.96865  0.34869  0.57569  1.0000
  C   C5368     1.0  0.95240  0.33103  0.88648  1.0000
  S   S726      1.0  0.77937  0.31684  0.81197  1.0000
  H   H4305     1.0  0.88825  0.35313  0.61494  1.0000
  C   C5369     1.0  0.91862  0.33182  0.83225  1.0000
  H   H4306     1.0  0.90457  0.35756  0.82390  1.0000
  C   C5370     1.0  0.98377  0.31682  0.73616  1.0000
  C   C5371     1.0  0.93831  0.32567  0.77535  1.0000
  C   C5372     1.0  0.85162  0.33671  0.88015  1.0000
  C   C5373     1.0  0.97260  0.34337  0.59213  1.0000
  C   C5374     1.0  0.76201  0.34239  0.54571  1.0000
  C   C5375     1.0  0.93926  0.41760  0.59441  1.0000
  C   C5376     1.0  0.78725  0.33263  0.55911  1.0000
  H   H4307     1.0  0.82142  0.32910  0.96141  1.0000
  C   C5377     1.0  0.89813  0.34148  0.61695  1.0000
  H   H4308     1.0  0.93178  0.44273  0.57882  1.0000
  C   C5378     1.0  0.92797  0.32607  0.61019  1.0000
  H   H4309     1.0  0.90001  0.44349  0.58888  1.0000
  C   C5379     1.0  0.96643  0.39330  0.61835  1.0000
  H   H4310     1.0  0.96628  0.38277  0.73553  1.0000
  C   C5380     1.0  0.77801  0.37630  0.94741  1.0000
  P   P176      1.0  0.96143  0.32329  0.76666  1.0000
  Fe  Fe363     1.0  0.74933  0.32700  0.87312  1.0000
  C   C5381     1.0  0.93157  0.35921  0.63474  1.0000
  C   C5382     1.0  0.92687  0.33842  0.76615  1.0000
  C   C5383     1.0  0.90933  0.43234  0.59374  1.0000
  C   C5384     1.0  0.96704  0.35465  0.60368  1.0000
  C   C5385     1.0  0.85228  0.33701  0.82467  1.0000
  C   C5386     1.0  0.96539  0.35653  0.74874  1.0000
  C   C5387     1.0  0.89386  0.32701  0.62929  1.0000
  C   C5388     1.0  0.78852  0.34094  0.88907  1.0000
  H   H4311     1.0  0.93389  0.35425  0.62314  1.0000
  H   H4312     1.0  0.95887  0.32737  0.65537  1.0000
  C   C5389     1.0  0.80237  0.34417  0.89423  1.0000
  C   C5390     1.0  0.91516  0.34098  0.60735  1.0000
  C   C5391     1.0  0.91547  0.40404  0.61204  1.0000
  C   C5392     1.0  0.94553  0.35766  0.89718  1.0000
  C   C5393     1.0  0.86001  0.32053  0.87612  1.0000
  C   C5394     1.0  0.81739  0.34304  0.84165  1.0000
  H   H4313     1.0  0.93135  0.33510  0.82710  1.0000
  H   H4314     1.0  0.81119  0.35173  0.88507  1.0000
  H   H4315     1.0  0.93193  0.34614  0.75390  1.0000
  H   H4316     1.0  0.78641  0.34617  0.87604  1.0000
  H   H4317     1.0  0.99345  0.32039  0.74089  1.0000
  C   C5395     1.0  0.96618  0.37367  0.74775  1.0000
  H   H4318     1.0  0.96789  0.33444  0.85019  1.0000
  C   C5396     1.0  0.92722  0.43192  0.58808  1.0000
  H   H4319     1.0  0.95614  0.36946  0.55796  1.0000
  C   C5397     1.0  0.90888  0.34117  0.77251  1.0000
  C   C5398     1.0  0.78809  0.34508  0.95289  1.0000
  H   H4320     1.0  0.88815  0.33285  0.79276  1.0000
  C   C5399     1.0  0.83935  0.34650  0.81545  1.0000
  H   H4321     1.0  0.84277  0.35070  0.80155  1.0000
  C   C5400     1.0  0.96486  0.34476  0.76460  1.0000
  C   C5401     1.0  0.96661  0.37914  0.76248  1.0000
  C   C5402     1.0  0.96582  0.36757  0.77837  1.0000
  C   C5403     1.0  0.96470  0.35051  0.77947  1.0000
  H   H4322     1.0  0.94132  0.32568  0.60312  1.0000
  H   H4323     1.0  0.77769  0.35918  0.54785  1.0000
  C   C5404     1.0  0.92618  0.35249  0.88161  1.0000
  C   C5405     1.0  0.98189  0.33801  0.65069  1.0000
  C   C5406     1.0  0.93833  0.37346  0.63471  1.0000
  H   H4324     1.0  0.96823  0.33784  0.90058  1.0000
  H   H4325     1.0  0.96744  0.39238  0.76155  1.0000
  H   H4326     1.0  0.96615  0.37181  0.78980  1.0000
  H   H4327     1.0  0.96367  0.34178  0.79189  1.0000
  H   H4328     1.0  0.75307  0.35274  0.53924  1.0000
  P   P177      1.0  0.94913  0.38519  0.61464  1.0000
  H   H4329     1.0  0.95310  0.41743  0.58989  1.0000
  C   C5407     1.0  0.93039  0.36306  0.89034  1.0000
  C   C5408     1.0  0.85558  0.32595  0.90970  1.0000
  H   H4330     1.0  0.88157  0.32914  0.96733  1.0000
  H   H4331     1.0  0.92197  0.37548  0.89175  1.0000
  H   H4332     1.0  0.91043  0.35129  0.67671  1.0000
  H   H4333     1.0  0.77654  0.38884  0.96809  1.0000
  H   H4334     1.0  0.84697  0.34732  0.87032  1.0000
  P   P178      1.0  0.79354  0.32464  0.94597  1.0000
  C   C5409     1.0  0.78195  0.36060  0.94198  1.0000
  C   C5410     1.0  0.84938  0.33939  0.89690  1.0000
  H   H4335     1.0  0.97640  0.34601  0.66025  1.0000
  H   H4336     1.0  0.81465  0.34140  0.91548  1.0000
  C   C5411     1.0  0.99291  0.40600  0.62476  1.0000
  H   H4337     1.0  0.96807  0.33087  0.82108  1.0000
  H   H4338     1.0  0.88065  0.32776  0.63670  1.0000
  C   C5412     1.0  0.90346  0.41840  0.60569  1.0000
  C   C5413     1.0  0.77587  0.34600  0.55059  1.0000
  H   H4339     1.0  0.77964  0.36076  0.92945  1.0000
  C   C5414     1.0  0.96233  0.40814  0.62552  1.0000
  H   H4340     1.0  0.91854  0.35219  0.59788  1.0000
  C   C5415     1.0  0.90353  0.34444  0.83041  1.0000
  C   C5416     1.0  0.97199  0.32739  0.64793  1.0000
  H   H4341     1.0  0.86555  0.33391  0.81769  1.0000
  Fe  Fe364     1.0  0.97853  0.37634  0.69643  1.0000
  C   C5417     1.0  0.80438  0.33820  0.91137  1.0000
  C   C5418     1.0  0.84790  0.33077  0.84254  1.0000
  C   C5419     1.0  0.75965  0.32540  0.54916  1.0000
  H   H4342     1.0  0.94601  0.38937  0.57823  1.0000
  H   H4343     1.0  0.90922  0.31856  0.58845  1.0000
  C   C5420     1.0  0.93511  0.37942  0.65014  1.0000
  H   H4344     1.0  0.91647  0.34024  0.64977  1.0000
  H   H4345     1.0  0.76965  0.31828  0.92693  1.0000
  C   C5421     1.0  0.92499  0.37151  0.66517  1.0000
  C   C5422     1.0  0.92157  0.35126  0.64982  1.0000
  C   C5423     1.0  0.93346  0.40359  0.60650  1.0000
  H   H4346     1.0  0.75567  0.33226  0.95351  1.0000
  H   H4347     1.0  0.92260  0.37612  0.67708  1.0000
  C   C5424     1.0  0.97551  0.41440  0.62876  1.0000
  H   H4348     1.0  0.94891  0.41478  0.62883  1.0000
  C   C5425     1.0  0.98396  0.38487  0.61449  1.0000
  C   C5426     1.0  0.82583  0.31756  0.95607  1.0000
  H   H4349     1.0  0.97225  0.42557  0.63470  1.0000
  P   P179      1.0  0.86450  0.31762  0.85415  1.0000
  C   C5427     1.0  0.75987  0.31944  0.96073  1.0000
  C   C5428     1.0  0.77993  0.37668  0.96380  1.0000
  S   S727      1.0  0.99151  0.34995  0.69153  1.0000
  C   C5429     1.0  0.96678  0.31729  0.74590  1.0000
  H   H4350     1.0  0.93372  0.32853  0.87278  1.0000
  H   H4351     1.0  0.80430  0.31892  0.77972  1.0000
  C   C5430     1.0  0.78901  0.34553  0.96969  1.0000
  C   C5431     1.0  0.91342  0.31876  0.79761  1.0000
  C   C5432     1.0  0.96748  0.32190  0.84832  1.0000
  C   C5433     1.0  0.96752  0.31996  0.83181  1.0000
  C   C5434     1.0  0.78522  0.36128  0.97502  1.0000
  H   H4352     1.0  0.89565  0.67987  0.10628  1.0000
  H   H4353     1.0  0.90607  0.77809  0.45234  1.0000
  H   H4354     1.0  0.97006  0.68958  0.30247  1.0000
  S   S728      1.0  0.95172  0.75699  0.10510  1.0000
  Fe  Fe365     1.0  0.94819  0.86917  0.21572  1.0000
  S   S729      1.0  0.95292  0.88828  0.22849  1.0000
  S   S730      1.0  0.92242  0.86104  0.22266  1.0000
  Fe  Fe366     1.0  0.98184  0.86969  0.18933  1.0000
  C   C5435     1.0  0.91689  0.89359  0.14967  1.0000
  C   C5436     1.0  0.77284  0.95727  0.34087  1.0000
  H   H4355     1.0  0.83840  0.97344  0.40768  1.0000
  Fe  Fe367     1.0  0.96115  0.90272  0.20167  1.0000
  S   S731      1.0  0.94932  0.93069  0.19174  1.0000
  S   S732      1.0  0.97500  0.85278  0.21525  1.0000
  S   S733      1.0  0.95460  0.88444  0.18913  1.0000
  Fe  Fe368     1.0  0.83029  0.96541  0.24034  1.0000
  C   C5437     1.0  0.98547  0.79333  0.23867  1.0000
  S   S734      1.0  0.82626  0.93818  0.24964  1.0000
  C   C5438     1.0  0.79786  0.77102  0.17822  1.0000
  C   C5439     1.0  0.80904  0.75483  0.17930  1.0000
  C   C5440     1.0  0.82236  0.75116  0.16526  1.0000
  H   H4356     1.0  0.88190  0.75310  0.17220  1.0000
  Fe  Fe369     1.0  0.90230  0.77745  0.26764  1.0000
  S   S735      1.0  0.88198  0.77634  0.25406  1.0000
  S   S736      1.0  0.92885  0.78179  0.25359  1.0000
  Fe  Fe370     1.0  0.88067  0.76867  0.30325  1.0000
  S   S737      1.0  0.85800  0.76632  0.29308  1.0000
  S   S738      1.0  0.87987  0.76703  0.33151  1.0000
  Fe  Fe371     1.0  0.87849  0.75250  0.27406  1.0000
  S   S739      1.0  0.87776  0.72783  0.26680  1.0000
  Fe  Fe372     1.0  0.86297  0.79047  0.27373  1.0000
  S   S740      1.0  0.84228  0.81241  0.26357  1.0000
  S   S741      1.0  0.90050  0.75248  0.28618  1.0000
  S   S742      1.0  0.88381  0.79394  0.28540  1.0000
  H   H4357     1.0  0.85163  0.79836  0.23217  1.0000
  H   H4358     1.0  0.87025  0.83829  0.26983  1.0000
  C   C5441     1.0  0.97036  0.66065  0.20291  1.0000
  Fe  Fe373     1.0  0.86200  0.70711  0.18764  1.0000
  S   S743      1.0  0.89071  0.69589  0.18136  1.0000
  S   S744      1.0  0.85171  0.73112  0.19893  1.0000
  Fe  Fe374     1.0  0.88544  0.69481  0.15609  1.0000
  S   S745      1.0  0.90260  0.70194  0.12994  1.0000
  H   H4359     1.0  0.75338  0.88556  0.24679  1.0000
  C   C5442     1.0  0.94406  0.74860  0.47347  1.0000
  S   S746      1.0  0.85717  0.70777  0.16162  1.0000
  H   H4360     1.0  0.82823  0.75978  0.10234  1.0000
  C   C5443     1.0  0.91489  0.76624  0.47620  1.0000
  C   C5444     1.0  0.92458  0.78321  0.15899  1.0000
  H   H4361     1.0  0.79349  0.91024  0.18761  1.0000
  Fe  Fe375     1.0  0.76604  0.87474  0.30801  1.0000
  S   S747      1.0  0.79231  0.86003  0.31402  1.0000
  S   S748      1.0  0.75872  0.88118  0.28203  1.0000
  Fe  Fe376     1.0  0.96798  0.72480  0.36702  1.0000
  S   S749      1.0  0.97889  0.71690  0.34148  1.0000
  S   S750      1.0  0.93948  0.73655  0.37550  1.0000
  H   H4362     1.0  0.92942  0.69069  0.21235  1.0000
  H   H4363     1.0  0.83735  0.65070  0.32124  1.0000
  C   C5445     1.0  0.83478  0.80025  0.08300  1.0000
  H   H4364     1.0  0.74484  0.93564  0.37239  1.0000
  H   H4365     1.0  0.89765  0.76732  0.20866  1.0000
  C   C5446     1.0  0.95792  0.69168  0.15180  1.0000
  H   H4366     1.0  0.77069  0.89932  0.21098  1.0000
  S   S751      1.0  0.98102  0.69999  0.38228  1.0000
  C   C5447     1.0  0.90385  0.92406  0.14885  1.0000
  S   S752      1.0  0.98953  0.88927  0.19959  1.0000
  C   C5448     1.0  0.89882  0.86864  0.30640  1.0000
  H   H4367     1.0  0.83097  0.73858  0.16645  1.0000
  C   C5449     1.0  0.82766  0.82460  0.27819  1.0000
  C   C5450     1.0  0.81529  0.83870  0.27195  1.0000
  C   C5451     1.0  0.80395  0.84924  0.28300  1.0000
  C   C5452     1.0  0.80503  0.84585  0.30039  1.0000
  C   C5453     1.0  0.81725  0.83158  0.30673  1.0000
  C   C5454     1.0  0.82847  0.82089  0.29569  1.0000
  H   H4368     1.0  0.81460  0.84160  0.25847  1.0000
  H   H4369     1.0  0.79471  0.86026  0.27795  1.0000
  H   H4370     1.0  0.81818  0.82891  0.32017  1.0000
  H   H4371     1.0  0.83801  0.81006  0.30062  1.0000
  C   C5455     1.0  0.87073  0.72906  0.24774  1.0000
  C   C5456     1.0  0.86437  0.74494  0.23772  1.0000
  C   C5457     1.0  0.85842  0.74544  0.22282  1.0000
  C   C5458     1.0  0.85905  0.73011  0.21774  1.0000
  C   C5459     1.0  0.86544  0.71422  0.22771  1.0000
  C   C5460     1.0  0.87110  0.71372  0.24279  1.0000
  H   H4372     1.0  0.86375  0.75682  0.24158  1.0000
  H   H4373     1.0  0.85341  0.75770  0.21517  1.0000
  H   H4374     1.0  0.86596  0.70235  0.22386  1.0000
  H   H4375     1.0  0.87591  0.70142  0.25059  1.0000
  C   C5461     1.0  0.89739  0.75809  0.34251  1.0000
  C   C5462     1.0  0.91476  0.75291  0.33421  1.0000
  C   C5463     1.0  0.92799  0.74572  0.34404  1.0000
  C   C5464     1.0  0.92382  0.74401  0.36212  1.0000
  C   C5465     1.0  0.90647  0.74920  0.37017  1.0000
  C   C5466     1.0  0.89339  0.75603  0.36049  1.0000
  H   H4376     1.0  0.91792  0.75440  0.32032  1.0000
  H   H4377     1.0  0.94134  0.74168  0.33765  1.0000
  H   H4378     1.0  0.90308  0.74790  0.38407  1.0000
  H   H4379     1.0  0.88002  0.75980  0.36702  1.0000
  H   H4380     1.0  0.87924  0.66387  0.28177  1.0000
  H   H4381     1.0  0.94224  0.88491  0.15648  1.0000
  C   C5467     1.0  0.85043  0.85104  0.30782  1.0000
  H   H4382     1.0  0.83765  0.85676  0.31439  1.0000
  H   H4383     1.0  0.76826  0.93109  0.34708  1.0000
  C   C5468     1.0  0.86879  0.84062  0.28267  1.0000
  C   C5469     1.0  0.75254  0.93236  0.18592  1.0000
  H   H4384     1.0  0.83615  0.73990  0.27814  1.0000
  C   C5470     1.0  0.80429  0.93688  0.25572  1.0000
  C   C5471     1.0  0.79967  0.92156  0.26585  1.0000
  C   C5472     1.0  0.78211  0.92028  0.27098  1.0000
  C   C5473     1.0  0.76923  0.93412  0.26539  1.0000
  C   C5474     1.0  0.77390  0.94938  0.25503  1.0000
  C   C5475     1.0  0.79142  0.95082  0.25040  1.0000
  H   H4385     1.0  0.80969  0.91074  0.26976  1.0000
  H   H4386     1.0  0.77864  0.90841  0.27886  1.0000
  H   H4387     1.0  0.76402  0.96017  0.25074  1.0000
  H   H4388     1.0  0.79497  0.96259  0.24246  1.0000
  H   H4389     1.0  0.82201  0.74593  0.25305  1.0000
  C   C5476     1.0  0.92404  0.83874  0.22935  1.0000
  C   C5477     1.0  0.90918  0.83231  0.23866  1.0000
  C   C5478     1.0  0.91049  0.81464  0.24542  1.0000
  C   C5479     1.0  0.92667  0.80337  0.24291  1.0000
  C   C5480     1.0  0.94124  0.80961  0.23251  1.0000
  C   C5481     1.0  0.93997  0.82733  0.22584  1.0000
  H   H4390     1.0  0.89672  0.84095  0.24099  1.0000
  H   H4391     1.0  0.89902  0.80981  0.25271  1.0000
  H   H4392     1.0  0.95346  0.80077  0.22965  1.0000
  H   H4393     1.0  0.95127  0.83209  0.21791  1.0000
  C   C5482     1.0  0.93159  0.94140  0.20551  1.0000
  C   C5483     1.0  0.92963  0.93671  0.22350  1.0000
  C   C5484     1.0  0.91602  0.94611  0.23413  1.0000
  C   C5485     1.0  0.90390  0.95987  0.22690  1.0000
  C   C5486     1.0  0.90541  0.96411  0.20895  1.0000
  C   C5487     1.0  0.91941  0.95512  0.19829  1.0000
  H   H4394     1.0  0.93901  0.92628  0.22918  1.0000
  C   C5488     1.0  0.75323  0.97616  0.35935  1.0000
  H   H4395     1.0  0.80758  0.74510  0.19109  1.0000
  H   H4396     1.0  0.92082  0.95881  0.18440  1.0000
  C   C5489     1.0  0.93882  0.74102  0.11332  1.0000
  C   C5490     1.0  0.93436  0.73369  0.13096  1.0000
  C   C5491     1.0  0.92281  0.72197  0.13660  1.0000
  C   C5492     1.0  0.91613  0.71730  0.12448  1.0000
  C   C5493     1.0  0.92087  0.72453  0.10696  1.0000
  C   C5494     1.0  0.93187  0.73644  0.10148  1.0000
  H   H4397     1.0  0.93960  0.73722  0.14020  1.0000
  H   H4398     1.0  0.91932  0.71638  0.15018  1.0000
  H   H4399     1.0  0.91589  0.72099  0.09751  1.0000
  H   H4400     1.0  0.93511  0.74209  0.08787  1.0000
  C   C5495     1.0  0.82213  0.67037  0.30451  1.0000
  H   H4401     1.0  0.95827  0.71727  0.20840  1.0000
  C   C5496     1.0  0.75675  0.96608  0.28828  1.0000
  S   S753      1.0  0.82783  0.67139  0.17130  1.0000
  H   H4402     1.0  0.85026  0.66208  0.13914  1.0000
  H   H4403     1.0  0.75844  0.83638  0.27704  1.0000
  C   C5497     1.0  0.95673  0.73919  0.29902  1.0000
  C   C5498     1.0  0.94440  0.72984  0.29917  1.0000
  C   C5499     1.0  0.91129  0.70941  0.30849  1.0000
  C   C5500     1.0  0.89743  0.70774  0.30200  1.0000
  C   C5501     1.0  0.88020  0.71453  0.30924  1.0000
  C   C5502     1.0  0.87662  0.72226  0.32350  1.0000
  C   C5503     1.0  0.89027  0.72296  0.33070  1.0000
  C   C5504     1.0  0.90755  0.71670  0.32318  1.0000
  H   H4404     1.0  0.95299  0.75305  0.29800  1.0000
  C   C5505     1.0  0.93640  0.75831  0.22122  1.0000
  C   C5506     1.0  0.77517  0.94822  0.17028  1.0000
  H   H4405     1.0  0.87680  0.76431  0.11089  1.0000
  H   H4406     1.0  0.86966  0.71377  0.30371  1.0000
  H   H4407     1.0  0.86330  0.72770  0.32899  1.0000
  H   H4408     1.0  0.88744  0.72856  0.34203  1.0000
  H   H4409     1.0  0.91794  0.71740  0.32897  1.0000
  C   C5507     1.0  0.88955  0.80043  0.36492  1.0000
  C   C5508     1.0  0.88280  0.81185  0.37625  1.0000
  C   C5509     1.0  0.88105  0.82961  0.36988  1.0000
  C   C5510     1.0  0.88618  0.83594  0.35219  1.0000
  C   C5511     1.0  0.89325  0.82453  0.34068  1.0000
  C   C5512     1.0  0.89462  0.80668  0.34721  1.0000
  P   P180      1.0  0.89970  0.83307  0.31780  1.0000
  C   C5513     1.0  0.88101  0.83794  0.30778  1.0000
  C   C5514     1.0  0.90664  0.85298  0.31591  1.0000
  C   C5515     1.0  0.92459  0.86840  0.32379  1.0000
  C   C5516     1.0  0.91938  0.85305  0.32480  1.0000
  C   C5517     1.0  0.86456  0.84568  0.31621  1.0000
  C   C5518     1.0  0.88299  0.83541  0.29093  1.0000
  C   C5519     1.0  0.91720  0.81780  0.30756  1.0000
  C   C5520     1.0  0.93405  0.82131  0.30086  1.0000
  C   C5521     1.0  0.94704  0.80985  0.29205  1.0000
  C   C5522     1.0  0.94334  0.79490  0.28970  1.0000
  C   C5523     1.0  0.92669  0.79128  0.29635  1.0000
  C   C5524     1.0  0.91371  0.80263  0.30526  1.0000
  H   H4410     1.0  0.89071  0.78667  0.36986  1.0000
  H   H4411     1.0  0.87873  0.80691  0.38994  1.0000
  H   H4412     1.0  0.87558  0.83849  0.37865  1.0000
  H   H4413     1.0  0.88449  0.84977  0.34752  1.0000
  H   H4414     1.0  0.89956  0.79742  0.33887  1.0000
  H   H4415     1.0  0.93461  0.86830  0.33049  1.0000
  H   H4416     1.0  0.92527  0.84119  0.33249  1.0000
  H   H4417     1.0  0.86261  0.84772  0.32920  1.0000
  H   H4418     1.0  0.89545  0.82951  0.28401  1.0000
  H   H4419     1.0  0.93720  0.83300  0.30198  1.0000
  H   H4420     1.0  0.95991  0.81273  0.28669  1.0000
  H   H4421     1.0  0.95321  0.78626  0.28243  1.0000
  H   H4422     1.0  0.92368  0.77989  0.29418  1.0000
  H   H4423     1.0  0.90078  0.79973  0.31000  1.0000
  C   C5525     1.0  0.80352  0.90615  0.31028  1.0000
  C   C5526     1.0  0.80882  0.89573  0.32520  1.0000
  C   C5527     1.0  0.80949  0.90324  0.33854  1.0000
  C   C5528     1.0  0.80435  0.92115  0.33717  1.0000
  C   C5529     1.0  0.79831  0.93165  0.32250  1.0000
  C   C5530     1.0  0.79855  0.92409  0.30877  1.0000
  P   P181      1.0  0.78978  0.95444  0.32199  1.0000
  C   C5531     1.0  0.94399  0.66647  0.19169  1.0000
  H   H4424     1.0  0.81421  0.96131  0.17022  1.0000
  P   P182      1.0  0.75460  0.86949  0.21789  1.0000
  C   C5532     1.0  0.90789  0.80606  0.13346  1.0000
  H   H4425     1.0  0.82360  0.69188  0.25939  1.0000
  H   H4426     1.0  0.74839  0.94040  0.12772  1.0000
  H   H4427     1.0  0.99165  0.70599  0.30296  1.0000
  C   C5533     1.0  0.76221  0.94477  0.18488  1.0000
  C   C5534     1.0  0.77796  0.94003  0.15643  1.0000
  Fe  Fe377     1.0  0.97251  0.76186  0.11634  1.0000
  H   H4428     1.0  0.80283  0.90017  0.30011  1.0000
  H   H4429     1.0  0.81208  0.88179  0.32646  1.0000
  H   H4430     1.0  0.81352  0.89511  0.35014  1.0000
  H   H4431     1.0  0.80446  0.92677  0.34781  1.0000
  H   H4432     1.0  0.79457  0.93191  0.29706  1.0000
  H   H4433     1.0  0.90703  0.66377  0.13235  1.0000
  C   C5535     1.0  0.92696  0.84240  0.17226  1.0000
  H   H4434     1.0  0.79016  0.84788  0.21614  1.0000
  H   H4435     1.0  0.93326  0.76593  0.43401  1.0000
  H   H4436     1.0  0.92811  0.80938  0.35146  1.0000
  H   H4437     1.0  0.93874  0.79644  0.19300  1.0000
  C   C5536     1.0  0.90269  0.80830  0.15058  1.0000
  C   C5537     1.0  0.97403  0.81359  0.16190  1.0000
  C   C5538     1.0  0.76533  0.83887  0.26370  1.0000
  Fe  Fe378     1.0  0.74566  0.90688  0.28912  1.0000
  C   C5539     1.0  0.79068  0.67330  0.31398  1.0000
  C   C5540     1.0  0.95347  0.69539  0.45181  1.0000
  C   C5541     1.0  0.90744  0.91565  0.20393  1.0000
  C   C5542     1.0  0.89474  0.92869  0.19698  1.0000
  C   C5543     1.0  0.87785  0.93214  0.20670  1.0000
  C   C5544     1.0  0.87379  0.92299  0.22363  1.0000
  C   C5545     1.0  0.88664  0.91029  0.23093  1.0000
  C   C5546     1.0  0.90345  0.90649  0.22085  1.0000
  P   P183      1.0  0.88076  0.89769  0.25226  1.0000
  C   C5547     1.0  0.90023  0.88453  0.25944  1.0000
  C   C5548     1.0  0.87102  0.91123  0.26794  1.0000
  C   C5549     1.0  0.87350  0.92826  0.26446  1.0000
  C   C5550     1.0  0.86691  0.93827  0.27714  1.0000
  C   C5551     1.0  0.85762  0.93145  0.29328  1.0000
  C   C5552     1.0  0.85524  0.91445  0.29691  1.0000
  C   C5553     1.0  0.86221  0.90426  0.28440  1.0000
  C   C5554     1.0  0.90330  0.86643  0.26269  1.0000
  C   C5555     1.0  0.91890  0.85658  0.26737  1.0000
  C   C5556     1.0  0.93130  0.86471  0.26937  1.0000
  C   C5557     1.0  0.92807  0.88271  0.26679  1.0000
  C   C5558     1.0  0.91269  0.89260  0.26165  1.0000
  C   C5559     1.0  0.86610  0.88541  0.24989  1.0000
  C   C5560     1.0  0.87231  0.87344  0.23898  1.0000
  C   C5561     1.0  0.86126  0.86383  0.23682  1.0000
  C   C5562     1.0  0.84372  0.86656  0.24505  1.0000
  C   C5563     1.0  0.83715  0.87911  0.25522  1.0000
  C   C5564     1.0  0.84824  0.88868  0.25746  1.0000
  H   H4438     1.0  0.92053  0.91287  0.19635  1.0000
  H   H4439     1.0  0.89806  0.93627  0.18417  1.0000
  H   H4440     1.0  0.86795  0.94197  0.20114  1.0000
  H   H4441     1.0  0.86064  0.92581  0.23106  1.0000
  H   H4442     1.0  0.91355  0.89650  0.22591  1.0000
  H   H4443     1.0  0.88065  0.93385  0.25203  1.0000
  H   H4444     1.0  0.86900  0.95138  0.27428  1.0000
  H   H4445     1.0  0.85231  0.93933  0.30297  1.0000
  H   H4446     1.0  0.84797  0.90918  0.30938  1.0000
  H   H4447     1.0  0.86061  0.89098  0.28747  1.0000
  H   H4448     1.0  0.89408  0.85988  0.26094  1.0000
  H   H4449     1.0  0.92165  0.84267  0.26873  1.0000
  H   H4450     1.0  0.94363  0.85711  0.27240  1.0000
  H   H4451     1.0  0.93786  0.88904  0.26796  1.0000
  H   H4452     1.0  0.91074  0.90657  0.25893  1.0000
  H   H4453     1.0  0.88577  0.87157  0.23215  1.0000
  H   H4454     1.0  0.86631  0.85419  0.22883  1.0000
  H   H4455     1.0  0.83524  0.85901  0.24343  1.0000
  H   H4456     1.0  0.82348  0.88135  0.26145  1.0000
  H   H4457     1.0  0.84271  0.89881  0.26479  1.0000
  H   H4458     1.0  0.84591  0.81584  0.09327  1.0000
  C   C5565     1.0  0.91999  0.75651  0.22021  1.0000
  C   C5566     1.0  0.82856  0.73102  0.13269  1.0000
  H   H4459     1.0  0.85407  0.75365  0.16541  1.0000
  C   C5567     1.0  0.96622  0.70339  0.30170  1.0000
  C   C5568     1.0  0.93220  0.76295  0.44785  1.0000
  H   H4460     1.0  0.74800  0.91445  0.17290  1.0000
  P   P184      1.0  0.76000  0.95402  0.20328  1.0000
  H   H4461     1.0  0.77497  0.85722  0.18628  1.0000
  C   C5569     1.0  0.93939  0.66275  0.34350  1.0000
  H   H4462     1.0  0.89979  0.70119  0.29138  1.0000
  C   C5570     1.0  0.84444  0.79110  0.11027  1.0000
  C   C5571     1.0  0.83961  0.77514  0.11293  1.0000
  C   C5572     1.0  0.82982  0.78445  0.08563  1.0000
  C   C5573     1.0  0.87758  0.76225  0.12433  1.0000
  C   C5574     1.0  0.88066  0.75597  0.15881  1.0000
  H   H4463     1.0  0.90140  0.65970  0.29901  1.0000
  C   C5575     1.0  0.90608  0.67025  0.23938  1.0000
  C   C5576     1.0  0.77518  0.93805  0.21484  1.0000
  C   C5577     1.0  0.79322  0.93731  0.20896  1.0000
  C   C5578     1.0  0.80520  0.92398  0.21672  1.0000
  C   C5579     1.0  0.79931  0.91084  0.22984  1.0000
  C   C5580     1.0  0.78143  0.91122  0.23541  1.0000
  C   C5581     1.0  0.76941  0.92484  0.22802  1.0000
  H   H4464     1.0  0.84163  0.85262  0.28461  1.0000
  H   H4465     1.0  0.77762  0.67958  0.31202  1.0000
  H   H4466     1.0  0.95337  0.82220  0.33514  1.0000
  P   P185      1.0  0.96609  0.74298  0.44227  1.0000
  H   H4467     1.0  0.83298  0.80992  0.07140  1.0000
  C   C5582     1.0  0.88798  0.66535  0.30392  1.0000
  H   H4468     1.0  0.78311  0.95724  0.16971  1.0000
  C   C5583     1.0  0.78304  0.84557  0.22933  1.0000
  C   C5584     1.0  0.97902  0.80720  0.24716  1.0000
  H   H4469     1.0  0.82636  0.97434  0.18776  1.0000
  C   C5585     1.0  0.76463  0.94362  0.35061  1.0000
  H   H4470     1.0  0.89783  0.89603  0.29819  1.0000
  H   H4471     1.0  0.79805  0.94709  0.19843  1.0000
  H   H4472     1.0  0.81904  0.92399  0.21279  1.0000
  H   H4473     1.0  0.80857  0.90067  0.23605  1.0000
  H   H4474     1.0  0.77686  0.90128  0.24592  1.0000
  S   S754      1.0  0.88806  0.97252  0.24048  1.0000
  C   C5586     1.0  0.93621  0.67920  0.31480  1.0000
  C   C5587     1.0  0.88348  0.67038  0.31986  1.0000
  H   H4475     1.0  0.81602  0.72184  0.24359  1.0000
  H   H4476     1.0  0.95708  0.81732  0.18627  1.0000
  C   C5588     1.0  0.97918  0.70770  0.15211  1.0000
  H   H4477     1.0  0.96049  0.67667  0.28091  1.0000
  C   C5589     1.0  0.77887  0.96486  0.30416  1.0000
  H   H4478     1.0  0.88103  0.66567  0.09196  1.0000
  Fe  Fe379     1.0  0.88202  0.67052  0.19063  1.0000
  C   C5590     1.0  0.89849  0.83162  0.19637  1.0000
  C   C5591     1.0  0.93788  0.69724  0.27799  1.0000
  C   C5592     1.0  0.96200  0.69510  0.13373  1.0000
  H   H4479     1.0  0.96905  0.86342  0.28252  1.0000
  C   C5593     1.0  0.98383  0.65841  0.32990  1.0000
  C   C5594     1.0  0.82638  0.70222  0.26369  1.0000
  C   C5595     1.0  0.79137  0.83357  0.24181  1.0000
  C   C5596     1.0  0.78252  0.83025  0.25899  1.0000
  C   C5597     1.0  0.81355  0.97505  0.16724  1.0000
  H   H4480     1.0  0.97573  0.86550  0.33242  1.0000
  H   H4481     1.0  0.82416  0.78187  0.07607  1.0000
  H   H4482     1.0  0.94169  0.68927  0.33459  1.0000
  C   C5598     1.0  0.95635  0.68312  0.25492  1.0000
  C   C5599     1.0  0.89655  0.94620  0.09247  1.0000
  S   S755      1.0  0.96538  0.79619  0.16107  1.0000
  C   C5600     1.0  0.76599  0.95768  0.30142  1.0000
  H   H4483     1.0  0.93029  0.66524  0.29840  1.0000
  C   C5601     1.0  0.86016  0.71243  0.11715  1.0000
  C   C5602     1.0  0.90081  0.65742  0.12610  1.0000
  C   C5603     1.0  0.74544  0.96244  0.36922  1.0000
  H   H4484     1.0  0.95818  0.75887  0.34630  1.0000
  P   P186      1.0  0.84269  0.75909  0.13225  1.0000
  C   C5604     1.0  0.82179  0.71921  0.25484  1.0000
  C   C5605     1.0  0.75695  0.85074  0.25124  1.0000
  H   H4485     1.0  0.78904  0.82109  0.26870  1.0000
  H   H4486     1.0  0.89346  0.66881  0.32715  1.0000
  C   C5606     1.0  0.98435  0.71455  0.21161  1.0000
  C   C5607     1.0  0.86574  0.93451  0.15535  1.0000
  H   H4487     1.0  0.89245  0.81915  0.15374  1.0000
  H   H4488     1.0  0.90411  0.92727  0.11413  1.0000
  H   H4489     1.0  0.85004  0.79389  0.11974  1.0000
  H   H4490     1.0  0.77662  0.95847  0.38646  1.0000
  H   H4491     1.0  0.84467  0.71016  0.29349  1.0000
  C   C5608     1.0  0.91683  0.78371  0.19936  1.0000
  H   H4492     1.0  0.88895  0.86908  0.29940  1.0000
  C   C5609     1.0  0.85419  0.79302  0.19156  1.0000
  H   H4493     1.0  0.92091  0.89579  0.31334  1.0000
  C   C5610     1.0  0.95334  0.71229  0.45277  1.0000
  C   C5611     1.0  0.94899  0.71185  0.30078  1.0000
  C   C5612     1.0  0.97380  0.73064  0.30029  1.0000
  C   C5613     1.0  0.98466  0.75688  0.45797  1.0000
  S   S756      1.0  0.87935  0.66812  0.16480  1.0000
  C   C5614     1.0  0.84207  0.80358  0.09532  1.0000
  C   C5615     1.0  0.91684  0.88388  0.31420  1.0000
  P   P187      1.0  0.96047  0.69446  0.18455  1.0000
  C   C5616     1.0  0.97766  0.83888  0.29853  1.0000
  H   H4494     1.0  0.80110  0.96593  0.34813  1.0000
  H   H4495     1.0  0.78770  0.94318  0.14493  1.0000
  H   H4496     1.0  0.78754  0.77384  0.18914  1.0000
  H   H4497     1.0  0.91747  0.71865  0.26998  1.0000
  S   S757      1.0  0.75520  0.90136  0.31381  1.0000
  H   H4498     1.0  0.90465  0.76421  0.11808  1.0000
  H   H4499     1.0  0.99068  0.78631  0.39390  1.0000
  H   H4500     1.0  0.90541  0.68323  0.24076  1.0000
  C   C5617     1.0  0.90383  0.88402  0.30567  1.0000
  C   C5618     1.0  0.85263  0.84867  0.29101  1.0000
  Fe  Fe380     1.0  0.85151  0.68113  0.17240  1.0000
  C   C5619     1.0  0.88141  0.79887  0.19412  1.0000
  C   C5620     1.0  0.93336  0.78536  0.20042  1.0000
  H   H4501     1.0  0.90737  0.75841  0.14858  1.0000
  H   H4502     1.0  0.91501  0.94286  0.24798  1.0000
  C   C5621     1.0  0.92813  0.70843  0.26609  1.0000
  H   H4503     1.0  0.98125  0.66457  0.20515  1.0000
  H   H4504     1.0  0.87674  0.79329  0.17121  1.0000
  C   C5622     1.0  0.95239  0.68499  0.27212  1.0000
  C   C5623     1.0  0.77642  0.89251  0.20052  1.0000
  H   H4505     1.0  0.98324  0.73787  0.30058  1.0000
  C   C5624     1.0  0.97222  0.85685  0.29498  1.0000
  C   C5625     1.0  0.79702  0.89010  0.17357  1.0000
  C   C5626     1.0  0.97854  0.71272  0.30161  1.0000
  C   C5627     1.0  0.85940  0.72875  0.12013  1.0000
  H   H4506     1.0  0.85672  0.68109  0.25178  1.0000
  H   H4507     1.0  0.92371  0.71431  0.24015  1.0000
  C   C5628     1.0  0.87528  0.66768  0.29421  1.0000
  C   C5629     1.0  0.86478  0.75618  0.15485  1.0000
  C   C5630     1.0  0.80006  0.78358  0.16308  1.0000
  H   H4508     1.0  0.98423  0.83024  0.25147  1.0000
  H   H4509     1.0  0.83380  0.79261  0.21443  1.0000
  H   H4510     1.0  0.79136  0.79613  0.16223  1.0000
  C   C5631     1.0  0.93936  0.67816  0.33121  1.0000
  C   C5632     1.0  0.90860  0.82104  0.18477  1.0000
  H   H4511     1.0  0.89463  0.67834  0.21678  1.0000
  H   H4512     1.0  0.91458  0.74559  0.22821  1.0000
  C   C5633     1.0  0.91098  0.71443  0.20811  1.0000
  C   C5634     1.0  0.90740  0.73088  0.19789  1.0000
  C   C5635     1.0  0.82009  0.96697  0.30567  1.0000
  H   H4513     1.0  0.94373  0.74883  0.23007  1.0000
  C   C5636     1.0  0.89495  0.75899  0.14555  1.0000
  H   H4514     1.0  0.97854  0.83179  0.28868  1.0000
  H   H4515     1.0  0.97791  0.78347  0.24089  1.0000
  H   H4516     1.0  0.94857  0.69143  0.23043  1.0000
  H   H4517     1.0  0.82409  0.93936  0.15014  1.0000
  C   C5637     1.0  0.83533  0.98012  0.31926  1.0000
  C   C5638     1.0  0.85701  0.79775  0.21869  1.0000
  C   C5639     1.0  0.84366  0.73804  0.12827  1.0000
  P   P188      1.0  0.90411  0.80018  0.18547  1.0000
  C   C5640     1.0  0.90040  0.96895  0.14657  1.0000
  C   C5641     1.0  0.88618  0.65853  0.10333  1.0000
  C   C5642     1.0  0.91670  0.76989  0.45824  1.0000
  C   C5643     1.0  0.89432  0.66656  0.11138  1.0000
  C   C5644     1.0  0.86470  0.92293  0.17138  1.0000
  C   C5645     1.0  0.94588  0.69350  0.24347  1.0000
  H   H4518     1.0  0.96627  0.80835  0.25557  1.0000
  H   H4519     1.0  0.88199  0.80142  0.21975  1.0000
  C   C5646     1.0  0.82486  0.76376  0.15007  1.0000
  C   C5647     1.0  0.82715  0.65742  0.15808  1.0000
  C   C5648     1.0  0.81353  0.78001  0.14906  1.0000
  H   H4520     1.0  0.79528  0.98015  0.37374  1.0000
  C   C5649     1.0  0.84698  0.79450  0.20870  1.0000
  H   H4521     1.0  0.91742  0.74929  0.17613  1.0000
  C   C5650     1.0  0.95713  0.77272  0.34373  1.0000
  H   H4522     1.0  0.97302  0.78391  0.37405  1.0000
  C   C5651     1.0  0.96893  0.75564  0.42048  1.0000
  H   H4523     1.0  0.82492  0.98052  0.34620  1.0000
  C   C5652     1.0  0.85534  0.66781  0.25660  1.0000
  C   C5653     1.0  0.86307  0.75925  0.13757  1.0000
  C   C5654     1.0  0.93974  0.70872  0.18990  1.0000
  C   C5655     1.0  0.95464  0.80839  0.33733  1.0000
  C   C5656     1.0  0.87418  0.79974  0.21152  1.0000
  C   C5657     1.0  0.98133  0.84005  0.32674  1.0000
  S   S758      1.0  0.74846  0.97902  0.14585  1.0000
  H   H4524     1.0  0.95575  0.77422  0.21215  1.0000
  H   H4525     1.0  0.94230  0.66186  0.35598  1.0000
  C   C5658     1.0  0.92966  0.78101  0.14186  1.0000
  C   C5659     1.0  0.87671  0.96636  0.11642  1.0000
  H   H4526     1.0  0.81502  0.78997  0.13754  1.0000
  H   H4527     1.0  0.96722  0.67327  0.25057  1.0000
  C   C5660     1.0  0.94022  0.80119  0.34659  1.0000
  C   C5661     1.0  0.94143  0.78337  0.34969  1.0000
  H   H4528     1.0  0.95327  0.76305  0.38363  1.0000
  C   C5662     1.0  0.78188  0.98088  0.29390  1.0000
  C   C5663     1.0  0.90012  0.66747  0.22580  1.0000
  H   H4529     1.0  0.93027  0.77774  0.35684  1.0000
  P   P189      1.0  0.93349  0.69975  0.30011  1.0000
  H   H4530     1.0  0.93134  0.73664  0.29796  1.0000
  C   C5664     1.0  0.89340  0.76221  0.12833  1.0000
  C   C5665     1.0  0.90269  0.84733  0.19594  1.0000
  C   C5666     1.0  0.94313  0.77266  0.21123  1.0000
  C   C5667     1.0  0.91031  0.76905  0.20920  1.0000
  H   H4531     1.0  0.88759  0.82779  0.20600  1.0000
  H   H4532     1.0  0.89529  0.85515  0.20530  1.0000
  P   P190      1.0  0.88582  0.94204  0.14509  1.0000
  S   S759      1.0  0.97617  0.78912  0.11278  1.0000
  H   H4533     1.0  0.90428  0.93842  0.08316  1.0000
  H   H4534     1.0  0.80477  0.82690  0.23826  1.0000
  H   H4535     1.0  0.87128  0.73372  0.11655  1.0000
  H   H4536     1.0  0.81795  0.70890  0.13393  1.0000
  H   H4537     1.0  0.80296  0.68834  0.29079  1.0000
  C   C5668     1.0  0.87134  0.79512  0.18429  1.0000
  C   C5669     1.0  0.91701  0.85263  0.18404  1.0000
  H   H4538     1.0  0.92069  0.86442  0.18432  1.0000
  C   C5670     1.0  0.98759  0.84123  0.16429  1.0000
  C   C5671     1.0  0.93188  0.70627  0.24899  1.0000
  C   C5672     1.0  0.83219  0.77193  0.10055  1.0000
  C   C5673     1.0  0.77071  0.87781  0.20012  1.0000
  H   H4539     1.0  0.78282  0.96953  0.21566  1.0000
  S   S760      1.0  0.85379  0.68176  0.19913  1.0000
  C   C5674     1.0  0.91078  0.79670  0.16354  1.0000
  C   C5675     1.0  0.92282  0.82669  0.17262  1.0000
  H   H4540     1.0  0.84662  0.78984  0.18401  1.0000
  H   H4541     1.0  0.93171  0.77461  0.16848  1.0000
  H   H4542     1.0  0.94015  0.77055  0.13831  1.0000
  C   C5676     1.0  0.96553  0.72138  0.44108  1.0000
  C   C5677     1.0  0.76802  0.92802  0.15731  1.0000
  C   C5678     1.0  0.95822  0.67226  0.19362  1.0000
  C   C5679     1.0  0.76572  0.85432  0.23398  1.0000
  H   H4543     1.0  0.93111  0.81873  0.16371  1.0000
  H   H4544     1.0  0.81617  0.73802  0.13864  1.0000
  H   H4545     1.0  0.85112  0.94949  0.13561  1.0000
  C   C5680     1.0  0.77871  0.86897  0.18655  1.0000
  C   C5681     1.0  0.92135  0.79236  0.12912  1.0000
  C   C5682     1.0  0.88647  0.96027  0.15351  1.0000
  H   H4546     1.0  0.87250  0.70515  0.11145  1.0000
  H   H4547     1.0  0.92557  0.79059  0.11585  1.0000
  C   C5683     1.0  0.89637  0.93989  0.11011  1.0000
  C   C5684     1.0  0.82943  0.71460  0.12984  1.0000
  H   H4548     1.0  0.94356  0.91368  0.16038  1.0000
  H   H4549     1.0  0.94402  0.68842  0.46079  1.0000
  C   C5685     1.0  0.97395  0.83564  0.17711  1.0000
  C   C5686     1.0  0.96739  0.82171  0.17606  1.0000
  H   H4550     1.0  0.93833  0.84629  0.16325  1.0000
  C   C5687     1.0  0.83304  0.72940  0.27435  1.0000
  S   S761      1.0  0.85172  0.97029  0.21752  1.0000
  Fe  Fe381     1.0  0.97928  0.78101  0.14038  1.0000
  S   S762      1.0  0.97369  0.75453  0.14440  1.0000
  C   C5688     1.0  0.93231  0.91199  0.15649  1.0000
  H   H4551     1.0  0.91958  0.93826  0.15586  1.0000
  C   C5689     1.0  0.83549  0.93455  0.15601  1.0000
  C   C5690     1.0  0.92010  0.73645  0.18388  1.0000
  C   C5691     1.0  0.93152  0.89578  0.15438  1.0000
  C   C5692     1.0  0.91856  0.92606  0.15379  1.0000
  H   H4552     1.0  0.91627  0.88098  0.14815  1.0000
  C   C5693     1.0  0.76687  0.97361  0.34524  1.0000
  H   H4553     1.0  0.98053  0.72338  0.22044  1.0000
  H   H4554     1.0  0.90167  0.81505  0.12350  1.0000
  C   C5694     1.0  0.96068  0.76442  0.39240  1.0000
  C   C5695     1.0  0.79167  0.87522  0.17323  1.0000
  H   H4555     1.0  0.93394  0.67521  0.18534  1.0000
  C   C5696     1.0  0.98239  0.83035  0.31442  1.0000
  H   H4556     1.0  0.77016  0.92174  0.14653  1.0000
  C   C5697     1.0  0.90311  0.90765  0.14693  1.0000
  H   H4557     1.0  0.89480  0.73928  0.20095  1.0000
  C   C5698     1.0  0.80515  0.67826  0.30195  1.0000
  C   C5699     1.0  0.97047  0.79779  0.33113  1.0000
  C   C5700     1.0  0.96659  0.69782  0.16120  1.0000
  C   C5701     1.0  0.98172  0.77751  0.39820  1.0000
  H   H4558     1.0  0.89189  0.90573  0.14324  1.0000
  C   C5702     1.0  0.82512  0.73280  0.26018  1.0000
  C   C5703     1.0  0.80785  0.96408  0.32115  1.0000
  C   C5704     1.0  0.98019  0.76741  0.41493  1.0000
  C   C5705     1.0  0.92705  0.70338  0.20419  1.0000
  H   H4559     1.0  0.94604  0.73001  0.16912  1.0000
  C   C5706     1.0  0.93626  0.72546  0.17993  1.0000
  C   C5707     1.0  0.87268  0.96663  0.16615  1.0000
  C   C5708     1.0  0.83364  0.97517  0.30469  1.0000
  H   H4560     1.0  0.80697  0.89503  0.16319  1.0000
  H   H4561     1.0  0.81891  0.96325  0.29422  1.0000
  C   C5709     1.0  0.82360  0.97668  0.33491  1.0000
  H   H4562     1.0  0.76298  0.94564  0.30948  1.0000
  H   H4563     1.0  0.96788  0.88041  0.30406  1.0000
  H   H4564     1.0  0.94762  0.68472  0.15821  1.0000
  H   H4565     1.0  0.98783  0.69023  0.41814  1.0000
  S   S763      1.0  0.98901  0.73886  0.36591  1.0000
  C   C5710     1.0  0.83797  0.71240  0.28300  1.0000
  C   C5711     1.0  0.77308  0.97076  0.39052  1.0000
  C   C5712     1.0  0.94603  0.75228  0.45540  1.0000
  H   H4566     1.0  0.84272  0.97788  0.29255  1.0000
  C   C5713     1.0  0.80997  0.96857  0.33590  1.0000
  P   P191      1.0  0.84096  0.67653  0.28895  1.0000
  H   H4567     1.0  0.86277  0.68197  0.33837  1.0000
  C   C5714     1.0  0.96585  0.68744  0.43931  1.0000
  C   C5715     1.0  0.78949  0.89864  0.18731  1.0000
  H   H4568     1.0  0.84005  0.68581  0.32162  1.0000
  S   S764      1.0  0.84043  0.97579  0.25773  1.0000
  H   H4569     1.0  0.98723  0.72019  0.41934  1.0000
  H   H4570     1.0  0.96838  0.84203  0.18787  1.0000
  H   H4571     1.0  0.79758  0.86853  0.16263  1.0000
  Fe  Fe382     1.0  0.98066  0.87313  0.22579  1.0000
  H   H4572     1.0  0.95484  0.69082  0.12658  1.0000
  H   H4573     1.0  0.90129  0.71014  0.21907  1.0000
  C   C5716     1.0  0.83477  0.69861  0.27771  1.0000
  C   C5717     1.0  0.85096  0.94035  0.14777  1.0000
  C   C5718     1.0  0.84524  0.70528  0.12214  1.0000
  H   H4574     1.0  0.89621  0.97476  0.20326  1.0000
  H   H4575     1.0  0.98136  0.78296  0.30140  1.0000
  H   H4576     1.0  0.84596  0.69243  0.12028  1.0000
  C   C5719     1.0  0.85339  0.68001  0.31658  1.0000
  S   S765      1.0  0.79884  0.97564  0.14012  1.0000
  H   H4577     1.0  0.97519  0.76879  0.45564  1.0000
  C   C5720     1.0  0.75119  0.94617  0.36490  1.0000
  C   C5721     1.0  0.95934  0.75410  0.40898  1.0000
  H   H4578     1.0  0.96604  0.67433  0.43858  1.0000
  H   H4579     1.0  0.82246  0.91892  0.17848  1.0000
  H   H4580     1.0  0.86137  0.96075  0.17129  1.0000
  C   C5722     1.0  0.86618  0.67778  0.32615  1.0000
  H   H4581     1.0  0.97752  0.70783  0.11086  1.0000
  Fe  Fe383     1.0  0.86109  0.98213  0.23443  1.0000
  H   H4582     1.0  0.94376  0.71814  0.46263  1.0000
  H   H4583     1.0  0.75565  0.92506  0.23255  1.0000
  C   C5723     1.0  0.97157  0.86644  0.30714  1.0000
  C   C5724     1.0  0.85781  0.67481  0.30060  1.0000
  C   C5725     1.0  0.84915  0.91732  0.17968  1.0000
  H   H4584     1.0  0.84845  0.90851  0.19212  1.0000
  H   H4585     1.0  0.87588  0.91827  0.17752  1.0000
  C   C5726     1.0  0.97472  0.70474  0.12486  1.0000
  C   C5727     1.0  0.75766  0.97451  0.40256  1.0000
  H   H4586     1.0  0.98371  0.77132  0.33037  1.0000
  C   C5728     1.0  0.97667  0.69966  0.19316  1.0000
  C   C5729     1.0  0.98380  0.74222  0.45243  1.0000
  C   C5730     1.0  0.83455  0.92313  0.17200  1.0000
  C   C5731     1.0  0.97176  0.71104  0.20469  1.0000
  C   C5732     1.0  0.83963  0.65523  0.14299  1.0000
  C   C5733     1.0  0.98744  0.81938  0.14881  1.0000
  C   C5734     1.0  0.75541  0.92406  0.17211  1.0000
  P   P192      1.0  0.98924  0.80710  0.31927  1.0000
  C   C5735     1.0  0.76027  0.98168  0.27777  1.0000
  H   H4587     1.0  0.95078  0.74491  0.41280  1.0000
  C   C5736     1.0  0.88636  0.94990  0.12224  1.0000
  C   C5737     1.0  0.76588  0.97494  0.19730  1.0000
  C   C5738     1.0  0.97774  0.71337  0.42845  1.0000
  C   C5739     1.0  0.97804  0.69640  0.42772  1.0000
  H   H4588     1.0  0.98541  0.67099  0.32236  1.0000
  S   S766      1.0  0.74740  0.93209  0.27083  1.0000
  H   H4589     1.0  0.91086  0.96469  0.13635  1.0000
  C   C5740     1.0  0.97186  0.77611  0.38699  1.0000
  H   H4590     1.0  0.81071  0.98169  0.39759  1.0000
  C   C5741     1.0  0.97160  0.77986  0.33463  1.0000
  H   H4591     1.0  0.74428  0.91111  0.14427  1.0000
  C   C5742     1.0  0.93302  0.66467  0.31088  1.0000
  C   C5743     1.0  0.98902  0.81961  0.24469  1.0000
  C   C5744     1.0  0.97605  0.85804  0.32305  1.0000
  C   C5745     1.0  0.88676  0.96251  0.08682  1.0000
  C   C5746     1.0  0.77705  0.97898  0.20571  1.0000
  H   H4592     1.0  0.98479  0.83373  0.33913  1.0000
  H   H4593     1.0  0.98806  0.76864  0.42328  1.0000
  C   C5747     1.0  0.98829  0.65324  0.34623  1.0000
  H   H4594     1.0  0.99262  0.81318  0.13781  1.0000
  H   H4595     1.0  0.74684  0.96048  0.28625  1.0000
  H   H4596     1.0  0.88685  0.96734  0.07317  1.0000
  S   S767      1.0  0.92285  0.65957  0.26649  1.0000
  C   C5748     1.0  0.84855  0.66184  0.27410  1.0000
  C   C5749     1.0  0.98338  0.71091  0.13407  1.0000
  H   H4597     1.0  0.86537  0.66142  0.23152  1.0000
  C   C5750     1.0  0.82438  0.65716  0.31909  1.0000
  C   C5751     1.0  0.91352  0.65618  0.25086  1.0000
  C   C5752     1.0  0.79304  0.66033  0.32856  1.0000
  C   C5753     1.0  0.99258  0.78806  0.29379  1.0000
  S   S768      1.0  0.99233  0.86447  0.25000  1.0000
  H   H4598     1.0  0.74926  0.96518  0.40782  1.0000
  C   C5754     1.0  0.86055  0.65659  0.24505  1.0000
  H   H4599     1.0  0.99315  0.71850  0.12724  1.0000
  C   C5755     1.0  0.90148  0.65058  0.22391  1.0000
  H   H4600     1.0  0.97502  0.65082  0.31038  1.0000
  H   H4601     1.0  0.78181  0.65658  0.33792  1.0000
  H   H4602     1.0  0.98556  0.71332  0.15883  1.0000
  Fe  Fe384     1.0  0.99353  0.69303  0.35637  1.0000
  C   C5756     1.0  0.87686  0.97258  0.09880  1.0000
  H   H4603     1.0  0.86887  0.97434  0.12552  1.0000
  H   H4604     1.0  0.80369  0.65003  0.17447  1.0000
  C   C5757     1.0  0.80989  0.65223  0.33109  1.0000
  C   C5758     1.0  0.87319  0.98107  0.17211  1.0000
  C   C5759     1.0  0.82039  0.98243  0.17723  1.0000
  H   H4605     1.0  0.92717  0.75273  0.49773  1.0000
  H   H4606     1.0  0.95449  0.74026  0.47959  1.0000
  C   C5760     1.0  0.92856  0.75560  0.48380  1.0000
  H   H4607     1.0  0.90287  0.77164  0.48422  1.0000
  H   H4608     1.0  0.76668  0.97579  0.60233  1.0000
