data_image0
_chemical_formula_structural       H2C2SHCSCFeSFeSCHFeHSFeCSH2SCSFeS2C2SCHSFeCHFeCSCSCH3FeSFeCSFeCSC2HS2C6H4C4H4C9H3C6H5CH2SHPHCHC6H5CHC2H4C3H3C2H3C4HC2HC3H5C8H2C3HC3HCHCHCH6PHC2SC3PHC5H2CH2C2HC2H3C2HCHC2H6FeC13PC9HCH5C2H3C2H2SH2C3HCH2C2HC2SHSHC4SHC2HCH2C5H2CH2SCH2CH2CHCH2CH2CHC2SFeH2CPCH4CH2FeCHC2HCSCHCHCHC2HC4SHCHC2HC2HC2HCH2CH2C5HC2HCHCH2PFeH2C4HCH2PC5HCHC3HCH2CH9CHCHC6H3C3H2C5H2CH3SPS2H3SCFeHSFeSHCSCS2C2HFeH2CFeSFeS2HCHFeSFeCSCSC6H4CH3SC3SCH3C7H4C6H4CHSH2C6H4CH2CSHCH2FeC7PC2SCHCHC3PC7H5C2H3C3H8CHCHCHCHC2HC4HPH3C3HCHC4H2C7SH2C6HFeCHCH4C3H2C2FeC2H2CHCH2FeCHC2SPH4C2HFeHCH2C2HC2HC5H2C7SHCH3CH2SC3SCH2C2H2C2H4C2H3CSH2CHC5HC4HCHC2H2CHCHPH2C2H2C3PC2SC5H2CHFeHCH2C2H2CHC2HSHCSC2H2CHC2H2CHC2HCSHSCHC2SC4H2CHCHCFeH2SCH2C2HCFeH3SH2C3HCH3SHCFeS2FeSCFeCFeS3C2H2CH3PCSC2HC3FeS2FeS2FeSFeS3C6H4C6H3C6H4C6H4CHCHC2H4CH7C6H4CHC2HC4PC14H2CFeH8C8PC18H20SC2H2CFeC3H2C2H2CHC2HCH3C5HC4H3CHCH4SH3C2H3C6PC15H10CH7CH2SHCH2C4H3C2HCHCSC2H2CHCH4C3SC3HFePCHCHSC9SHC2SHCHC2SCHCH5CSC2HFeHC8PC2H2C10H5CH3CHSHCSC3H2C2HCHCH4CHCHC4HC2HC3HCHC2FeCHC2H2CH2CHCFeS2FeS4FeS2FeS2FeSFeS4FeS2HSFeSCSFeS2FeSHSFeS3HFeS2C7H6C3HC7H4C6H4C6H2C6H4C6HCH2C6H2C3HC6PC4HC11H16CHC2PC2H2C2HCHC7HC2H2C2HCH4C4HC5H2CH3C7PC18H27CH2CH2PH2C5HC3FeH6CHCHC2H2CHC7PC18H20CHC2H2C5FeC3HCH5C2HC3FeHCHC2H3CH2CHCHCHC2PCHCH3FeCH4CH3C2H2CH2C2S2HSH4CHC3HPHC2SC3HC2HC2H2C4HCH2C2H2CH2SH4CH2C2HC3HC2H2CHC3FeC2H2CH3PHCHC2H6FeC2H2C3HC2H2CSCSHFeS2H2FeSCSCFeS2FeS2FeSFeS3FeS2C3H2FeSPSH2SHSFeSCFeSC7H2C3HC2HSH3C7H3C6H4C6H4C6H4C6H2CHC6H5C6PC12H15CH2C2HC10HC2H11C2HC6H2C2SH9CHCHC8H7C2HC3HCHC2H2CH2C4HCH3CFeSHCFeSC2SCFeH2CHC2H2CHC4H2PC2SH4CSPCHFeC3HSPC2FeHC3HC6H2CHPC5HCHCH4C3H3CH3C2H2C2HCH2C2HC4H2C5H4C4H2CHPCHFeCH2CPC2HCHC2H2CHCHC3HSH3CSCHC5HCHCHC8HC3H6PH3C3HCHC2HC2H2CFeS2CFeSHS2FeS2FeS2FeSFeS3FeS2FeSCS2C2FeS2CPFeSCHCS2H3C3H2C2H2C2FeC7H5CHC6H4C6H4C4HC6H4C6H4FeC6H4CH2C8PC9HC8H11CH7CH3C5HPC10PH8C2SHC4H3CSH2CSHPH5C2H3SC2H4FeHFeC5HC3H2CPCHC2H3CPC8H3C2H7CFeH5C6PC9H3C7H3CH5CHC2HCHCH3C2PC13H9C2H4C7H3CHC2HCH2SC2H2SH3C2HCHC3HC3H2CHC4FeHC3H2CH3C2HCH2C2H2CHC3HC4H2C3H2CH2C2FeC7HC2H2CS2H2CHC3H2CH4C2HC2HC3H3SHCH3CH2SFeHCHSH2C2HC2HCSC4H3C2FeHSCHFeHCSFeS2HCHC2FeSHSFeS2FeS2FeSFeS3HSC3FeS2C6H4CHCSC6H4C2H2C6H3C6H4CSH3C7H3C6H2FeHC6HCHCH2C3HC3H2CH2C2HCHSH2SC2SCH3SH2CH2CH2C4HCHC6PC18H18CH2CSC3HSH6CHCHPC6PC17H22PC2H2CHPCHC3FeC3HCHC3HC2HCHCHCHCHC2HC3HC8HCHC2H4C2HPHCHSHPH2C4SC3HCHCHC5S2C2H3C2HC2H2CFeHCHC3H5CH2CH2CHC2HFeC2H3C2H2C2HC2FeSH4C2HC2H2SH3C2FeS2H2SHSC2FeS2FeSHSCSCHCFeS2FeSH2SCFeS2FeS2HFeS2FeS2FeSFeS3CH3C7H4C6H5PH2CSC6H4C6H4C7H4C6H5C3H2C2H2CH3CH3C2HC2SHC3H2CHC2HC4HC7PC18H22CHC2SCHCSCHCHC5FeHPCHC3H2CHPC2SCHC3H3FeC7H2C3H2C2HC2H5CH3C2HC2HC6PCH2C2HCH2C3H8FeH2CFeH3C6PC19H7CH8CH2C6PC18H21CHC2HC4HCHC6H2C2H2CSHSC2HCH2CHCH3C3H2CHC2HCH2PC3SHC2FeC4H2C3HCH3FeC2HCHC2HCHCSCHFe2C2HC3HCHFe3SHCFeSPSHCHCSHSHS3H2SHSC2HFeS2FeSC2SHFeS2FeS2FeSFeS3HC2SHC6H4C6H4C6H4C6H4C6H4C6H3C6H4CH4CHCHC11SCH3C2SH3CH4C2SCH4C6PC18H20C6PC4HC12H6CH11CHS3C2H2CSC2HFeHCHC3HFeHC3PC18HC2H5SH11SC2HC5H3FeCH2C3HC2H3CHCHC5HC6H2C4SC2HC3H7CSHSH3CFeHCH5CHC3H2CHCHPCHC4FeCFeCH2C2H3CHCPHSC2H2C2H3CHFeCH2C2HCHFeC3HC2FeHC2HCH2CHCHPFeS2CSC2HSHSHCSCFeS3FeS2FeS2FeSFeS3CHC5SH2C4H3C6H4C6H4CHC6SH2CHC6H4C6H3C6HCH3C3H2C3HC2HPC8H2C8H5C3HC2HC4H6CHCHCH2C3H5C3PC18H7C2H12C6PC3HC2HC3HC3SH2CH5C2HC2HFeHCH2S2H3C6PCH3C4PC18H19C4H2C4H2SC3H2C3HCHC2H2CH2CHC3H5CHC3H2CHCHC2H2C3PC5FeCHCHC3H7C3H2C2HC2H4FeHC2H4C2HCHC4SH2C2FeH2CH2C3H4C3FeCH3CHCHC2H3C2FeH2CFeHCPHCH3C2HSC2HPCHCHCHCH2SC3H2CH3CPCHC4H2SCHPHCFe2SCFeS2FeSFeCS2HSCHS2FeSFeSHCFeS2CFeSHSCFeSH2SCFeSFeSHCSH3FeCSHCHSC2SC2SFeSH2SC4H2C2H2C3H3CHCHC6H3C6H5FeCH3C6H4CSC2HCH2C6HCH2CHC7H4CH4C6H4CHCH3CHPSC5H2CH7CHCHC3PC7H3C10H4CH3C2HPH3CH2C2HPC2HC2HC2H2CHC2H2CFeCHC6H6CH2C4H2C4SCFeC2HC6HCHPH6C2H2CH2CHC11PC9HCHC3H15CHCHFeCHC2HC3H3SHSCH3C3HC3H5C3PC3HCPC2FeCH4C2HC4HCHC2HC5HC3HC2HCH3CHC3HC3H2C3SCHCSCHCFeHCPCHCSCHC2HC2HC3SH6C3H2SHCHC3PHC2HCH2FeH3SCHCSH5CHC3H4CHCSFeS2FeHFeSCS3FeSCHFeS3CFeSFeS2CSC4HC4H5C10H4C6HCH2C2H2C6H4C7H3PC2H4C2H2CH2CFeCHCPC2HCFeHC9HC2HCHCH2FeH3CHC3PC19HCH8CH8C3SC3HC2HC7PC12HPCH2CH8CH7CH3C3HCHCHC3HPCH2CFeHC2H3C3HCH2C4HC4HC2HC4PC9H9CHC2HCH2CH2CHC2HCHSH3C4H3C5HC2HC2S2CSH3SH2CHCH3CHCH2C4H2C2SH2C3H3CH2PH2CH3CHC4H3CHCH2SHC2HCHCH2CHCH2CHC2HCH2FeC4HSCH2C3H2SHC3H4SC2H2C3H3CHCH2CHCH3C2HC2HCHC
_chemical_formula_sum              "H2304 C2880 S384 Fe192 P96"
_cell_length_a       64.5045
_cell_length_b       65.5092
_cell_length_c       64.528
_cell_angle_alpha    80.3371
_cell_angle_beta     80.4595
_cell_angle_gamma    80.3232

_space_group_name_H-M_alt    "P 1"
_space_group_IT_number       1

loop_
  _space_group_symop_operation_xyz
  'x, y, z'

loop_
  _atom_site_type_symbol
  _atom_site_label
  _atom_site_symmetry_multiplicity
  _atom_site_fract_x
  _atom_site_fract_y
  _atom_site_fract_z
  _atom_site_occupancy
  H   H1        1.0  0.00495  0.43584  0.47426  1.0000
  H   H2        1.0  0.99139  0.37170  0.39958  1.0000
  C   C1        1.0  0.99215  0.42645  0.47818  1.0000
  C   C2        1.0  0.24020  0.99315  0.64735  1.0000
  S   S1        1.0  0.30693  0.40094  0.71963  1.0000
  H   H3        1.0  0.14793  0.35605  0.66205  1.0000
  C   C3        1.0  0.45178  0.11274  0.59564  1.0000
  S   S2        1.0  0.26954  0.37621  0.70968  1.0000
  C   C4        1.0  0.37188  0.00992  0.71118  1.0000
  Fe  Fe1       1.0  0.30153  0.36751  0.72104  1.0000
  S   S3        1.0  0.32624  0.34283  0.70662  1.0000
  Fe  Fe2       1.0  0.27346  0.40923  0.71177  1.0000
  S   S4        1.0  0.26237  0.43964  0.69166  1.0000
  C   C5        1.0  0.46230  0.20745  0.66266  1.0000
  H   H4        1.0  0.41627  0.06137  0.62671  1.0000
  Fe  Fe3       1.0  0.26219  0.13943  0.70110  1.0000
  H   H5        1.0  0.02546  0.30170  0.72911  1.0000
  S   S5        1.0  0.25102  0.16324  0.67420  1.0000
  Fe  Fe4       1.0  0.29541  0.10162  0.71114  1.0000
  C   C6        1.0  0.00614  0.24311  0.68816  1.0000
  S   S6        1.0  0.32534  0.08052  0.70038  1.0000
  H   H6        1.0  0.23924  0.34713  0.71772  1.0000
  H   H7        1.0  0.00221  0.30266  0.65930  1.0000
  S   S7        1.0  0.19676  0.44374  0.62763  1.0000
  C   C7        1.0  0.25238  0.20939  0.71248  1.0000
  S   S8        1.0  0.29589  0.13630  0.70735  1.0000
  Fe  Fe5       1.0  0.36577  0.99850  0.62489  1.0000
  S   S9        1.0  0.39308  0.99828  0.64247  1.0000
  S   S10       1.0  0.33445  0.02007  0.63088  1.0000
  C   C8        1.0  0.17490  0.45955  0.71664  1.0000
  C   C9        1.0  0.28351  0.46493  0.72905  1.0000
  S   S11       1.0  0.38603  0.99884  0.59275  1.0000
  C   C10       1.0  0.00746  0.30213  0.67451  1.0000
  H   H8        1.0  0.13321  0.39931  0.63821  1.0000
  S   S12       1.0  0.45940  0.14987  0.64844  1.0000
  Fe  Fe6       1.0  0.11853  0.46207  0.63841  1.0000
  C   C11       1.0  0.44255  0.99564  0.52244  1.0000
  H   H9        1.0  0.38970  0.98811  0.69086  1.0000
  Fe  Fe7       1.0  0.42077  0.22772  0.72327  1.0000
  C   C12       1.0  0.28607  0.21445  0.65422  1.0000
  S   S13       1.0  0.43875  0.23326  0.69026  1.0000
  C   C13       1.0  0.03132  0.27763  0.63026  1.0000
  S   S14       1.0  0.09746  0.43640  0.64195  1.0000
  C   C14       1.0  0.22958  0.42466  0.64928  1.0000
  H   H10       1.0  0.03421  0.41186  0.67688  1.0000
  H   H11       1.0  0.48939  0.37461  0.71608  1.0000
  H   H12       1.0  0.42368  0.03571  0.69430  1.0000
  Fe  Fe8       1.0  0.02669  0.34329  0.60756  1.0000
  S   S15       1.0  0.05813  0.32203  0.61056  1.0000
  Fe  Fe9       1.0  0.15107  0.24365  0.70436  1.0000
  C   C15       1.0  0.21425  0.44240  0.64623  1.0000
  S   S16       1.0  0.16053  0.21886  0.68296  1.0000
  Fe  Fe10      1.0  0.11876  0.28296  0.70935  1.0000
  C   C16       1.0  0.04845  0.44400  0.60679  1.0000
  S   S17       1.0  0.08873  0.30380  0.70137  1.0000
  C   C17       1.0  0.22846  0.45807  0.67134  1.0000
  C   C18       1.0  0.44796  0.05567  0.68873  1.0000
  H   H13       1.0  0.25551  0.40950  0.66627  1.0000
  S   S18       1.0  0.15096  0.27740  0.69036  1.0000
  S   S19       1.0  0.11752  0.24894  0.72061  1.0000
  C   C19       1.0  0.06709  0.31714  0.63564  1.0000
  C   C20       1.0  0.08729  0.30580  0.63807  1.0000
  C   C21       1.0  0.09441  0.30169  0.65809  1.0000
  C   C22       1.0  0.08132  0.30894  0.67570  1.0000
  C   C23       1.0  0.06127  0.32026  0.67317  1.0000
  C   C24       1.0  0.05415  0.32420  0.65333  1.0000
  H   H14       1.0  0.09743  0.30019  0.62448  1.0000
  H   H15       1.0  0.10988  0.29284  0.65993  1.0000
  H   H16       1.0  0.05113  0.32594  0.68669  1.0000
  H   H17       1.0  0.03847  0.33244  0.65188  1.0000
  C   C25       1.0  0.45484  0.17274  0.66053  1.0000
  C   C26       1.0  0.43718  0.17566  0.67618  1.0000
  C   C27       1.0  0.43265  0.19388  0.68575  1.0000
  C   C28       1.0  0.44498  0.20998  0.67881  1.0000
  H   H18       1.0  0.31566  0.98462  0.65101  1.0000
  H   H19       1.0  0.04716  0.22246  0.65616  1.0000
  H   H20       1.0  0.42695  0.16378  0.68106  1.0000
  H   H21       1.0  0.41930  0.19560  0.69822  1.0000
  C   C29       1.0  0.45365  0.02974  0.61163  1.0000
  C   C30       1.0  0.36446  0.14512  0.68905  1.0000
  C   C31       1.0  0.06610  0.44779  0.61525  1.0000
  C   C32       1.0  0.18336  0.38355  0.59869  1.0000
  C   C33       1.0  0.46987  0.02999  0.64309  1.0000
  C   C34       1.0  0.45624  0.02172  0.63269  1.0000
  C   C35       1.0  0.18098  0.40212  0.60733  1.0000
  C   C36       1.0  0.14620  0.31030  0.59188  1.0000
  C   C37       1.0  0.09803  0.42412  0.72329  1.0000
  H   H22       1.0  0.44825  0.00874  0.64078  1.0000
  H   H23       1.0  0.23062  0.41199  0.64022  1.0000
  H   H24       1.0  0.43977  0.01166  0.54969  1.0000
  C   C38       1.0  0.22662  0.17996  0.67766  1.0000
  C   C39       1.0  0.21589  0.18366  0.69773  1.0000
  C   C40       1.0  0.19615  0.19685  0.69955  1.0000
  C   C41       1.0  0.18677  0.20557  0.68135  1.0000
  C   C42       1.0  0.19763  0.20193  0.66138  1.0000
  C   C43       1.0  0.21766  0.18964  0.65952  1.0000
  H   H25       1.0  0.22287  0.17648  0.71175  1.0000
  H   H26       1.0  0.18777  0.19963  0.71499  1.0000
  H   H27       1.0  0.19044  0.20851  0.64727  1.0000
  H   H28       1.0  0.22585  0.18694  0.64396  1.0000
  H   H29       1.0  0.18267  0.41422  0.67401  1.0000
  C   C44       1.0  0.09906  0.15975  0.71470  1.0000
  H   H30       1.0  0.07220  0.46251  0.61053  1.0000
  H   H31       1.0  0.47290  0.08535  0.72728  1.0000
  S   S20       1.0  0.14207  0.46925  0.60941  1.0000
  H   H32       1.0  0.01007  0.27542  0.58603  1.0000
  P   P1        1.0  0.48009  0.12725  0.73340  1.0000
  H   H33       1.0  0.23836  0.99605  0.63067  1.0000
  C   C45       1.0  0.38273  0.15100  0.67612  1.0000
  H   H34       1.0  0.46944  0.07851  0.67995  1.0000
  C   C46       1.0  0.32711  0.06437  0.68070  1.0000
  C   C47       1.0  0.34587  0.05050  0.67694  1.0000
  C   C48       1.0  0.34802  0.03675  0.66203  1.0000
  C   C49       1.0  0.33163  0.03696  0.65027  1.0000
  C   C50       1.0  0.31281  0.05102  0.65385  1.0000
  C   C51       1.0  0.31051  0.06470  0.66908  1.0000
  H   H35       1.0  0.35883  0.05035  0.68567  1.0000
  H   H36       1.0  0.36251  0.02619  0.65956  1.0000
  H   H37       1.0  0.30001  0.05133  0.64485  1.0000
  H   H38       1.0  0.29596  0.07538  0.67189  1.0000
  H   H39       1.0  0.28664  0.24592  0.65903  1.0000
  C   C52       1.0  0.38820  0.05572  0.61619  1.0000
  H   H40       1.0  0.04092  0.45601  0.59566  1.0000
  C   C53       1.0  0.43753  0.36721  0.72306  1.0000
  C   C54       1.0  0.27335  0.30597  0.69155  1.0000
  H   H41       1.0  0.09990  0.25718  0.67989  1.0000
  H   H42       1.0  0.29634  0.21072  0.71912  1.0000
  H   H43       1.0  0.40077  0.11649  0.71207  1.0000
  H   H44       1.0  0.20481  0.46857  0.71950  1.0000
  C   C55       1.0  0.18405  0.39728  0.67626  1.0000
  C   C56       1.0  0.33513  0.32026  0.72377  1.0000
  C   C57       1.0  0.36814  0.09245  0.63189  1.0000
  H   H45       1.0  0.35036  0.02889  0.73197  1.0000
  H   H46       1.0  0.35791  0.05382  0.60737  1.0000
  H   H47       1.0  0.10072  0.46568  0.68851  1.0000
  C   C58       1.0  0.35330  0.30668  0.71689  1.0000
  C   C59       1.0  0.42459  0.14308  0.59477  1.0000
  H   H48       1.0  0.22980  0.02508  0.65171  1.0000
  H   H49       1.0  0.20271  0.05704  0.72099  1.0000
  H   H50       1.0  0.36111  0.30955  0.70073  1.0000
  C   C60       1.0  0.06782  0.41330  0.63569  1.0000
  C   C61       1.0  0.05056  0.40929  0.62685  1.0000
  C   C62       1.0  0.04052  0.42475  0.61256  1.0000
  C   C63       1.0  0.45423  0.07456  0.67823  1.0000
  H   H51       1.0  0.07514  0.40139  0.64701  1.0000
  C   C64       1.0  0.24344  0.44008  0.67479  1.0000
  C   C65       1.0  0.24377  0.42325  0.66395  1.0000
  H   H52       1.0  0.15646  0.27816  0.60423  1.0000
  C   C66       1.0  0.13930  0.33059  0.59672  1.0000
  C   C67       1.0  0.19993  0.10857  0.70472  1.0000
  C   C68       1.0  0.18344  0.11434  0.72061  1.0000
  H   H53       1.0  0.06933  0.23951  0.72605  1.0000
  H   H54       1.0  0.07429  0.46912  0.66404  1.0000
  H   H55       1.0  0.46243  0.05291  0.58511  1.0000
  H   H56       1.0  0.37631  0.27993  0.72595  1.0000
  H   H57       1.0  0.00455  0.19290  0.71231  1.0000
  C   C69       1.0  0.20146  0.31471  0.72594  1.0000
  C   C70       1.0  0.22558  0.05150  0.67957  1.0000
  C   C71       1.0  0.20490  0.05740  0.67436  1.0000
  C   C72       1.0  0.20005  0.07557  0.66018  1.0000
  C   C73       1.0  0.21585  0.08784  0.65091  1.0000
  C   C74       1.0  0.23646  0.08208  0.65602  1.0000
  C   C75       1.0  0.24135  0.06400  0.67028  1.0000
  C   C76       1.0  0.48073  0.04664  0.63279  1.0000
  H   H58       1.0  0.07483  0.42325  0.70302  1.0000
  H   H59       1.0  0.09501  0.35342  0.71187  1.0000
  C   C77       1.0  0.08464  0.47323  0.69281  1.0000
  C   C78       1.0  0.00271  0.32012  0.68442  1.0000
  C   C79       1.0  0.46753  0.18864  0.65387  1.0000
  H   H60       1.0  0.37125  0.27224  0.63370  1.0000
  C   C80       1.0  0.38213  0.23482  0.67532  1.0000
  C   C81       1.0  0.30858  0.22382  0.67679  1.0000
  C   C82       1.0  0.48755  0.18652  0.70390  1.0000
  H   H61       1.0  0.22487  0.32339  0.69949  1.0000
  C   C83       1.0  0.42961  0.28729  0.70605  1.0000
  H   H62       1.0  0.41833  0.28567  0.67692  1.0000
  C   C84       1.0  0.00336  0.25586  0.63869  1.0000
  H   H63       1.0  0.30960  0.02173  0.69587  1.0000
  C   C85       1.0  0.44128  0.08805  0.66490  1.0000
  H   H64       1.0  0.19257  0.04785  0.68110  1.0000
  H   H65       1.0  0.18404  0.08012  0.65631  1.0000
  H   H66       1.0  0.21209  0.10193  0.63992  1.0000
  H   H67       1.0  0.24870  0.09168  0.64899  1.0000
  H   H68       1.0  0.41871  0.15868  0.58758  1.0000
  H   H69       1.0  0.26312  0.32076  0.69274  1.0000
  P   P2        1.0  0.23202  0.02728  0.69684  1.0000
  H   H70       1.0  0.13382  0.35190  0.70021  1.0000
  C   C86       1.0  0.45167  0.12659  0.70568  1.0000
  C   C87       1.0  0.47774  0.05500  0.61189  1.0000
  S   S21       1.0  0.19244  0.29765  0.71198  1.0000
  C   C88       1.0  0.36848  0.26133  0.64812  1.0000
  C   C89       1.0  0.23532  0.00962  0.65944  1.0000
  C   C90       1.0  0.40576  0.31491  0.68873  1.0000
  P   P3        1.0  0.16124  0.40050  0.71632  1.0000
  H   H71       1.0  0.38759  0.16592  0.67675  1.0000
  C   C91       1.0  0.46431  0.04656  0.60139  1.0000
  C   C92       1.0  0.02219  0.46464  0.66299  1.0000
  C   C93       1.0  0.31046  0.18754  0.67178  1.0000
  C   C94       1.0  0.29458  0.19339  0.65874  1.0000
  C   C95       1.0  0.03268  0.44542  0.67192  1.0000
  H   H72       1.0  0.04636  0.44467  0.67980  1.0000
  H   H73       1.0  0.17170  0.35530  0.71260  1.0000
  C   C96       1.0  0.35674  0.08103  0.62247  1.0000
  H   H74       1.0  0.43039  0.12540  0.68385  1.0000
  H   H75       1.0  0.35500  0.15559  0.69949  1.0000
  C   C97       1.0  0.13075  0.18081  0.72219  1.0000
  C   C98       1.0  0.29211  0.03732  0.72147  1.0000
  H   H76       1.0  0.35899  0.22144  0.69920  1.0000
  C   C99       1.0  0.34235  0.98151  0.72182  1.0000
  C   C100      1.0  0.42185  0.08273  0.66208  1.0000
  H   H77       1.0  0.33449  0.26879  0.65076  1.0000
  H   H78       1.0  0.40186  0.25059  0.64954  1.0000
  H   H79       1.0  0.45423  0.39262  0.70721  1.0000
  C   C101      1.0  0.27582  0.02260  0.69726  1.0000
  C   C102      1.0  0.47539  0.36696  0.72133  1.0000
  H   H80       1.0  0.28885  0.18157  0.65213  1.0000
  C   C103      1.0  0.31701  0.23407  0.71734  1.0000
  H   H81       1.0  0.08681  0.15157  0.71178  1.0000
  C   C104      1.0  0.41534  0.06398  0.67315  1.0000
  C   C105      1.0  0.20725  0.43531  0.71999  1.0000
  H   H82       1.0  0.46692  0.10471  0.58913  1.0000
  H   H83       1.0  0.45376  0.14072  0.57293  1.0000
  H   H84       1.0  0.11145  0.22390  0.66513  1.0000
  H   H85       1.0  0.13844  0.39720  0.68107  1.0000
  H   H86       1.0  0.43928  0.27204  0.70630  1.0000
  H   H87       1.0  0.00553  0.33403  0.71156  1.0000
  Fe  Fe11      1.0  0.41356  0.99680  0.61098  1.0000
  C   C106      1.0  0.01339  0.22235  0.69624  1.0000
  C   C107      1.0  0.44402  0.99682  0.54357  1.0000
  C   C108      1.0  0.41253  0.13316  0.61247  1.0000
  C   C109      1.0  0.41788  0.29507  0.68936  1.0000
  C   C110      1.0  0.17481  0.42234  0.71711  1.0000
  C   C111      1.0  0.30499  0.21841  0.72775  1.0000
  C   C112      1.0  0.44429  0.13293  0.58645  1.0000
  C   C113      1.0  0.09057  0.40386  0.58643  1.0000
  C   C114      1.0  0.07648  0.39185  0.58170  1.0000
  C   C115      1.0  0.07801  0.37059  0.58971  1.0000
  C   C116      1.0  0.09343  0.36132  0.60260  1.0000
  C   C117      1.0  0.10776  0.37318  0.60733  1.0000
  C   C118      1.0  0.10607  0.39464  0.59929  1.0000
  P   P4        1.0  0.12773  0.36083  0.62390  1.0000
  C   C119      1.0  0.11709  0.35968  0.65167  1.0000
  C   C120      1.0  0.13726  0.33463  0.61773  1.0000
  C   C121      1.0  0.14250  0.31807  0.63375  1.0000
  C   C122      1.0  0.14950  0.29782  0.62882  1.0000
  C   C123      1.0  0.13094  0.35699  0.66690  1.0000
  C   C124      1.0  0.12301  0.35472  0.68854  1.0000
  C   C125      1.0  0.10116  0.35566  0.69511  1.0000
  C   C126      1.0  0.08726  0.35877  0.68004  1.0000
  C   C127      1.0  0.09519  0.36044  0.65839  1.0000
  H   H88       1.0  0.08901  0.42048  0.58073  1.0000
  C   C128      1.0  0.19821  0.04164  0.72642  1.0000
  H   H89       1.0  0.06709  0.36124  0.58616  1.0000
  H   H90       1.0  0.09414  0.34487  0.60887  1.0000
  H   H91       1.0  0.11631  0.40449  0.60314  1.0000
  H   H92       1.0  0.14092  0.32053  0.65013  1.0000
  H   H93       1.0  0.15330  0.28507  0.64129  1.0000
  C   C129      1.0  0.24541  0.98574  0.69021  1.0000
  C   C130      1.0  0.29400  0.02639  0.70430  1.0000
  H   H94       1.0  0.07038  0.35899  0.68515  1.0000
  H   H95       1.0  0.08421  0.36192  0.64704  1.0000
  H   H96       1.0  0.43715  0.00967  0.51211  1.0000
  C   C131      1.0  0.02482  0.28374  0.70421  1.0000
  C   C132      1.0  0.07573  0.43251  0.62996  1.0000
  H   H97       1.0  0.38317  0.02097  0.70687  1.0000
  H   H98       1.0  0.04483  0.39436  0.63139  1.0000
  S   S22       1.0  0.02265  0.36851  0.57959  1.0000
  H   H99       1.0  0.42244  0.37507  0.71854  1.0000
  H   H100      1.0  0.31712  0.17120  0.67515  1.0000
  C   C133      1.0  0.15127  0.29392  0.60793  1.0000
  C   C134      1.0  0.36140  0.23287  0.68513  1.0000
  C   C135      1.0  0.01880  0.28384  0.68428  1.0000
  H   H101      1.0  0.27106  0.25408  0.69508  1.0000
  C   C136      1.0  0.29536  0.30542  0.68842  1.0000
  H   H102      1.0  0.21848  0.26091  0.72685  1.0000
  H   H103      1.0  0.34488  0.12064  0.69938  1.0000
  C   C137      1.0  0.19663  0.41874  0.71870  1.0000
  C   C138      1.0  0.34406  0.24563  0.67685  1.0000
  H   H104      1.0  0.13538  0.34309  0.58410  1.0000
  C   C139      1.0  0.42848  0.05041  0.68626  1.0000
  C   C140      1.0  0.45558  0.37713  0.71641  1.0000
  S   S23       1.0  0.38597  0.22534  0.73149  1.0000
  H   H105      1.0  0.14743  0.30725  0.57570  1.0000
  S   S24       1.0  0.01764  0.42095  0.60222  1.0000
  H   H106      1.0  0.99430  0.33430  0.67666  1.0000
  C   C141      1.0  0.48977  0.14896  0.71525  1.0000
  C   C142      1.0  0.39502  0.13746  0.66271  1.0000
  C   C143      1.0  0.14929  0.37614  0.61835  1.0000
  C   C144      1.0  0.14728  0.39456  0.62738  1.0000
  S   S25       1.0  0.01210  0.36394  0.63210  1.0000
  H   H107      1.0  0.39712  0.14106  0.61845  1.0000
  C   C145      1.0  0.43992  0.10295  0.61352  1.0000
  C   C146      1.0  0.09767  0.18142  0.70884  1.0000
  H   H108      1.0  0.44657  0.10253  0.65671  1.0000
  C   C147      1.0  0.29820  0.47806  0.72994  1.0000
  H   H109      1.0  0.08435  0.19009  0.70141  1.0000
  H   H110      1.0  0.45838  0.04501  0.69850  1.0000
  C   C148      1.0  0.13427  0.40923  0.71110  1.0000
  C   C149      1.0  0.35873  0.12549  0.68895  1.0000
  C   C150      1.0  0.32750  0.24409  0.72924  1.0000
  C   C151      1.0  0.16298  0.40756  0.62174  1.0000
  C   C152      1.0  0.16754  0.37060  0.60409  1.0000
  H   H111      1.0  0.16114  0.42194  0.62849  1.0000
  H   H112      1.0  0.16951  0.35652  0.59689  1.0000
  C   C153      1.0  0.07986  0.22091  0.66009  1.0000
  H   H113      1.0  0.39600  0.04157  0.61000  1.0000
  H   H114      1.0  0.40022  0.05974  0.67153  1.0000
  S   S26       1.0  0.26288  0.10484  0.70179  1.0000
  C   C154      1.0  0.11632  0.14858  0.72427  1.0000
  H   H115      1.0  0.24190  0.21861  0.68184  1.0000
  H   H116      1.0  0.30617  0.04115  0.72624  1.0000
  C   C155      1.0  0.40511  0.32685  0.70496  1.0000
  H   H117      1.0  0.06402  0.39912  0.57231  1.0000
  H   H118      1.0  0.27772  0.01497  0.68328  1.0000
  C   C156      1.0  0.38955  0.08522  0.63407  1.0000
  H   H119      1.0  0.04354  0.28459  0.63502  1.0000
  C   C157      1.0  0.21830  0.32536  0.71568  1.0000
  H   H120      1.0  0.20032  0.39524  0.64466  1.0000
  H   H121      1.0  0.00072  0.41280  0.50899  1.0000
  C   C158      1.0  0.22641  0.33893  0.72595  1.0000
  H   H122      1.0  0.19738  0.37934  0.58760  1.0000
  H   H123      1.0  0.19311  0.41230  0.60294  1.0000
  C   C159      1.0  0.39959  0.06695  0.62581  1.0000
  H   H124      1.0  0.36018  0.10684  0.63744  1.0000
  C   C160      1.0  0.36678  0.06272  0.61457  1.0000
  C   C161      1.0  0.21352  0.45901  0.65752  1.0000
  S   S27       1.0  0.43858  0.01835  0.59701  1.0000
  Fe  Fe12      1.0  0.00709  0.38882  0.60433  1.0000
  H   H125      1.0  0.22826  0.47119  0.67959  1.0000
  H   H126      1.0  0.11300  0.20855  0.70726  1.0000
  C   C162      1.0  0.19398  0.38657  0.65947  1.0000
  P   P5        1.0  0.40500  0.10019  0.64507  1.0000
  C   C163      1.0  0.19384  0.14312  0.68477  1.0000
  H   H127      1.0  0.16989  0.16517  0.69922  1.0000
  H   H128      1.0  0.20181  0.47278  0.65523  1.0000
  H   H129      1.0  0.46423  0.13078  0.69307  1.0000
  H   H130      1.0  0.21191  0.99030  0.71965  1.0000
  C   C164      1.0  0.37552  0.99152  0.70209  1.0000
  H   H131      1.0  0.45139  0.97972  0.57354  1.0000
  H   H132      1.0  0.20321  0.35658  0.64862  1.0000
  Fe  Fe13      1.0  0.16591  0.46563  0.63215  1.0000
  C   C165      1.0  0.20538  0.12309  0.68702  1.0000
  H   H133      1.0  0.19780  0.15425  0.67085  1.0000
  C   C166      1.0  0.47721  0.34673  0.73262  1.0000
  C   C167      1.0  0.19557  0.36482  0.66171  1.0000
  H   H134      1.0  0.03010  0.21623  0.69446  1.0000
  C   C168      1.0  0.30018  0.26776  0.68875  1.0000
  S   S28       1.0  0.14302  0.45620  0.66077  1.0000
  C   C169      1.0  0.26465  0.28744  0.69372  1.0000
  H   H135      1.0  0.30206  0.31976  0.68731  1.0000
  C   C170      1.0  0.42882  0.29905  0.72242  1.0000
  H   H136      1.0  0.21874  0.11902  0.67519  1.0000
  C   C171      1.0  0.02811  0.28132  0.60898  1.0000
  H   H137      1.0  0.48614  0.06765  0.60366  1.0000
  C   C172      1.0  0.23778  0.00603  0.68108  1.0000
  C   C173      1.0  0.37100  0.11190  0.67560  1.0000
  H   H138      1.0  0.03767  0.29128  0.59750  1.0000
  C   C174      1.0  0.09134  0.41928  0.70540  1.0000
  C   C175      1.0  0.24114  0.22269  0.69757  1.0000
  C   C176      1.0  0.41623  0.31876  0.72222  1.0000
  C   C177      1.0  0.05844  0.22982  0.66201  1.0000
  S   S29       1.0  0.99629  0.33197  0.60538  1.0000
  H   H139      1.0  0.06260  0.27299  0.68320  1.0000
  C   C178      1.0  0.18738  0.35371  0.68088  1.0000
  H   H140      1.0  0.18869  0.33681  0.68266  1.0000
  C   C179      1.0  0.08827  0.24925  0.67533  1.0000
  C   C180      1.0  0.17786  0.14917  0.70089  1.0000
  H   H141      1.0  0.34004  0.08625  0.62143  1.0000
  C   C181      1.0  0.17576  0.38623  0.69558  1.0000
  C   C182      1.0  0.17766  0.36432  0.69785  1.0000
  H   H142      1.0  0.44596  0.08733  0.62048  1.0000
  C   C183      1.0  0.06688  0.25815  0.67735  1.0000
  C   C184      1.0  0.09477  0.23059  0.66683  1.0000
  H   H143      1.0  0.28496  0.45702  0.71535  1.0000
  C   C185      1.0  0.02018  0.30178  0.71400  1.0000
  H   H144      1.0  0.14314  0.18927  0.72432  1.0000
  H   H145      1.0  0.24754  0.28781  0.69679  1.0000
  C   C186      1.0  0.27802  0.26837  0.69252  1.0000
  H   H146      1.0  0.39552  0.22526  0.68199  1.0000
  H   H147      1.0  0.21989  0.25145  0.69154  1.0000
  C   C187      1.0  0.30876  0.28639  0.68728  1.0000
  C   C188      1.0  0.31757  0.20270  0.68065  1.0000
  C   C189      1.0  0.01887  0.26505  0.64530  1.0000
  C   C190      1.0  0.45459  0.12443  0.72702  1.0000
  C   C191      1.0  0.38570  0.24913  0.65694  1.0000
  H   H148      1.0  0.08499  0.20669  0.65302  1.0000
  C   C192      1.0  0.20367  0.00425  0.72576  1.0000
  C   C193      1.0  0.99813  0.44591  0.65069  1.0000
  H   H149      1.0  0.32574  0.28632  0.68583  1.0000
  C   C194      1.0  0.22872  0.24110  0.70304  1.0000
  H   H150      1.0  0.36648  0.09659  0.67606  1.0000
  C   C195      1.0  0.00903  0.31996  0.70413  1.0000
  H   H151      1.0  0.33654  0.25654  0.72164  1.0000
  H   H152      1.0  0.40951  0.14206  0.65335  1.0000
  P   P6        1.0  0.31730  0.24290  0.68934  1.0000
  Fe  Fe14      1.0  0.16386  0.28017  0.72000  1.0000
  H   H153      1.0  0.25749  0.05984  0.67381  1.0000
  H   H154      1.0  0.20897  0.09303  0.70646  1.0000
  C   C196      1.0  0.05166  0.24829  0.67113  1.0000
  C   C197      1.0  0.42045  0.11328  0.62238  1.0000
  C   C198      1.0  0.43246  0.12341  0.70037  1.0000
  C   C199      1.0  0.34769  0.25942  0.65790  1.0000
  H   H155      1.0  0.20547  0.40308  0.71905  1.0000
  C   C200      1.0  0.11367  0.19187  0.71232  1.0000
  H   H156      1.0  0.39587  0.34230  0.70399  1.0000
  H   H157      1.0  0.27385  0.21889  0.64397  1.0000
  P   P7        1.0  0.02403  0.26006  0.67245  1.0000
  C   C201      1.0  0.29319  0.22969  0.66302  1.0000
  C   C202      1.0  0.38891  0.11802  0.66191  1.0000
  C   C203      1.0  0.20981  0.02404  0.71788  1.0000
  C   C204      1.0  0.02573  0.42667  0.67046  1.0000
  C   C205      1.0  0.10601  0.40937  0.69046  1.0000
  H   H158      1.0  0.32982  0.19788  0.69084  1.0000
  C   C206      1.0  0.12744  0.40467  0.69305  1.0000
  H   H159      1.0  0.10078  0.40530  0.67676  1.0000
  C   C207      1.0  0.99889  0.20905  0.70663  1.0000
  C   C208      1.0  0.17285  0.13502  0.71927  1.0000
  C   C209      1.0  0.25552  0.02948  0.70766  1.0000
  H   H160      1.0  0.14761  0.44658  0.71334  1.0000
  C   C210      1.0  0.25380  0.04013  0.72517  1.0000
  H   H161      1.0  0.08978  0.47455  0.55530  1.0000
  H   H162      1.0  0.03331  0.26974  0.71212  1.0000
  C   C211      1.0  0.01253  0.27236  0.60253  1.0000
  H   H163      1.0  0.48100  0.18665  0.64156  1.0000
  H   H164      1.0  0.48808  0.00407  0.58437  1.0000
  H   H165      1.0  0.47190  0.21987  0.65724  1.0000
  H   H166      1.0  0.39676  0.32103  0.67571  1.0000
  H   H167      1.0  0.32589  0.98923  0.68465  1.0000
  H   H168      1.0  0.47980  0.20229  0.70567  1.0000
  H   H169      1.0  0.47217  0.02328  0.65918  1.0000
  H   H170      1.0  0.11741  0.13174  0.72829  1.0000
  H   H171      1.0  0.22406  0.43241  0.72123  1.0000
  C   C212      1.0  0.19640  0.45570  0.71900  1.0000
  H   H172      1.0  0.26197  0.19504  0.70814  1.0000
  C   C213      1.0  0.00857  0.42690  0.65972  1.0000
  H   H173      1.0  0.30627  0.98201  0.56892  1.0000
  C   C214      1.0  0.13193  0.15912  0.72877  1.0000
  C   C215      1.0  0.25110  0.21442  0.73295  1.0000
  C   C216      1.0  0.48019  0.16948  0.71747  1.0000
  C   C217      1.0  0.00023  0.25953  0.61737  1.0000
  C   C218      1.0  0.22759  0.24625  0.72339  1.0000
  C   C219      1.0  0.41586  0.11835  0.71626  1.0000
  H   H174      1.0  0.99363  0.24584  0.64977  1.0000
  H   H175      1.0  0.24760  0.98251  0.70673  1.0000
  H   H176      1.0  0.16661  0.47544  0.71531  1.0000
  C   C220      1.0  0.35344  0.01430  0.72542  1.0000
  C   C221      1.0  0.00474  0.46472  0.65249  1.0000
  C   C222      1.0  0.33876  0.00011  0.73084  1.0000
  H   H177      1.0  0.00385  0.41231  0.65769  1.0000
  H   H178      1.0  0.99643  0.47930  0.64539  1.0000
  C   C223      1.0  0.16412  0.44299  0.71563  1.0000
  C   C224      1.0  0.27205  0.04402  0.73198  1.0000
  C   C225      1.0  0.36188  0.28990  0.73113  1.0000
  C   C226      1.0  0.11938  0.41888  0.72627  1.0000
  C   C227      1.0  0.06964  0.47520  0.67900  1.0000
  H   H179      1.0  0.46699  0.17238  0.72963  1.0000
  H   H180      1.0  0.48573  0.11732  0.54485  1.0000
  C   C228      1.0  0.48971  0.08515  0.72723  1.0000
  H   H181      1.0  0.48580  0.08555  0.52856  1.0000
  H   H182      1.0  0.23846  0.04603  0.73327  1.0000
  H   H183      1.0  0.17963  0.10266  0.73397  1.0000
  S   S30       1.0  0.16586  0.24572  0.73286  1.0000
  P   P8        1.0  0.41599  0.33405  0.74311  1.0000
  S   S31       1.0  0.24820  0.13948  0.73510  1.0000
  S   S32       1.0  0.39126  0.43758  0.88526  1.0000
  H   H184      1.0  0.13685  0.17492  0.76982  1.0000
  H   H185      1.0  0.33974  0.38178  0.81346  1.0000
  H   H186      1.0  0.13013  0.34620  0.76927  1.0000
  S   S33       1.0  0.47839  0.27795  0.87271  1.0000
  C   C229      1.0  0.34515  0.37132  0.85790  1.0000
  Fe  Fe15      1.0  0.19969  0.99155  0.82794  1.0000
  H   H187      1.0  0.18199  0.98682  0.74816  1.0000
  S   S34       1.0  0.22830  0.00862  0.82245  1.0000
  Fe  Fe16      1.0  0.15322  0.99707  0.82278  1.0000
  S   S35       1.0  0.12948  0.02271  0.80790  1.0000
  H   H188      1.0  0.44330  0.25921  0.77952  1.0000
  C   C230      1.0  0.46735  0.20271  0.82443  1.0000
  S   S36       1.0  0.16982  0.00129  0.84939  1.0000
  C   C231      1.0  0.39606  0.38297  0.80863  1.0000
  S   S37       1.0  0.22299  0.08846  0.75155  1.0000
  S   S38       1.0  0.30282  0.40875  0.78138  1.0000
  C   C232      1.0  0.19722  0.17755  0.75580  1.0000
  C   C233      1.0  0.12493  0.12479  0.77157  1.0000
  H   H189      1.0  0.42908  0.20386  0.83758  1.0000
  Fe  Fe17      1.0  0.37442  0.46585  0.86571  1.0000
  H   H190      1.0  0.39662  0.29677  0.76179  1.0000
  H   H191      1.0  0.34423  0.44234  0.81888  1.0000
  C   C234      1.0  0.44033  0.21211  0.82639  1.0000
  Fe  Fe18      1.0  0.39623  0.19619  0.75329  1.0000
  S   S39       1.0  0.45537  0.20821  0.78970  1.0000
  Fe  Fe19      1.0  0.03685  0.10805  0.84473  1.0000
  S   S40       1.0  0.04530  0.13771  0.85218  1.0000
  S   S41       1.0  0.05299  0.07671  0.85966  1.0000
  H   H192      1.0  0.16779  0.08216  0.79458  1.0000
  C   C235      1.0  0.40600  0.30005  0.77301  1.0000
  H   H193      1.0  0.20143  0.47023  0.80781  1.0000
  Fe  Fe20      1.0  0.04402  0.14980  0.81762  1.0000
  S   S42       1.0  0.07045  0.16230  0.79339  1.0000
  Fe  Fe21      1.0  0.00986  0.14840  0.85707  1.0000
  C   C236      1.0  0.24835  0.29887  0.76947  1.0000
  S   S43       1.0  0.03745  0.11941  0.80995  1.0000
  C   C237      1.0  0.37329  0.38563  0.75670  1.0000
  S   S44       1.0  0.11631  0.24248  0.78130  1.0000
  C   C238      1.0  0.08000  0.18657  0.78944  1.0000
  C   C239      1.0  0.07572  0.20006  0.80478  1.0000
  C   C240      1.0  0.08617  0.21784  0.80177  1.0000
  C   C241      1.0  0.10084  0.22215  0.78345  1.0000
  C   C242      1.0  0.10414  0.20924  0.76772  1.0000
  C   C243      1.0  0.09379  0.19154  0.77074  1.0000
  H   H194      1.0  0.06516  0.19631  0.81931  1.0000
  H   H195      1.0  0.08348  0.22782  0.81400  1.0000
  H   H196      1.0  0.11546  0.21228  0.75365  1.0000
  H   H197      1.0  0.09703  0.18120  0.75882  1.0000
  C   C244      1.0  0.15583  0.09396  0.78799  1.0000
  H   H198      1.0  0.28340  0.98346  0.79525  1.0000
  H   H199      1.0  0.31050  0.32588  0.74976  1.0000
  H   H200      1.0  0.26036  0.20392  0.74384  1.0000
  S   S45       1.0  0.46867  0.38068  0.83773  1.0000
  C   C245      1.0  0.46391  0.24567  0.86136  1.0000
  C   C246      1.0  0.45912  0.23360  0.84735  1.0000
  C   C247      1.0  0.46074  0.23917  0.82387  1.0000
  S   S46       1.0  0.28396  0.09856  0.74629  1.0000
  C   C248      1.0  0.19936  0.11777  0.82318  1.0000
  H   H201      1.0  0.46275  0.23970  0.87817  1.0000
  H   H202      1.0  0.45447  0.21912  0.85612  1.0000
  H   H203      1.0  0.07960  0.26191  0.74900  1.0000
  C   C249      1.0  0.40759  0.31065  0.86041  1.0000
  C   C250      1.0  0.10822  0.03739  0.82264  1.0000
  C   C251      1.0  0.10222  0.03158  0.84441  1.0000
  C   C252      1.0  0.08531  0.04379  0.85556  1.0000
  C   C253      1.0  0.07433  0.06195  0.84510  1.0000
  C   C254      1.0  0.08043  0.06780  0.82336  1.0000
  C   C255      1.0  0.09716  0.05547  0.81218  1.0000
  H   H204      1.0  0.11052  0.01762  0.85262  1.0000
  H   H205      1.0  0.08066  0.03912  0.87236  1.0000
  H   H206      1.0  0.07207  0.08167  0.81511  1.0000
  H   H207      1.0  0.10160  0.06000  0.79532  1.0000
  C   C256      1.0  0.22667  0.03139  0.80342  1.0000
  C   C257      1.0  0.24403  0.04254  0.79743  1.0000
  C   C258      1.0  0.24307  0.06040  0.78184  1.0000
  C   C259      1.0  0.22478  0.06706  0.77211  1.0000
  C   C260      1.0  0.20733  0.05623  0.77852  1.0000
  C   C261      1.0  0.20825  0.03844  0.79401  1.0000
  H   H208      1.0  0.25828  0.03726  0.80474  1.0000
  H   H209      1.0  0.25650  0.06888  0.77731  1.0000
  H   H210      1.0  0.19308  0.06150  0.77131  1.0000
  H   H211      1.0  0.19467  0.03020  0.79862  1.0000
  C   C262      1.0  0.48507  0.21532  0.80576  1.0000
  H   H212      1.0  0.46202  0.34627  0.93846  1.0000
  S   S47       1.0  0.13143  0.28858  0.73797  1.0000
  H   H213      1.0  0.32552  0.40898  0.88937  1.0000
  H   H214      1.0  0.19484  0.33273  0.77346  1.0000
  C   C263      1.0  0.41257  0.42145  0.87207  1.0000
  C   C264      1.0  0.42474  0.40517  0.88390  1.0000
  C   C265      1.0  0.44197  0.39240  0.87373  1.0000
  C   C266      1.0  0.44710  0.39584  0.85160  1.0000
  C   C267      1.0  0.43476  0.41192  0.83982  1.0000
  C   C268      1.0  0.41761  0.42462  0.84995  1.0000
  H   H215      1.0  0.42082  0.40249  0.90099  1.0000
  H   H216      1.0  0.45126  0.37997  0.88299  1.0000
  H   H217      1.0  0.43846  0.41458  0.82269  1.0000
  H   H218      1.0  0.40817  0.43675  0.84056  1.0000
  C   C269      1.0  0.32075  0.42649  0.78201  1.0000
  H   H219      1.0  0.38674  0.32716  0.80768  1.0000
  H   H220      1.0  0.17163  0.05316  0.74852  1.0000
  C   C270      1.0  0.40640  0.28715  0.79257  1.0000
  S   S48       1.0  0.28858  0.36391  0.75575  1.0000
  H   H221      1.0  0.21834  0.38754  0.79225  1.0000
  C   C271      1.0  0.47132  0.27260  0.83302  1.0000
  H   H222      1.0  0.19101  0.20338  0.77364  1.0000
  H   H223      1.0  0.41454  0.23929  0.81054  1.0000
  Fe  Fe22      1.0  0.13197  0.25390  0.74819  1.0000
  C   C272      1.0  0.00614  0.20182  0.76532  1.0000
  C   C273      1.0  0.25887  0.18376  0.79812  1.0000
  C   C274      1.0  0.27324  0.18911  0.80954  1.0000
  C   C275      1.0  0.27639  0.20997  0.80770  1.0000
  C   C276      1.0  0.26547  0.22544  0.79413  1.0000
  C   C277      1.0  0.25134  0.22011  0.78220  1.0000
  C   C278      1.0  0.24779  0.19918  0.78467  1.0000
  P   P9        1.0  0.23662  0.24010  0.76508  1.0000
  C   C279      1.0  0.24829  0.26395  0.76133  1.0000
  C   C280      1.0  0.45992  0.14753  0.76770  1.0000
  S   S49       1.0  0.25852  0.40781  0.74579  1.0000
  C   C281      1.0  0.99336  0.17357  0.75323  1.0000
  H   H224      1.0  0.16795  0.10326  0.92086  1.0000
  C   C282      1.0  0.41830  0.29108  0.80735  1.0000
  H   H225      1.0  0.36262  0.31201  0.79028  1.0000
  C   C283      1.0  0.23893  0.28065  0.77246  1.0000
  C   C284      1.0  0.05899  0.24281  0.74051  1.0000
  C   C285      1.0  0.16639  0.16216  0.75248  1.0000
  P   P10       1.0  0.15431  0.14462  0.74102  1.0000
  C   C286      1.0  0.46770  0.36078  0.93098  1.0000
  C   C287      1.0  0.20907  0.24464  0.77730  1.0000
  C   C288      1.0  0.20148  0.23165  0.79573  1.0000
  C   C289      1.0  0.18009  0.23486  0.80463  1.0000
  C   C290      1.0  0.16615  0.25127  0.79554  1.0000
  C   C291      1.0  0.17365  0.26471  0.77776  1.0000
  C   C292      1.0  0.19498  0.26147  0.76872  1.0000
  H   H226      1.0  0.25672  0.16751  0.79925  1.0000
  H   H227      1.0  0.28214  0.17702  0.81958  1.0000
  H   H228      1.0  0.28755  0.21410  0.81659  1.0000
  H   H229      1.0  0.26826  0.24147  0.79291  1.0000
  H   H230      1.0  0.23664  0.19472  0.77602  1.0000
  C   C293      1.0  0.36469  0.35507  0.81292  1.0000
  C   C294      1.0  0.13443  0.07490  0.85216  1.0000
  H   H231      1.0  0.31596  0.36636  0.79630  1.0000
  H   H232      1.0  0.01582  0.04795  0.94017  1.0000
  H   H233      1.0  0.17907  0.04413  0.83313  1.0000
  C   C295      1.0  0.21646  0.12520  0.78689  1.0000
  C   C296      1.0  0.47590  0.23664  0.78856  1.0000
  C   C297      1.0  0.19825  0.12658  0.80195  1.0000
  H   H234      1.0  0.27430  0.31477  0.75308  1.0000
  H   H235      1.0  0.47607  0.28787  0.82737  1.0000
  H   H236      1.0  0.21184  0.21894  0.80331  1.0000
  H   H237      1.0  0.17426  0.22457  0.81855  1.0000
  H   H238      1.0  0.14951  0.25363  0.80227  1.0000
  H   H239      1.0  0.16285  0.27754  0.77083  1.0000
  H   H240      1.0  0.20039  0.27238  0.75523  1.0000
  H   H241      1.0  0.46654  0.43638  0.86485  1.0000
  C   C298      1.0  0.23836  0.23282  0.73878  1.0000
  H   H242      1.0  0.42043  0.36732  0.84373  1.0000
  C   C299      1.0  0.41686  0.35143  0.84784  1.0000
  H   H243      1.0  0.44548  0.38536  0.78038  1.0000
  C   C300      1.0  0.34264  0.45366  0.76596  1.0000
  H   H244      1.0  0.32449  0.00402  0.74165  1.0000
  C   C301      1.0  0.46606  0.26093  0.81868  1.0000
  H   H245      1.0  0.25564  0.45197  0.74470  1.0000
  C   C302      1.0  0.43077  0.33647  0.85885  1.0000
  C   C303      1.0  0.28256  0.98246  0.77882  1.0000
  H   H246      1.0  0.32009  0.41812  0.81581  1.0000
  C   C304      1.0  0.26726  0.30048  0.75560  1.0000
  C   C305      1.0  0.26554  0.47162  0.76392  1.0000
  C   C306      1.0  0.26706  0.46188  0.74586  1.0000
  C   C307      1.0  0.14393  0.36984  0.74629  1.0000
  H   H247      1.0  0.37339  0.40042  0.76207  1.0000
  P   P11       1.0  0.38103  0.36549  0.82768  1.0000
  H   H248      1.0  0.27881  0.47490  0.86027  1.0000
  H   H249      1.0  0.31429  0.21740  0.77828  1.0000
  H   H250      1.0  0.11268  0.13709  0.76634  1.0000
  C   C308      1.0  0.18203  0.11991  0.86816  1.0000
  C   C309      1.0  0.19207  0.12291  0.90818  1.0000
  C   C310      1.0  0.17749  0.07631  0.83714  1.0000
  H   H251      1.0  0.10231  0.10874  0.79417  1.0000
  C   C311      1.0  0.03993  0.23445  0.74634  1.0000
  H   H252      1.0  0.17965  0.30974  0.75477  1.0000
  C   C312      1.0  0.01252  0.16064  0.75581  1.0000
  C   C313      1.0  0.17191  0.38443  0.75701  1.0000
  C   C314      1.0  0.47751  0.13363  0.76008  1.0000
  C   C315      1.0  0.41722  0.37640  0.80027  1.0000
  H   H253      1.0  0.27063  0.05279  0.74505  1.0000
  H   H254      1.0  0.13256  0.10696  0.85638  1.0000
  C   C316      1.0  0.23690  0.44189  0.78786  1.0000
  C   C317      1.0  0.22035  0.43960  0.77710  1.0000
  C   C318      1.0  0.21341  0.42016  0.77902  1.0000
  C   C319      1.0  0.22325  0.40274  0.79130  1.0000
  C   C320      1.0  0.24007  0.40476  0.80160  1.0000
  C   C321      1.0  0.24686  0.42423  0.79994  1.0000
  C   C322      1.0  0.14640  0.12474  0.76268  1.0000
  S   S50       1.0  0.34742  0.46583  0.84773  1.0000
  H   H255      1.0  0.40566  0.11246  0.74992  1.0000
  H   H256      1.0  0.17007  0.16202  0.84968  1.0000
  C   C323      1.0  0.35212  0.28664  0.75224  1.0000
  C   C324      1.0  0.36376  0.37913  0.84755  1.0000
  C   C325      1.0  0.02865  0.16826  0.76280  1.0000
  C   C326      1.0  0.33619  0.40053  0.87784  1.0000
  C   C327      1.0  0.21789  0.34186  0.74677  1.0000
  C   C328      1.0  0.00029  0.05716  0.93933  1.0000
  H   H257      1.0  0.37900  0.32131  0.84649  1.0000
  Fe  Fe23      1.0  0.29168  0.39798  0.75365  1.0000
  C   C329      1.0  0.20116  0.33100  0.75718  1.0000
  H   H258      1.0  0.12970  0.08060  0.80771  1.0000
  C   C330      1.0  0.43333  0.47217  0.89146  1.0000
  H   H259      1.0  0.21291  0.45275  0.76701  1.0000
  H   H260      1.0  0.20085  0.41847  0.77047  1.0000
  H   H261      1.0  0.24823  0.39112  0.81048  1.0000
  H   H262      1.0  0.26012  0.42525  0.80779  1.0000
  C   C331      1.0  0.14161  0.35707  0.76595  1.0000
  C   C332      1.0  0.15425  0.35815  0.78123  1.0000
  C   C333      1.0  0.16940  0.37180  0.77674  1.0000
  H   H263      1.0  0.19595  0.12402  0.92363  1.0000
  H   H264      1.0  0.24929  0.99510  0.78115  1.0000
  C   C334      1.0  0.34574  0.17201  0.76947  1.0000
  C   C335      1.0  0.27558  0.45945  0.81334  1.0000
  Fe  Fe24      1.0  0.38773  0.24196  0.75880  1.0000
  C   C336      1.0  0.20280  0.13317  0.88981  1.0000
  C   C337      1.0  0.39366  0.32560  0.84931  1.0000
  H   H265      1.0  0.11551  0.15601  0.80600  1.0000
  H   H266      1.0  0.38346  0.40325  0.84601  1.0000
  C   C338      1.0  0.42626  0.31603  0.86496  1.0000
  H   H267      1.0  0.29993  0.45375  0.83362  1.0000
  C   C339      1.0  0.36885  0.39729  0.85314  1.0000
  H   H268      1.0  0.44007  0.11624  0.75956  1.0000
  H   H269      1.0  0.35879  0.42217  0.87214  1.0000
  Fe  Fe25      1.0  0.00292  0.13203  0.81782  1.0000
  C   C340      1.0  0.17631  0.11121  0.90662  1.0000
  H   H270      1.0  0.28510  0.45041  0.80165  1.0000
  C   C341      1.0  0.19272  0.31772  0.74672  1.0000
  C   C342      1.0  0.48251  0.39828  0.91137  1.0000
  S   S51       1.0  0.36325  0.26735  0.77126  1.0000
  P   P12       1.0  0.17558  0.11810  0.84237  1.0000
  H   H271      1.0  0.21990  0.09940  0.84503  1.0000
  H   H272      1.0  0.21407  0.17841  0.75173  1.0000
  H   H273      1.0  0.15266  0.34808  0.79637  1.0000
  H   H274      1.0  0.17976  0.37214  0.78826  1.0000
  C   C343      1.0  0.18832  0.16292  0.74785  1.0000
  C   C344      1.0  0.47486  0.14681  0.79986  1.0000
  H   H275      1.0  0.37019  0.40857  0.80774  1.0000
  Fe  Fe26      1.0  0.28196  0.13354  0.74166  1.0000
  H   H276      1.0  0.31684  0.37618  0.88055  1.0000
  C   C345      1.0  0.12754  0.15723  0.81548  1.0000
  H   H277      1.0  0.44719  0.15356  0.75830  1.0000
  H   H278      1.0  0.31309  0.17637  0.78411  1.0000
  C   C346      1.0  0.19780  0.13172  0.86988  1.0000
  C   C347      1.0  0.43811  0.11861  0.74297  1.0000
  H   H279      1.0  0.14502  0.19306  0.83829  1.0000
  C   C348      1.0  0.31796  0.15462  0.76157  1.0000
  C   C349      1.0  0.41730  0.31716  0.76815  1.0000
  H   H280      1.0  0.35060  0.18296  0.77789  1.0000
  C   C350      1.0  0.45863  0.15406  0.78745  1.0000
  C   C351      1.0  0.45415  0.37977  0.93138  1.0000
  C   C352      1.0  0.34489  0.36636  0.80888  1.0000
  C   C353      1.0  0.39869  0.34588  0.84210  1.0000
  C   C354      1.0  0.16252  0.19049  0.77339  1.0000
  H   H281      1.0  0.47391  0.15227  0.81498  1.0000
  H   H282      1.0  0.25204  0.09760  0.81822  1.0000
  C   C355      1.0  0.45919  0.33679  0.73929  1.0000
  C   C356      1.0  0.33337  0.29948  0.75872  1.0000
  C   C357      1.0  0.39179  0.35229  0.74700  1.0000
  C   C358      1.0  0.28399  0.46125  0.83144  1.0000
  C   C359      1.0  0.02671  0.23847  0.76527  1.0000
  C   C360      1.0  0.03265  0.25131  0.77800  1.0000
  C   C361      1.0  0.05171  0.25962  0.77211  1.0000
  S   S52       1.0  0.36515  0.47344  0.78813  1.0000
  H   H283      1.0  0.32713  0.33157  0.78494  1.0000
  C   C362      1.0  0.46044  0.44567  0.87746  1.0000
  H   H284      1.0  0.33472  0.24559  0.76029  1.0000
  H   H285      1.0  0.24089  0.31192  0.77773  1.0000
  H   H286      1.0  0.43852  0.31136  0.81429  1.0000
  C   C363      1.0  0.32640  0.23808  0.75116  1.0000
  H   H287      1.0  0.32549  0.29666  0.77487  1.0000
  H   H288      1.0  0.34119  0.35700  0.85430  1.0000
  S   S53       1.0  0.29084  0.15186  0.76471  1.0000
  C   C364      1.0  0.15900  0.38377  0.74169  1.0000
  C   C365      1.0  0.25520  0.46964  0.81002  1.0000
  C   C366      1.0  0.46990  0.44258  0.89608  1.0000
  S   S54       1.0  0.42160  0.24719  0.74857  1.0000
  C   C367      1.0  0.37128  0.33571  0.80557  1.0000
  H   H289      1.0  0.40388  0.29492  0.86565  1.0000
  H   H290      1.0  0.21540  0.13141  0.77044  1.0000
  C   C368      1.0  0.02550  0.18870  0.76761  1.0000
  C   C369      1.0  0.31469  0.22228  0.76136  1.0000
  H   H291      1.0  0.02266  0.25486  0.79254  1.0000
  H   H292      1.0  0.43707  0.30445  0.87353  1.0000
  C   C370      1.0  0.23588  0.11507  0.79281  1.0000
  C   C371      1.0  0.00726  0.21103  0.83595  1.0000
  H   H293      1.0  0.43786  0.38002  0.93907  1.0000
  H   H294      1.0  0.02681  0.20723  0.80624  1.0000
  H   H295      1.0  0.32500  0.43836  0.74864  1.0000
  H   H296      1.0  0.47263  0.18845  0.83430  1.0000
  C   C372      1.0  0.43908  0.34726  0.73524  1.0000
  C   C373      1.0  0.42947  0.30821  0.80272  1.0000
  H   H297      1.0  0.05652  0.26915  0.78216  1.0000
  H   H298      1.0  0.19418  0.07632  0.83116  1.0000
  H   H299      1.0  0.45068  0.41294  0.92241  1.0000
  C   C374      1.0  0.48858  0.36046  0.92077  1.0000
  S   S55       1.0  0.39509  0.21248  0.78153  1.0000
  H   H300      1.0  0.18409  0.39442  0.75389  1.0000
  H   H301      1.0  0.17865  0.11059  0.76684  1.0000
  C   C375      1.0  0.14181  0.13960  0.82169  1.0000
  H   H302      1.0  0.22438  0.27979  0.78343  1.0000
  C   C376      1.0  0.32632  0.42797  0.80175  1.0000
  C   C377      1.0  0.33133  0.38209  0.87286  1.0000
  C   C378      1.0  0.37250  0.34743  0.74322  1.0000
  C   C379      1.0  0.36077  0.16109  0.75555  1.0000
  C   C380      1.0  0.16187  0.10995  0.77200  1.0000
  H   H303      1.0  0.20622  0.13984  0.85581  1.0000
  C   C381      1.0  0.01147  0.21390  0.81378  1.0000
  C   C382      1.0  0.47072  0.26475  0.85426  1.0000
  C   C383      1.0  0.44895  0.24597  0.79056  1.0000
  C   C384      1.0  0.43138  0.23388  0.80970  1.0000
  H   H304      1.0  0.03818  0.19408  0.77333  1.0000
  C   C385      1.0  0.23706  0.10597  0.81383  1.0000
  H   H305      1.0  0.14097  0.04285  0.84631  1.0000
  C   C386      1.0  0.21885  0.10715  0.82896  1.0000
  C   C387      1.0  0.33971  0.44221  0.80366  1.0000
  H   H306      1.0  0.34886  0.46361  0.75199  1.0000
  H   H307      1.0  0.27518  0.25280  0.73928  1.0000
  C   C388      1.0  0.15707  0.14092  0.83442  1.0000
  H   H308      1.0  0.11768  0.07429  0.85774  1.0000
  C   C389      1.0  0.34780  0.45544  0.78591  1.0000
  H   H309      1.0  0.42862  0.42172  0.76934  1.0000
  P   P13       1.0  0.00195  0.22784  0.77283  1.0000
  H   H310      1.0  0.44500  0.34085  0.86273  1.0000
  H   H311      1.0  0.11782  0.19011  0.81659  1.0000
  C   C390      1.0  0.32915  0.43928  0.76399  1.0000
  C   C391      1.0  0.42896  0.39034  0.78622  1.0000
  H   H312      1.0  0.39096  0.43311  0.78299  1.0000
  H   H313      1.0  0.29459  0.20041  0.75759  1.0000
  C   C392      1.0  0.12876  0.17645  0.82149  1.0000
  C   C393      1.0  0.39831  0.41725  0.78778  1.0000
  C   C394      1.0  0.35497  0.40801  0.86807  1.0000
  P   P14       1.0  0.24494  0.46737  0.78617  1.0000
  C   C395      1.0  0.32489  0.31616  0.74452  1.0000
  C   C396      1.0  0.14416  0.17807  0.83375  1.0000
  S   S56       1.0  0.22792  0.35872  0.76023  1.0000
  C   C397      1.0  0.38659  0.40336  0.80190  1.0000
  C   C398      1.0  0.41952  0.41079  0.78003  1.0000
  C   C399      1.0  0.16897  0.05788  0.83821  1.0000
  C   C400      1.0  0.15828  0.16038  0.84022  1.0000
  C   C401      1.0  0.15369  0.17560  0.76580  1.0000
  H   H314      1.0  0.16153  0.01816  0.76262  1.0000
  H   H315      1.0  0.42484  0.36065  0.80484  1.0000
  C   C402      1.0  0.14290  0.09339  0.85119  1.0000
  H   H316      1.0  0.15239  0.20150  0.78285  1.0000
  Fe  Fe27      1.0  0.42899  0.21671  0.76938  1.0000
  H   H317      1.0  0.39741  0.27410  0.79615  1.0000
  C   C403      1.0  0.14749  0.05716  0.84568  1.0000
  H   H318      1.0  0.14085  0.12498  0.81654  1.0000
  H   H319      1.0  0.18333  0.13421  0.79685  1.0000
  C   C404      1.0  0.46153  0.39847  0.92179  1.0000
  C   C405      1.0  0.26202  0.98794  0.74973  1.0000
  H   H320      1.0  0.24991  0.11384  0.78101  1.0000
  H   H321      1.0  0.37170  0.33250  0.73855  1.0000
  C   C406      1.0  0.42875  0.32138  0.78330  1.0000
  H   H322      1.0  0.41884  0.28090  0.82241  1.0000
  C   C407      1.0  0.16451  0.09428  0.84352  1.0000
  C   C408      1.0  0.32452  0.16830  0.77293  1.0000
  H   H323      1.0  0.29187  0.28490  0.73447  1.0000
  S   S57       1.0  0.43087  0.19773  0.74326  1.0000
  H   H324      1.0  0.33922  0.35827  0.74202  1.0000
  C   C409      1.0  0.35399  0.36192  0.74534  1.0000
  S   S58       1.0  0.00942  0.16319  0.82288  1.0000
  C   C410      1.0  0.33303  0.14360  0.74775  1.0000
  C   C411      1.0  0.18426  0.19154  0.76825  1.0000
  H   H325      1.0  0.21502  0.14224  0.89102  1.0000
  H   H326      1.0  0.03553  0.22483  0.73613  1.0000
  C   C412      1.0  0.17127  0.10971  0.88671  1.0000
  H   H327      1.0  0.15900  0.10057  0.88594  1.0000
  C   C413      1.0  0.11894  0.10886  0.78768  1.0000
  C   C414      1.0  0.13436  0.09314  0.79550  1.0000
  H   H328      1.0  0.44516  0.16515  0.79290  1.0000
  H   H329      1.0  0.46744  0.26967  0.80285  1.0000
  C   C415      1.0  0.35447  0.14648  0.74514  1.0000
  H   H330      1.0  0.43710  0.33482  0.78019  1.0000
  C   C416      1.0  0.33766  0.33807  0.79266  1.0000
  C   C417      1.0  0.27210  0.47323  0.84643  1.0000
  H   H331      1.0  0.40635  0.37502  0.75830  1.0000
  C   C418      1.0  0.35770  0.32713  0.79568  1.0000
  S   S59       1.0  0.18337  0.98892  0.80068  1.0000
  H   H332      1.0  0.12431  0.42226  0.74045  1.0000
  S   S60       1.0  0.00150  0.11781  0.85220  1.0000
  C   C419      1.0  0.33134  0.35772  0.79909  1.0000
  H   H333      1.0  0.46101  0.32089  0.74750  1.0000
  C   C420      1.0  0.39190  0.37124  0.75444  1.0000
  C   C421      1.0  0.41869  0.11597  0.73757  1.0000
  S   S61       1.0  0.38769  0.16449  0.75166  1.0000
  C   C422      1.0  0.99619  0.07017  0.92050  1.0000
  C   C423      1.0  0.28007  0.98034  0.73641  1.0000
  C   C424      1.0  0.06483  0.25544  0.75337  1.0000
  C   C425      1.0  0.17490  0.01979  0.75007  1.0000
  H   H334      1.0  0.04345  0.15812  0.76496  1.0000
  H   H335      1.0  0.01910  0.20197  0.84528  1.0000
  C   C426      1.0  0.26328  0.98907  0.77089  1.0000
  H   H336      1.0  0.00856  0.07115  0.90685  1.0000
  C   C427      1.0  0.26752  0.26556  0.74774  1.0000
  H   H337      1.0  0.32825  0.13263  0.73931  1.0000
  C   C428      1.0  0.30378  0.21262  0.74969  1.0000
  Fe  Fe28      1.0  0.25686  0.37413  0.74441  1.0000
  H   H338      1.0  0.34001  0.39221  0.75364  1.0000
  H   H339      1.0  0.24701  0.99309  0.74371  1.0000
  S   S62       1.0  0.99333  0.16630  0.88419  1.0000
  C   C429      1.0  0.27701  0.28371  0.74498  1.0000
  H   H340      1.0  0.01468  0.14456  0.75283  1.0000
  H   H341      1.0  0.48779  0.40031  0.86535  1.0000
  C   C430      1.0  0.35441  0.38105  0.75194  1.0000
  C   C431      1.0  0.99595  0.22488  0.80152  1.0000
  H   H342      1.0  0.13400  0.36880  0.73463  1.0000
  C   C432      1.0  0.18067  0.03952  0.74218  1.0000
  Fe  Fe29      1.0  0.25137  0.10456  0.73670  1.0000
  H   H343      1.0  0.36620  0.13756  0.73487  1.0000
  H   H344      1.0  0.19853  0.15254  0.73781  1.0000
  H   H345      1.0  0.43478  0.46237  0.86101  1.0000
  S   S63       1.0  0.48830  0.33198  0.88203  1.0000
  H   H346      1.0  0.00285  0.26623  0.74168  1.0000
  H   H347      1.0  0.48685  0.24398  0.77617  1.0000
  C   C433      1.0  0.46053  0.45421  0.91255  1.0000
  C   C434      1.0  0.44230  0.46044  0.87518  1.0000
  C   C435      1.0  0.18644  0.00216  0.74191  1.0000
  H   H348      1.0  0.08667  0.43183  0.73488  1.0000
  C   C436      1.0  0.44244  0.46906  0.91014  1.0000
  H   H349      1.0  0.46687  0.45148  0.92745  1.0000
  H   H350      1.0  0.43513  0.47791  0.92289  1.0000
  H   H351      1.0  0.43807  0.29271  0.73520  1.0000
  S   S64       1.0  0.36541  0.77401  0.21243  1.0000
  H   H352      1.0  0.35684  0.65966  0.00351  1.0000
  C   C437      1.0  0.47893  0.60692  0.03860  1.0000
  Fe  Fe30      1.0  0.05326  0.83251  0.14067  1.0000
  S   S65       1.0  0.05922  0.80186  0.12835  1.0000
  S   S66       1.0  0.07835  0.83601  0.15994  1.0000
  Fe  Fe31      1.0  0.01216  0.84685  0.12146  1.0000
  S   S67       1.0  0.01524  0.81658  0.10825  1.0000
  C   C438      1.0  0.23908  0.74319  0.02469  1.0000
  Fe  Fe32      1.0  0.02462  0.80116  0.13955  1.0000
  C   C439      1.0  0.38496  0.69496  0.04844  1.0000
  Fe  Fe33      1.0  0.04962  0.82020  0.09810  1.0000
  S   S68       1.0  0.06465  0.81164  0.06574  1.0000
  S   S69       1.0  0.01895  0.83079  0.15385  1.0000
  S   S70       1.0  0.04627  0.85143  0.10926  1.0000
  C   C440      1.0  0.41836  0.59329  0.05675  1.0000
  C   C441      1.0  0.09258  0.88682  0.00154  1.0000
  H   H353      1.0  0.25508  0.65129  0.98795  1.0000
  H   H354      1.0  0.33295  0.71012  0.19654  1.0000
  C   C442      1.0  0.08704  0.87985  0.04017  1.0000
  H   H355      1.0  0.44949  0.68626  0.21180  1.0000
  H   H356      1.0  0.05074  0.56992  0.18499  1.0000
  H   H357      1.0  0.06874  0.53318  0.18759  1.0000
  P   P15       1.0  0.23111  0.81936  0.19268  1.0000
  C   C443      1.0  0.22581  0.66851  0.20299  1.0000
  S   S71       1.0  0.15658  0.83301  0.02482  1.0000
  C   C444      1.0  0.04416  0.55797  0.19675  1.0000
  C   C445      1.0  0.24529  0.85584  0.19873  1.0000
  H   H358      1.0  0.29279  0.75000  0.17887  1.0000
  C   C446      1.0  0.24478  0.73228  0.04394  1.0000
  C   C447      1.0  0.40118  0.60756  0.05044  1.0000
  C   C448      1.0  0.28655  0.78373  0.20840  1.0000
  Fe  Fe34      1.0  0.28826  0.76607  0.09202  1.0000
  S   S72       1.0  0.27480  0.73942  0.08456  1.0000
  S   S73       1.0  0.27352  0.79796  0.07812  1.0000
  Fe  Fe35      1.0  0.31866  0.73744  0.11948  1.0000
  S   S74       1.0  0.30716  0.70844  0.11383  1.0000
  S   S75       1.0  0.34704  0.73075  0.13746  1.0000
  Fe  Fe36      1.0  0.30852  0.72357  0.07985  1.0000
  S   S76       1.0  0.32344  0.71199  0.04886  1.0000
  Fe  Fe37      1.0  0.27451  0.72709  0.11914  1.0000
  S   S77       1.0  0.24538  0.71304  0.13619  1.0000
  S   S78       1.0  0.32214  0.75136  0.08505  1.0000
  S   S79       1.0  0.28589  0.75502  0.12720  1.0000
  C   C449      1.0  0.25978  0.79913  0.01051  1.0000
  C   C450      1.0  0.27521  0.78373  0.01896  1.0000
  C   C451      1.0  0.27926  0.78312  0.03981  1.0000
  C   C452      1.0  0.26835  0.79833  0.05208  1.0000
  C   C453      1.0  0.25302  0.81385  0.04356  1.0000
  C   C454      1.0  0.24846  0.81403  0.02294  1.0000
  H   H359      1.0  0.28396  0.77217  0.00942  1.0000
  H   H360      1.0  0.29114  0.77110  0.04619  1.0000
  H   H361      1.0  0.24445  0.82556  0.05303  1.0000
  H   H362      1.0  0.23659  0.82600  0.01647  1.0000
  C   C455      1.0  0.34362  0.64485  0.03405  1.0000
  C   C456      1.0  0.33236  0.64824  0.05407  1.0000
  C   C457      1.0  0.32622  0.66874  0.05912  1.0000
  C   C458      1.0  0.33101  0.68587  0.04397  1.0000
  C   C459      1.0  0.34200  0.68238  0.02396  1.0000
  C   C460      1.0  0.34853  0.66201  0.01910  1.0000
  H   H363      1.0  0.32844  0.63501  0.06566  1.0000
  H   H364      1.0  0.31757  0.67132  0.07452  1.0000
  H   H365      1.0  0.34548  0.69552  0.01203  1.0000
  C   C461      1.0  0.20957  0.73816  0.19632  1.0000
  C   C462      1.0  0.20250  0.72212  0.18879  1.0000
  C   C463      1.0  0.21346  0.71459  0.17017  1.0000
  C   C464      1.0  0.23147  0.72306  0.15912  1.0000
  C   C465      1.0  0.23823  0.73922  0.16663  1.0000
  C   C466      1.0  0.22738  0.74667  0.18518  1.0000
  H   H366      1.0  0.18875  0.71546  0.19735  1.0000
  H   H367      1.0  0.20807  0.70211  0.16439  1.0000
  H   H368      1.0  0.25193  0.74594  0.15829  1.0000
  H   H369      1.0  0.23292  0.75905  0.19097  1.0000
  C   C467      1.0  0.09016  0.81779  0.05444  1.0000
  C   C468      1.0  0.10123  0.82883  0.06461  1.0000
  C   C469      1.0  0.12151  0.83349  0.05523  1.0000
  C   C470      1.0  0.13099  0.82694  0.03577  1.0000
  C   C471      1.0  0.11996  0.81583  0.02560  1.0000
  C   C472      1.0  0.09955  0.81139  0.03487  1.0000
  H   H370      1.0  0.09411  0.83386  0.07964  1.0000
  H   H371      1.0  0.12992  0.84218  0.06309  1.0000
  H   H372      1.0  0.12713  0.81071  0.01062  1.0000
  H   H373      1.0  0.09106  0.80284  0.02692  1.0000
  C   C473      1.0  0.08110  0.81571  0.18151  1.0000
  H   H374      1.0  0.34338  0.74687  0.00137  1.0000
  C   C474      1.0  0.25206  0.80527  0.20732  1.0000
  H   H375      1.0  0.22515  0.75501  0.02456  1.0000
  C   C475      1.0  0.06599  0.78936  0.20816  1.0000
  C   C476      1.0  0.06417  0.80473  0.19030  1.0000
  H   H376      1.0  0.02793  0.67791  0.15791  1.0000
  H   H377      1.0  0.04945  0.80839  0.18363  1.0000
  H   H378      1.0  0.30748  0.73738  0.00698  1.0000
  H   H379      1.0  0.26734  0.70861  0.05886  1.0000
  C   C477      1.0  0.02559  0.56329  0.21052  1.0000
  H   H380      1.0  0.21785  0.85238  0.15885  1.0000
  H   H381      1.0  0.38640  0.71356  0.99581  1.0000
  H   H382      1.0  0.28878  0.62825  0.99475  1.0000
  H   H383      1.0  0.05267  0.78119  0.21488  1.0000
  H   H384      1.0  0.45909  0.65350  0.19547  1.0000
  H   H385      1.0  0.22265  0.88953  0.14983  1.0000
  H   H386      1.0  0.49095  0.72933  0.23315  1.0000
  C   C478      1.0  0.35991  0.76192  0.19176  1.0000
  C   C479      1.0  0.37241  0.74357  0.18617  1.0000
  C   C480      1.0  0.36804  0.73429  0.16959  1.0000
  C   C481      1.0  0.35107  0.74315  0.15844  1.0000
  C   C482      1.0  0.33840  0.76152  0.16394  1.0000
  C   C483      1.0  0.34297  0.77097  0.18046  1.0000
  H   H387      1.0  0.38567  0.73670  0.19437  1.0000
  H   H388      1.0  0.37794  0.72017  0.16530  1.0000
  H   H389      1.0  0.32549  0.76868  0.15517  1.0000
  H   H390      1.0  0.33365  0.78553  0.18428  1.0000
  C   C484      1.0  0.11648  0.65810  0.18092  1.0000
  H   H391      1.0  0.36684  0.72078  0.03093  1.0000
  C   C485      1.0  0.46740  0.66672  0.18912  1.0000
  C   C486      1.0  0.46188  0.68525  0.19833  1.0000
  H   H392      1.0  0.26469  0.74454  0.20975  1.0000
  C   C487      1.0  0.25132  0.73884  0.00550  1.0000
  C   C488      1.0  0.49050  0.61780  0.04873  1.0000
  C   C489      1.0  0.40123  0.67785  0.04721  1.0000
  C   C490      1.0  0.41229  0.67400  0.02729  1.0000
  P   P16       1.0  0.40887  0.66138  0.07086  1.0000
  C   C491      1.0  0.41267  0.63458  0.06567  1.0000
  C   C492      1.0  0.43280  0.66838  0.07728  1.0000
  C   C493      1.0  0.44321  0.68396  0.06399  1.0000
  C   C494      1.0  0.46134  0.68966  0.06935  1.0000
  C   C495      1.0  0.46929  0.67985  0.08793  1.0000
  C   C496      1.0  0.45919  0.66423  0.10121  1.0000
  C   C497      1.0  0.44082  0.65872  0.09607  1.0000
  C   C498      1.0  0.39838  0.62813  0.05471  1.0000
  C   C499      1.0  0.38749  0.66491  0.09254  1.0000
  C   C500      1.0  0.36847  0.65686  0.09329  1.0000
  C   C501      1.0  0.35157  0.66059  0.10947  1.0000
  C   C502      1.0  0.35351  0.67236  0.12504  1.0000
  C   C503      1.0  0.37228  0.68055  0.12433  1.0000
  C   C504      1.0  0.38909  0.67705  0.10805  1.0000
  H   H393      1.0  0.42481  0.66081  0.02605  1.0000
  H   H394      1.0  0.43753  0.69170  0.04941  1.0000
  C   C505      1.0  0.24786  0.87696  0.19355  1.0000
  Fe  Fe38      1.0  0.43749  0.73344  0.22597  1.0000
  H   H395      1.0  0.46561  0.65648  0.11550  1.0000
  H   H396      1.0  0.43292  0.64684  0.10667  1.0000
  H   H397      1.0  0.38524  0.63904  0.04904  1.0000
  H   H398      1.0  0.36636  0.64818  0.08114  1.0000
  H   H399      1.0  0.33680  0.65473  0.10963  1.0000
  H   H400      1.0  0.34028  0.67562  0.13733  1.0000
  H   H401      1.0  0.37358  0.69014  0.13608  1.0000
  H   H402      1.0  0.40305  0.68433  0.10734  1.0000
  C   C506      1.0  0.47191  0.70269  0.18960  1.0000
  C   C507      1.0  0.49093  0.76906  0.20504  1.0000
  C   C508      1.0  0.10322  0.76558  0.11416  1.0000
  C   C509      1.0  0.10272  0.76371  0.09301  1.0000
  C   C510      1.0  0.11796  0.77158  0.07706  1.0000
  C   C511      1.0  0.13380  0.78121  0.08222  1.0000
  C   C512      1.0  0.13462  0.78294  0.10347  1.0000
  C   C513      1.0  0.11890  0.77543  0.11934  1.0000
  P   P17       1.0  0.15417  0.79667  0.11008  1.0000
  C   C514      1.0  0.15773  0.78823  0.13763  1.0000
  C   C515      1.0  0.17890  0.79102  0.09269  1.0000
  C   C516      1.0  0.19542  0.77580  0.09958  1.0000
  C   C517      1.0  0.21416  0.77117  0.08578  1.0000
  C   C518      1.0  0.21656  0.78158  0.06498  1.0000
  C   C519      1.0  0.20025  0.79669  0.05795  1.0000
  C   C520      1.0  0.18153  0.80140  0.07171  1.0000
  C   C521      1.0  0.15752  0.80296  0.15122  1.0000
  C   C522      1.0  0.15938  0.79638  0.17270  1.0000
  C   C523      1.0  0.16156  0.77509  0.18074  1.0000
  C   C524      1.0  0.16201  0.76033  0.16731  1.0000
  C   C525      1.0  0.16004  0.76683  0.14586  1.0000
  C   C526      1.0  0.14383  0.82422  0.10671  1.0000
  C   C527      1.0  0.12216  0.83079  0.11304  1.0000
  C   C528      1.0  0.11406  0.85209  0.11093  1.0000
  C   C529      1.0  0.12750  0.86701  0.10255  1.0000
  C   C530      1.0  0.14916  0.86063  0.09656  1.0000
  C   C531      1.0  0.15737  0.83932  0.09885  1.0000
  H   H403      1.0  0.09114  0.75993  0.12651  1.0000
  H   H404      1.0  0.09028  0.75660  0.08885  1.0000
  H   H405      1.0  0.11721  0.77074  0.06057  1.0000
  H   H406      1.0  0.14500  0.78766  0.06944  1.0000
  H   H407      1.0  0.11845  0.77757  0.13567  1.0000
  H   H408      1.0  0.19403  0.76734  0.11548  1.0000
  H   H409      1.0  0.22691  0.75953  0.09123  1.0000
  H   H410      1.0  0.23111  0.77798  0.05432  1.0000
  H   H411      1.0  0.20209  0.80477  0.04178  1.0000
  H   H412      1.0  0.16903  0.81307  0.06585  1.0000
  H   H413      1.0  0.15569  0.81956  0.14541  1.0000
  H   H414      1.0  0.15899  0.80777  0.18318  1.0000
  H   H415      1.0  0.16292  0.77004  0.19740  1.0000
  H   H416      1.0  0.16388  0.74381  0.17357  1.0000
  H   H417      1.0  0.16026  0.75519  0.13568  1.0000
  H   H418      1.0  0.11143  0.81956  0.11974  1.0000
  H   H419      1.0  0.09730  0.85696  0.11595  1.0000
  H   H420      1.0  0.12112  0.88349  0.10083  1.0000
  H   H421      1.0  0.15961  0.87218  0.09013  1.0000
  H   H422      1.0  0.17425  0.83473  0.09449  1.0000
  S   S80       1.0  0.35124  0.61918  0.02773  1.0000
  C   C532      1.0  0.09930  0.88698  0.02116  1.0000
  C   C533      1.0  0.43278  0.59955  0.06746  1.0000
  H   H423      1.0  0.46988  0.70403  0.12828  1.0000
  H   H424      1.0  0.41528  0.68359  0.99345  1.0000
  C   C534      1.0  0.46475  0.79965  0.20980  1.0000
  Fe  Fe39      1.0  0.42622  0.61145  0.99012  1.0000
  C   C535      1.0  0.14976  0.88143  0.98937  1.0000
  C   C536      1.0  0.46670  0.63893  0.01679  1.0000
  C   C537      1.0  0.43013  0.62014  0.07171  1.0000
  H   H425      1.0  0.24179  0.90544  0.17191  1.0000
  H   H426      1.0  0.42076  0.57760  0.05272  1.0000
  C   C538      1.0  0.04296  0.74888  0.11636  1.0000
  C   C539      1.0  0.99948  0.76600  0.21308  1.0000
  H   H427      1.0  0.45072  0.80996  0.20539  1.0000
  H   H428      1.0  0.02094  0.70290  0.22743  1.0000
  C   C540      1.0  0.01694  0.86256  0.19373  1.0000
  H   H429      1.0  0.20523  0.79203  0.17925  1.0000
  C   C541      1.0  0.02192  0.76263  0.08802  1.0000
  C   C542      1.0  0.18831  0.83315  0.20624  1.0000
  H   H430      1.0  0.25327  0.70984  0.22107  1.0000
  C   C543      1.0  0.23193  0.80919  0.16819  1.0000
  H   H431      1.0  0.02951  0.72662  0.14119  1.0000
  H   H432      1.0  0.47632  0.58635  0.15185  1.0000
  H   H433      1.0  0.23528  0.73559  0.05879  1.0000
  C   C544      1.0  0.21716  0.79645  0.16608  1.0000
  C   C545      1.0  0.21809  0.78865  0.14699  1.0000
  C   C546      1.0  0.23365  0.79362  0.12989  1.0000
  C   C547      1.0  0.24824  0.80647  0.13184  1.0000
  C   C548      1.0  0.24742  0.81422  0.15088  1.0000
  H   H434      1.0  0.39020  0.60275  0.04186  1.0000
  C   C549      1.0  0.99738  0.85507  0.19741  1.0000
  C   C550      1.0  0.30370  0.66306  0.22792  1.0000
  C   C551      1.0  0.48897  0.58501  0.16135  1.0000
  C   C552      1.0  0.29180  0.69814  0.18012  1.0000
  H   H435      1.0  0.21570  0.78646  0.22543  1.0000
  H   H436      1.0  0.04876  0.85778  0.20156  1.0000
  H   H437      1.0  0.45798  0.64711  0.00418  1.0000
  C   C553      1.0  0.48496  0.59311  0.18055  1.0000
  H   H438      1.0  0.11335  0.81904  0.18346  1.0000
  C   C554      1.0  0.20411  0.66991  0.21078  1.0000
  H   H439      1.0  0.20705  0.77833  0.14569  1.0000
  H   H440      1.0  0.23468  0.78741  0.11514  1.0000
  H   H441      1.0  0.26033  0.81027  0.11859  1.0000
  H   H442      1.0  0.25899  0.82403  0.15210  1.0000
  S   S81       1.0  0.48846  0.64261  0.15915  1.0000
  H   H443      1.0  0.00683  0.79671  0.20044  1.0000
  H   H444      1.0  0.04291  0.82724  0.22905  1.0000
  H   H445      1.0  0.47642  0.54463  0.08470  1.0000
  C   C555      1.0  0.01051  0.82765  0.22419  1.0000
  C   C556      1.0  0.19678  0.67391  0.23153  1.0000
  H   H446      1.0  0.05892  0.86629  0.05453  1.0000
  H   H447      1.0  0.44648  0.58866  0.07179  1.0000
  H   H448      1.0  0.45016  0.54820  0.05975  1.0000
  C   C557      1.0  0.38904  0.78569  0.14833  1.0000
  C   C558      1.0  0.39890  0.79207  0.16336  1.0000
  C   C559      1.0  0.41885  0.78182  0.16767  1.0000
  C   C560      1.0  0.42881  0.76494  0.15725  1.0000
  C   C561      1.0  0.41899  0.75840  0.14212  1.0000
  C   C562      1.0  0.39898  0.76891  0.13777  1.0000
  P   P18       1.0  0.43170  0.73599  0.12947  1.0000
  C   C563      1.0  0.45975  0.73753  0.12270  1.0000
  C   C564      1.0  0.42711  0.71218  0.14709  1.0000
  C   C565      1.0  0.42807  0.69363  0.13862  1.0000
  C   C566      1.0  0.42352  0.67527  0.15186  1.0000
  C   C567      1.0  0.41774  0.67537  0.17368  1.0000
  C   C568      1.0  0.41681  0.69377  0.18225  1.0000
  C   C569      1.0  0.42187  0.71202  0.16910  1.0000
  C   C570      1.0  0.30645  0.65387  0.99196  1.0000
  C   C571      1.0  0.46671  0.75712  0.11616  1.0000
  C   C572      1.0  0.42066  0.73567  0.10553  1.0000
  C   C573      1.0  0.43219  0.74053  0.08532  1.0000
  C   C574      1.0  0.42326  0.74017  0.06706  1.0000
  C   C575      1.0  0.40279  0.73506  0.06883  1.0000
  C   C576      1.0  0.39132  0.73002  0.08888  1.0000
  C   C577      1.0  0.40030  0.73013  0.10712  1.0000
  H   H449      1.0  0.37335  0.79334  0.14534  1.0000
  H   H450      1.0  0.39084  0.80460  0.17207  1.0000
  H   H451      1.0  0.42638  0.78669  0.17943  1.0000
  H   H452      1.0  0.44399  0.75674  0.16133  1.0000
  H   H453      1.0  0.39068  0.76407  0.12662  1.0000
  H   H454      1.0  0.43237  0.69347  0.12174  1.0000
  H   H455      1.0  0.42464  0.66093  0.14524  1.0000
  H   H456      1.0  0.41445  0.66111  0.18400  1.0000
  H   H457      1.0  0.41280  0.69378  0.19921  1.0000
  H   H458      1.0  0.42161  0.72588  0.17622  1.0000
  C   C578      1.0  0.47477  0.71933  0.12326  1.0000
  H   H459      1.0  0.45538  0.77135  0.11532  1.0000
  H   H460      1.0  0.44801  0.74463  0.08354  1.0000
  H   H461      1.0  0.43217  0.74400  0.05150  1.0000
  H   H462      1.0  0.39575  0.73517  0.05469  1.0000
  H   H463      1.0  0.37534  0.72621  0.09037  1.0000
  H   H464      1.0  0.39124  0.72617  0.12256  1.0000
  H   H465      1.0  0.15526  0.84353  0.21677  1.0000
  C   C579      1.0  0.20290  0.79937  0.22371  1.0000
  H   H466      1.0  0.27160  0.79250  0.18038  1.0000
  H   H467      1.0  0.26255  0.67871  0.16182  1.0000
  S   S82       1.0  0.46414  0.72692  0.19919  1.0000
  H   H468      1.0  0.46964  0.70130  0.05881  1.0000
  C   C580      1.0  0.29779  0.71795  0.17355  1.0000
  H   H469      1.0  0.01961  0.87580  0.18155  1.0000
  H   H470      1.0  0.44214  0.62468  0.07909  1.0000
  C   C581      1.0  0.08803  0.67370  0.20578  1.0000
  C   C582      1.0  0.47850  0.64981  0.02674  1.0000
  C   C583      1.0  0.47316  0.78266  0.19896  1.0000
  C   C584      1.0  0.46699  0.61733  0.02253  1.0000
  H   H471      1.0  0.00583  0.75876  0.99596  1.0000
  H   H472      1.0  0.04654  0.86635  0.02022  1.0000
  H   H473      1.0  0.46578  0.77974  0.18606  1.0000
  C   C585      1.0  0.32205  0.71107  0.22990  1.0000
  C   C586      1.0  0.28522  0.78509  0.22994  1.0000
  H   H474      1.0  0.99883  0.73651  0.18318  1.0000
  C   C587      1.0  0.22894  0.88013  0.16351  1.0000
  H   H475      1.0  0.14695  0.86542  0.99031  1.0000
  C   C588      1.0  0.47427  0.80313  0.22658  1.0000
  S   S83       1.0  0.40494  0.72410  0.23081  1.0000
  C   C589      1.0  0.27525  0.71297  0.02491  1.0000
  C   C590      1.0  0.10018  0.81065  0.19026  1.0000
  H   H476      1.0  0.30047  0.77497  0.20048  1.0000
  H   H477      1.0  0.37591  0.69817  0.06353  1.0000
  C   C591      1.0  0.48323  0.66541  0.17142  1.0000
  H   H478      1.0  0.05164  0.77240  0.09014  1.0000
  C   C592      1.0  0.23455  0.84666  0.18627  1.0000
  H   H479      1.0  0.25622  0.88392  0.20318  1.0000
  H   H480      1.0  0.46925  0.60092  0.18579  1.0000
  H   H481      1.0  0.47854  0.66643  0.02182  1.0000
  H   H482      1.0  0.18985  0.84690  0.19454  1.0000
  C   C593      1.0  0.17205  0.90572  0.99501  1.0000
  C   C594      1.0  0.26929  0.65806  0.98790  1.0000
  C   C595      1.0  0.26965  0.72379  0.00549  1.0000
  S   S84       1.0  0.42522  0.76777  0.22358  1.0000
  C   C596      1.0  0.10228  0.79470  0.20773  1.0000
  C   C597      1.0  0.37984  0.70797  0.02994  1.0000
  C   C598      1.0  0.08505  0.78418  0.21690  1.0000
  H   H483      1.0  0.30626  0.71848  0.22719  1.0000
  Fe  Fe40      1.0  0.37773  0.61634  0.00001  1.0000
  P   P19       1.0  0.06689  0.69484  0.21140  1.0000
  C   C599      1.0  0.07581  0.71893  0.19769  1.0000
  H   H484      1.0  0.36951  0.69395  0.20189  1.0000
  C   C600      1.0  0.16864  0.83129  0.21880  1.0000
  H   H485      1.0  0.46175  0.55197  0.02122  1.0000
  S   S85       1.0  0.19665  0.79053  0.99629  1.0000
  C   C601      1.0  0.01698  0.54788  0.22583  1.0000
  C   C602      1.0  0.04008  0.76211  0.09738  1.0000
  C   C603      1.0  0.06205  0.73463  0.18703  1.0000
  C   C604      1.0  0.06937  0.75305  0.17639  1.0000
  C   C605      1.0  0.09029  0.75603  0.17639  1.0000
  C   C606      1.0  0.10403  0.74056  0.18698  1.0000
  C   C607      1.0  0.09687  0.72206  0.19756  1.0000
  C   C608      1.0  0.04321  0.69163  0.20127  1.0000
  C   C609      1.0  0.02291  0.69702  0.21247  1.0000
  S   S86       1.0  0.40291  0.58824  0.99804  1.0000
  H   H486      1.0  0.11429  0.89194  0.02195  1.0000
  C   C610      1.0  0.02656  0.68308  0.17323  1.0000
  C   C611      1.0  0.04485  0.68476  0.18149  1.0000
  S   S87       1.0  0.45455  0.60226  0.00891  1.0000
  H   H487      1.0  0.01805  0.57944  0.20934  1.0000
  C   C612      1.0  0.23972  0.88910  0.17594  1.0000
  H   H488      1.0  0.47948  0.59023  0.04303  1.0000
  C   C613      1.0  0.26280  0.71711  0.04401  1.0000
  C   C614      1.0  0.00649  0.68820  0.18464  1.0000
  S   S88       1.0  0.40101  0.63917  0.99394  1.0000
  C   C615      1.0  0.33711  0.70630  0.21248  1.0000
  H   H489      1.0  0.27213  0.65866  0.13177  1.0000
  C   C616      1.0  0.40703  0.68695  0.00883  1.0000
  H   H490      1.0  0.04566  0.73289  0.18698  1.0000
  H   H491      1.0  0.05869  0.76537  0.16857  1.0000
  H   H492      1.0  0.09557  0.77070  0.16885  1.0000
  H   H493      1.0  0.12007  0.74318  0.18742  1.0000
  H   H494      1.0  0.10764  0.71032  0.20598  1.0000
  C   C617      1.0  0.48845  0.70102  0.17257  1.0000
  S   S89       1.0  0.13924  0.72605  0.22886  1.0000
  C   C618      1.0  0.30586  0.67560  0.98812  1.0000
  C   C619      1.0  0.27007  0.79374  0.19708  1.0000
  H   H495      1.0  0.06018  0.68089  0.17229  1.0000
  Fe  Fe41      1.0  0.17546  0.82159  0.99490  1.0000
  H   H496      1.0  0.29001  0.62185  0.13723  1.0000
  C   C620      1.0  0.39078  0.70389  0.01015  1.0000
  C   C621      1.0  0.20570  0.81733  0.20890  1.0000
  C   C622      1.0  0.03333  0.85248  0.20508  1.0000
  C   C623      1.0  0.03002  0.83520  0.22052  1.0000
  C   C624      1.0  0.27241  0.73150  0.20165  1.0000
  C   C625      1.0  0.26592  0.71178  0.20797  1.0000
  C   C626      1.0  0.27545  0.69496  0.19712  1.0000
  C   C627      1.0  0.48839  0.75849  0.11066  1.0000
  P   P20       1.0  0.26855  0.66902  0.20637  1.0000
  C   C628      1.0  0.27500  0.65367  0.18473  1.0000
  C   C629      1.0  0.16816  0.88523  0.99596  1.0000
  H   H497      1.0  0.19290  0.66822  0.20061  1.0000
  H   H498      1.0  0.29995  0.68543  0.17176  1.0000
  C   C630      1.0  0.28500  0.63284  0.18779  1.0000
  C   C631      1.0  0.29038  0.62140  0.17069  1.0000
  C   C632      1.0  0.28581  0.63067  0.15049  1.0000
  C   C633      1.0  0.27575  0.65134  0.14739  1.0000
  C   C634      1.0  0.27033  0.66273  0.16444  1.0000
  C   C635      1.0  0.24039  0.67097  0.21600  1.0000
  C   C636      1.0  0.09335  0.65704  0.22169  1.0000
  C   C637      1.0  0.06803  0.87246  0.03980  1.0000
  C   C638      1.0  0.28819  0.73463  0.18429  1.0000
  C   C639      1.0  0.25063  0.80610  0.22918  1.0000
  H   H499      1.0  0.30985  0.72038  0.16002  1.0000
  H   H500      1.0  0.12562  0.65863  0.16520  1.0000
  H   H501      1.0  0.25175  0.84683  0.21242  1.0000
  H   H502      1.0  0.01992  0.77320  0.07342  1.0000
  H   H503      1.0  0.23095  0.66577  0.18676  1.0000
  C   C640      1.0  0.09984  0.67412  0.18537  1.0000
  H   H504      1.0  0.09261  0.87939  0.05521  1.0000
  H   H505      1.0  0.28873  0.62539  0.20326  1.0000
  H   H506      1.0  0.29813  0.60535  0.17308  1.0000
  C   C641      1.0  0.22632  0.85903  0.16865  1.0000
  H   H507      1.0  0.09638  0.68698  0.17292  1.0000
  S   S90       1.0  0.01701  0.77117  0.15958  1.0000
  H   H508      1.0  0.28930  0.70129  0.02531  1.0000
  C   C642      1.0  0.01484  0.74473  0.02644  1.0000
  S   S91       1.0  0.19697  0.74809  0.21963  1.0000
  C   C643      1.0  0.10993  0.64101  0.21714  1.0000
  C   C644      1.0  0.49060  0.63931  0.04266  1.0000
  C   C645      1.0  0.00931  0.73690  0.11688  1.0000
  H   H509      1.0  0.05662  0.74903  0.12403  1.0000
  H   H510      1.0  0.11703  0.79084  0.21435  1.0000
  C   C646      1.0  0.06109  0.87246  0.02042  1.0000
  C   C647      1.0  0.02767  0.73618  0.12600  1.0000
  H   H511      1.0  0.05389  0.50588  0.21476  1.0000
  C   C648      1.0  0.07327  0.87961  0.00137  1.0000
  H   H512      1.0  0.32109  0.64383  0.99520  1.0000
  C   C649      1.0  0.05432  0.53728  0.19823  1.0000
  H   H513      1.0  0.99738  0.72753  0.12515  1.0000
  H   H514      1.0  0.13451  0.62920  0.19343  1.0000
  H   H515      1.0  0.48356  0.68410  0.09173  1.0000
  H   H516      1.0  0.24620  0.74721  0.99089  1.0000
  C   C650      1.0  0.12150  0.64153  0.19680  1.0000
  H   H517      1.0  0.17921  0.87222  0.00222  1.0000
  C   C651      1.0  0.46690  0.54777  0.05372  1.0000
  H   H518      1.0  0.01463  0.75838  0.20609  1.0000
  C   C652      1.0  0.35780  0.69725  0.21546  1.0000
  C   C653      1.0  0.04594  0.52190  0.21352  1.0000
  C   C654      1.0  0.33859  0.73925  0.98964  1.0000
  C   C655      1.0  0.00469  0.69506  0.20429  1.0000
  H   H519      1.0  0.02988  0.73660  0.01975  1.0000
  C   C656      1.0  0.00910  0.74285  0.04848  1.0000
  C   C657      1.0  0.99503  0.78783  0.21007  1.0000
  H   H520      1.0  0.32014  0.68200  0.98854  1.0000
  C   C658      1.0  0.31813  0.73381  0.99281  1.0000
  C   C659      1.0  0.48170  0.54575  0.06776  1.0000
  C   C660      1.0  0.28384  0.65717  0.22749  1.0000
  H   H521      1.0  0.31020  0.67448  0.21552  1.0000
  C   C661      1.0  0.47359  0.54969  0.03181  1.0000
  H   H522      1.0  0.18643  0.90854  0.99999  1.0000
  C   C662      1.0  0.00630  0.75010  0.09775  1.0000
  C   C663      1.0  0.99414  0.83728  0.21241  1.0000
  Fe  Fe42      1.0  0.39279  0.75822  0.23031  1.0000
  C   C664      1.0  0.02737  0.52716  0.22732  1.0000
  H   H523      1.0  0.01978  0.73310  0.05865  1.0000
  C   C665      1.0  0.00131  0.75722  0.01303  1.0000
  C   C666      1.0  0.28822  0.64509  0.99173  1.0000
  H   H524      1.0  0.10393  0.84856  0.98984  1.0000
  H   H525      1.0  0.11396  0.62830  0.22953  1.0000
  C   C667      1.0  0.26859  0.67982  0.98431  1.0000
  H   H526      1.0  0.99228  0.68705  0.17823  1.0000
  H   H527      1.0  0.16002  0.93842  0.98762  1.0000
  C   C668      1.0  0.15718  0.92250  0.98809  1.0000
  H   H528      1.0  0.06806  0.87874  0.98646  1.0000
  C   C669      1.0  0.99189  0.76393  0.16063  1.0000
  Fe  Fe43      1.0  0.34075  0.86537  0.45929  1.0000
  S   S92       1.0  0.36711  0.83858  0.46339  1.0000
  S   S93       1.0  0.31940  0.87163  0.43362  1.0000
  Fe  Fe44      1.0  0.38691  0.86331  0.46489  1.0000
  S   S94       1.0  0.42164  0.86238  0.45085  1.0000
  S   S95       1.0  0.36138  0.89022  0.45842  1.0000
  S   S96       1.0  0.12843  0.62775  0.44591  1.0000
  S   S97       1.0  0.21959  0.65422  0.44917  1.0000
  Fe  Fe45      1.0  0.29377  0.74764  0.36493  1.0000
  S   S98       1.0  0.29096  0.77689  0.34145  1.0000
  S   S99       1.0  0.32261  0.72309  0.36690  1.0000
  Fe  Fe46      1.0  0.24935  0.75810  0.38816  1.0000
  S   S100      1.0  0.24306  0.78846  0.36666  1.0000
  S   S101      1.0  0.22243  0.74997  0.41360  1.0000
  Fe  Fe47      1.0  0.25806  0.76995  0.34054  1.0000
  S   S102      1.0  0.24462  0.77273  0.30975  1.0000
  Fe  Fe48      1.0  0.27623  0.79266  0.36990  1.0000
  S   S103      1.0  0.28348  0.82499  0.37143  1.0000
  S   S104      1.0  0.26220  0.73921  0.36178  1.0000
  S   S105      1.0  0.28129  0.76383  0.39357  1.0000
  S   S106      1.0  0.45888  0.88282  0.35325  1.0000
  Fe  Fe49      1.0  0.42554  0.76386  0.25884  1.0000
  S   S107      1.0  0.43975  0.73002  0.26092  1.0000
  S   S108      1.0  0.43844  0.78906  0.27142  1.0000
  H   H529      1.0  0.19147  0.80691  0.44583  1.0000
  S   S109      1.0  0.08639  0.76494  0.23955  1.0000
  Fe  Fe50      1.0  0.40555  0.72439  0.26544  1.0000
  S   S110      1.0  0.39201  0.69923  0.28951  1.0000
  C   C670      1.0  0.03581  0.71432  0.38763  1.0000
  S   S111      1.0  0.39147  0.75800  0.26544  1.0000
  Fe  Fe51      1.0  0.13956  0.70459  0.25997  1.0000
  S   S112      1.0  0.11723  0.72646  0.27927  1.0000
  S   S113      1.0  0.13761  0.67040  0.26096  1.0000
  Fe  Fe52      1.0  0.14662  0.73857  0.28370  1.0000
  S   S114      1.0  0.15421  0.74451  0.31483  1.0000
  H   H530      1.0  0.30836  0.88309  0.39267  1.0000
  S   S115      1.0  0.16894  0.71462  0.26709  1.0000
  Fe  Fe53      1.0  0.02918  0.61773  0.38681  1.0000
  S   S116      1.0  0.04268  0.59255  0.36639  1.0000
  S   S117      1.0  0.03870  0.62091  0.41889  1.0000
  S   S118      1.0  0.00813  0.61406  0.33454  1.0000
  H   H531      1.0  0.29394  0.86526  0.36889  1.0000
  Fe  Fe54      1.0  0.04065  0.61882  0.33903  1.0000
  S   S119      1.0  0.06543  0.61774  0.30978  1.0000
  S   S120      1.0  0.02889  0.64427  0.35936  1.0000
  C   C671      1.0  0.01381  0.71438  0.39207  1.0000
  C   C672      1.0  0.11704  0.65702  0.27579  1.0000
  C   C673      1.0  0.11736  0.63639  0.27261  1.0000
  C   C674      1.0  0.10145  0.62484  0.28331  1.0000
  C   C675      1.0  0.08524  0.63342  0.29795  1.0000
  C   C676      1.0  0.08504  0.65395  0.30176  1.0000
  C   C677      1.0  0.10080  0.66589  0.29043  1.0000
  H   H532      1.0  0.12997  0.62930  0.26166  1.0000
  H   H533      1.0  0.10180  0.60901  0.28032  1.0000
  H   H534      1.0  0.07254  0.66069  0.31302  1.0000
  H   H535      1.0  0.10033  0.68185  0.29298  1.0000
  H   H536      1.0  0.04897  0.57646  0.44051  1.0000
  H   H537      1.0  0.03211  0.56940  0.25136  1.0000
  C   C678      1.0  0.45423  0.77190  0.30946  1.0000
  C   C679      1.0  0.45616  0.78594  0.29050  1.0000
  C   C680      1.0  0.47135  0.79955  0.28737  1.0000
  H   H538      1.0  0.44269  0.76122  0.31213  1.0000
  C   C681      1.0  0.46410  0.81028  0.41588  1.0000
  C   C682      1.0  0.34179  0.71785  0.34484  1.0000
  C   C683      1.0  0.35569  0.69901  0.34682  1.0000
  C   C684      1.0  0.37077  0.69353  0.32967  1.0000
  C   C685      1.0  0.37270  0.70716  0.31054  1.0000
  C   C686      1.0  0.35906  0.72627  0.30856  1.0000
  C   C687      1.0  0.34340  0.73153  0.32563  1.0000
  H   H539      1.0  0.35452  0.68836  0.36158  1.0000
  H   H540      1.0  0.38117  0.67875  0.33134  1.0000
  H   H541      1.0  0.36024  0.73678  0.29380  1.0000
  H   H542      1.0  0.33261  0.74604  0.32390  1.0000
  C   C688      1.0  0.21936  0.76509  0.31150  1.0000
  C   C689      1.0  0.20684  0.76058  0.33113  1.0000
  C   C690      1.0  0.18678  0.75447  0.33200  1.0000
  C   C691      1.0  0.17934  0.75239  0.31334  1.0000
  C   C692      1.0  0.19200  0.75659  0.29374  1.0000
  C   C693      1.0  0.21182  0.76319  0.29283  1.0000
  H   H543      1.0  0.21255  0.76195  0.34563  1.0000
  H   H544      1.0  0.17703  0.75131  0.34718  1.0000
  H   H545      1.0  0.18645  0.75495  0.27928  1.0000
  H   H546      1.0  0.22138  0.76675  0.27762  1.0000
  C   C694      1.0  0.10337  0.62445  0.43960  1.0000
  C   C695      1.0  0.08433  0.62788  0.45336  1.0000
  C   C696      1.0  0.06477  0.62671  0.44675  1.0000
  C   C697      1.0  0.06393  0.62198  0.42640  1.0000
  C   C698      1.0  0.08299  0.61827  0.41279  1.0000
  C   C699      1.0  0.10253  0.61940  0.41941  1.0000
  H   H547      1.0  0.08461  0.63175  0.46895  1.0000
  H   H548      1.0  0.05016  0.62959  0.45745  1.0000
  C   C700      1.0  0.22008  0.68068  0.43839  1.0000
  C   C701      1.0  0.23824  0.68680  0.42520  1.0000
  C   C702      1.0  0.23910  0.70803  0.41715  1.0000
  C   C703      1.0  0.22177  0.72315  0.42235  1.0000
  C   C704      1.0  0.20358  0.71691  0.43518  1.0000
  C   C705      1.0  0.20267  0.69579  0.44310  1.0000
  H   H549      1.0  0.25178  0.67515  0.42149  1.0000
  H   H550      1.0  0.25326  0.71271  0.40729  1.0000
  H   H551      1.0  0.19008  0.72843  0.43897  1.0000
  H   H552      1.0  0.18867  0.69135  0.45328  1.0000
  C   C706      1.0  0.43112  0.86913  0.42369  1.0000
  C   C707      1.0  0.45303  0.86508  0.41718  1.0000
  C   C708      1.0  0.46159  0.86948  0.39576  1.0000
  C   C709      1.0  0.44833  0.87805  0.38049  1.0000
  C   C710      1.0  0.42638  0.88290  0.38706  1.0000
  C   C711      1.0  0.41773  0.87825  0.40860  1.0000
  H   H553      1.0  0.46343  0.85811  0.42877  1.0000
  C   C712      1.0  0.00416  0.77672  0.27223  1.0000
  H   H554      1.0  0.41597  0.88986  0.37545  1.0000
  H   H555      1.0  0.40078  0.88155  0.41348  1.0000
  C   C713      1.0  0.31171  0.85632  0.41683  1.0000
  C   C714      1.0  0.30920  0.83508  0.42254  1.0000
  C   C715      1.0  0.30092  0.82474  0.40874  1.0000
  C   C716      1.0  0.29533  0.83566  0.38928  1.0000
  C   C717      1.0  0.29832  0.85662  0.38371  1.0000
  C   C718      1.0  0.30644  0.86679  0.39728  1.0000
  H   H556      1.0  0.31293  0.82691  0.43778  1.0000
  H   H557      1.0  0.29829  0.80865  0.41334  1.0000
  C   C719      1.0  0.02712  0.57326  0.28415  1.0000
  C   C720      1.0  0.29664  0.75443  0.28600  1.0000
  C   C721      1.0  0.33269  0.77106  0.26450  1.0000
  H   H558      1.0  0.25729  0.83855  0.41938  1.0000
  C   C722      1.0  0.24832  0.68748  0.35459  1.0000
  C   C723      1.0  0.24848  0.70219  0.33619  1.0000
  C   C724      1.0  0.22993  0.70908  0.32709  1.0000
  C   C725      1.0  0.21119  0.70118  0.33621  1.0000
  C   C726      1.0  0.21092  0.68610  0.35451  1.0000
  C   C727      1.0  0.22957  0.67952  0.36382  1.0000
  P   P21       1.0  0.18608  0.67763  0.36724  1.0000
  C   C728      1.0  0.17360  0.69477  0.38632  1.0000
  C   C729      1.0  0.16965  0.67905  0.34678  1.0000
  C   C730      1.0  0.14917  0.69053  0.34824  1.0000
  C   C731      1.0  0.13672  0.69167  0.33218  1.0000
  H   H559      1.0  0.07583  0.73925  0.31674  1.0000
  C   C732      1.0  0.16518  0.67042  0.31272  1.0000
  C   C733      1.0  0.17773  0.66933  0.32869  1.0000
  C   C734      1.0  0.15826  0.68798  0.40303  1.0000
  C   C735      1.0  0.14878  0.70103  0.41806  1.0000
  C   C736      1.0  0.15444  0.72096  0.41646  1.0000
  C   C737      1.0  0.16964  0.72786  0.39985  1.0000
  C   C738      1.0  0.17922  0.71482  0.38483  1.0000
  C   C739      1.0  0.19027  0.65125  0.38131  1.0000
  C   C740      1.0  0.19761  0.64778  0.40110  1.0000
  C   C741      1.0  0.19990  0.62771  0.41271  1.0000
  C   C742      1.0  0.18516  0.63422  0.37345  1.0000
  H   H560      1.0  0.26255  0.68271  0.36208  1.0000
  H   H561      1.0  0.26274  0.70886  0.32935  1.0000
  H   H562      1.0  0.22989  0.72109  0.31333  1.0000
  H   H563      1.0  0.19679  0.70740  0.32931  1.0000
  H   H564      1.0  0.22965  0.66868  0.37843  1.0000
  H   H565      1.0  0.14285  0.69884  0.36155  1.0000
  H   H566      1.0  0.17127  0.66284  0.29880  1.0000
  H   H567      1.0  0.19373  0.66090  0.32698  1.0000
  H   H568      1.0  0.15393  0.67243  0.40476  1.0000
  H   H569      1.0  0.13747  0.69543  0.43125  1.0000
  H   H570      1.0  0.14747  0.73086  0.42838  1.0000
  H   H571      1.0  0.17460  0.74304  0.39895  1.0000
  H   H572      1.0  0.19126  0.72037  0.37237  1.0000
  H   H573      1.0  0.20133  0.66064  0.40778  1.0000
  H   H574      1.0  0.17912  0.63624  0.35851  1.0000
  H   H575      1.0  0.28194  0.62108  0.27228  1.0000
  C   C743      1.0  0.05295  0.69629  0.28375  1.0000
  H   H576      1.0  0.28245  0.74830  0.29424  1.0000
  C   C744      1.0  0.99258  0.76016  0.28082  1.0000
  C   C745      1.0  0.26896  0.90894  0.40607  1.0000
  P   P22       1.0  0.30916  0.71530  0.27268  1.0000
  C   C746      1.0  0.27135  0.73301  0.25684  1.0000
  C   C747      1.0  0.47685  0.94086  0.43751  1.0000
  H   H577      1.0  0.42546  0.93593  0.41604  1.0000
  H   H578      1.0  0.24994  0.72302  0.46378  1.0000
  C   C748      1.0  0.06146  0.69552  0.23973  1.0000
  C   C749      1.0  0.08881  0.55347  0.46905  1.0000
  H   H579      1.0  0.26235  0.88964  0.45856  1.0000
  C   C750      1.0  0.04972  0.69557  0.39135  1.0000
  H   H580      1.0  0.48697  0.90250  0.37465  1.0000
  C   C751      1.0  0.46668  0.77236  0.32545  1.0000
  C   C752      1.0  0.31324  0.69766  0.29691  1.0000
  C   C753      1.0  0.30636  0.70446  0.31673  1.0000
  C   C754      1.0  0.30754  0.69029  0.33544  1.0000
  C   C755      1.0  0.31619  0.66940  0.33459  1.0000
  C   C756      1.0  0.32315  0.66247  0.31496  1.0000
  C   C757      1.0  0.32139  0.67645  0.29619  1.0000
  H   H581      1.0  0.00358  0.78212  0.31475  1.0000
  C   C758      1.0  0.45293  0.78796  0.44858  1.0000
  C   C759      1.0  0.31548  0.65408  0.24434  1.0000
  H   H582      1.0  0.23530  0.87395  0.40736  1.0000
  H   H583      1.0  0.25443  0.89940  0.38220  1.0000
  C   C760      1.0  0.33093  0.75015  0.26409  1.0000
  C   C761      1.0  0.99284  0.56732  0.30383  1.0000
  H   H584      1.0  0.42451  0.76980  0.43261  1.0000
  C   C762      1.0  0.22013  0.80649  0.42337  1.0000
  H   H585      1.0  0.30000  0.72064  0.31794  1.0000
  H   H586      1.0  0.30215  0.69565  0.35069  1.0000
  H   H587      1.0  0.31765  0.65868  0.34919  1.0000
  H   H588      1.0  0.32995  0.64627  0.31432  1.0000
  C   C763      1.0  0.34871  0.69841  0.25322  1.0000
  C   C764      1.0  0.48487  0.77662  0.42503  1.0000
  C   C765      1.0  0.44967  0.80659  0.43439  1.0000
  C   C766      1.0  0.01938  0.67719  0.40453  1.0000
  H   H589      1.0  0.12076  0.67186  0.38916  1.0000
  C   C767      1.0  0.31637  0.78371  0.27540  1.0000
  C   C768      1.0  0.25375  0.78207  0.45965  1.0000
  C   C769      1.0  0.26878  0.76932  0.44751  1.0000
  C   C770      1.0  0.26720  0.74809  0.44897  1.0000
  C   C771      1.0  0.25089  0.73948  0.46297  1.0000
  H   H590      1.0  0.99453  0.64582  0.25932  1.0000
  H   H591      1.0  0.24023  0.68800  0.28509  1.0000
  C   C772      1.0  0.01326  0.57202  0.30324  1.0000
  H   H592      1.0  0.25493  0.79853  0.45846  1.0000
  H   H593      1.0  0.28148  0.77597  0.43679  1.0000
  H   H594      1.0  0.27855  0.73824  0.43922  1.0000
  C   C773      1.0  0.09425  0.70130  0.45226  1.0000
  C   C774      1.0  0.40765  0.83208  0.39848  1.0000
  C   C775      1.0  0.39087  0.82645  0.41380  1.0000
  C   C776      1.0  0.37000  0.83213  0.40948  1.0000
  C   C777      1.0  0.36598  0.84290  0.38960  1.0000
  C   C778      1.0  0.38286  0.84831  0.37397  1.0000
  C   C779      1.0  0.40367  0.84326  0.37882  1.0000
  P   P23       1.0  0.37760  0.86411  0.34911  1.0000
  C   C780      1.0  0.39994  0.85891  0.32873  1.0000
  C   C781      1.0  0.35405  0.85782  0.34138  1.0000
  C   C782      1.0  0.34968  0.83711  0.34546  1.0000
  C   C783      1.0  0.33114  0.83233  0.34006  1.0000
  C   C784      1.0  0.31713  0.84801  0.33004  1.0000
  C   C785      1.0  0.32158  0.86857  0.32550  1.0000
  C   C786      1.0  0.33996  0.87350  0.33119  1.0000
  C   C787      1.0  0.39957  0.84510  0.31434  1.0000
  C   C788      1.0  0.41760  0.83994  0.29979  1.0000
  C   C789      1.0  0.43595  0.84882  0.29920  1.0000
  C   C790      1.0  0.43622  0.86306  0.31299  1.0000
  C   C791      1.0  0.41834  0.86806  0.32769  1.0000
  C   C792      1.0  0.37360  0.89124  0.35304  1.0000
  C   C793      1.0  0.37887  0.90681  0.33607  1.0000
  C   C794      1.0  0.37608  0.92777  0.33923  1.0000
  C   C795      1.0  0.36781  0.93335  0.35927  1.0000
  C   C796      1.0  0.36221  0.91800  0.37614  1.0000
  C   C797      1.0  0.36501  0.89704  0.37306  1.0000
  H   H595      1.0  0.42375  0.82848  0.40202  1.0000
  H   H596      1.0  0.39403  0.81833  0.42925  1.0000
  H   H597      1.0  0.35689  0.82871  0.42173  1.0000
  H   H598      1.0  0.34968  0.84755  0.38671  1.0000
  H   H599      1.0  0.41694  0.84826  0.36771  1.0000
  H   H600      1.0  0.36041  0.82471  0.35306  1.0000
  H   H601      1.0  0.32722  0.81657  0.34423  1.0000
  H   H602      1.0  0.30251  0.84427  0.32639  1.0000
  H   H603      1.0  0.31056  0.88074  0.31795  1.0000
  H   H604      1.0  0.34301  0.88955  0.32776  1.0000
  H   H605      1.0  0.38565  0.83782  0.31459  1.0000
  H   H606      1.0  0.41757  0.82881  0.28912  1.0000
  H   H607      1.0  0.45003  0.84456  0.28816  1.0000
  H   H608      1.0  0.45045  0.86997  0.31258  1.0000
  H   H609      1.0  0.41912  0.87875  0.33857  1.0000
  H   H610      1.0  0.38523  0.90278  0.32042  1.0000
  H   H611      1.0  0.38042  0.93968  0.32614  1.0000
  H   H612      1.0  0.36574  0.94957  0.36173  1.0000
  H   H613      1.0  0.35575  0.92226  0.39170  1.0000
  H   H614      1.0  0.36046  0.88551  0.38642  1.0000
  H   H615      1.0  0.17993  0.67516  0.23746  1.0000
  H   H616      1.0  0.13821  0.74908  0.46120  1.0000
  H   H617      1.0  0.15777  0.91287  0.48250  1.0000
  H   H618      1.0  0.00189  0.81264  0.33306  1.0000
  H   H619      1.0  0.00081  0.66881  0.31607  1.0000
  H   H620      1.0  0.12101  0.70066  0.33320  1.0000
  H   H621      1.0  0.10140  0.66765  0.45650  1.0000
  C   C798      1.0  0.09941  0.74665  0.33318  1.0000
  H   H622      1.0  0.11099  0.72268  0.38157  1.0000
  H   H623      1.0  0.27753  0.91998  0.39495  1.0000
  C   C799      1.0  0.09265  0.64393  0.35570  1.0000
  H   H624      1.0  0.46024  0.92334  0.39704  1.0000
  H   H625      1.0  0.99985  0.68644  0.27890  1.0000
  P   P24       1.0  0.07809  0.69532  0.38667  1.0000
  H   H626      1.0  0.02223  0.72234  0.25394  1.0000
  H   H627      1.0  0.07862  0.72150  0.23914  1.0000
  C   C800      1.0  0.25602  0.89729  0.39891  1.0000
  C   C801      1.0  0.20572  0.81401  0.44002  1.0000
  C   C802      1.0  0.40947  0.77373  0.44238  1.0000
  C   C803      1.0  0.09618  0.68161  0.44595  1.0000
  C   C804      1.0  0.45698  0.94814  0.44817  1.0000
  H   H628      1.0  0.11680  0.58205  0.47187  1.0000
  C   C805      1.0  0.20934  0.87701  0.46303  1.0000
  C   C806      1.0  0.30757  0.63909  0.26042  1.0000
  C   C807      1.0  0.48155  0.78646  0.32241  1.0000
  Fe  Fe55      1.0  0.00877  0.58977  0.36344  1.0000
  H   H629      1.0  0.46164  0.82470  0.40501  1.0000
  H   H630      1.0  0.13961  0.64049  0.37430  1.0000
  H   H631      1.0  0.19840  0.76928  0.45976  1.0000
  H   H632      1.0  0.10375  0.54307  0.46735  1.0000
  H   H633      1.0  0.06373  0.71224  0.34584  1.0000
  H   H634      1.0  0.01310  0.66274  0.41120  1.0000
  C   C808      1.0  0.43982  0.93771  0.42183  1.0000
  H   H635      1.0  0.46763  0.81617  0.23510  1.0000
  C   C809      1.0  0.39076  0.77088  0.43564  1.0000
  H   H636      1.0  0.34664  0.77753  0.25603  1.0000
  C   C810      1.0  0.08550  0.71641  0.36647  1.0000
  C   C811      1.0  0.26710  0.79594  0.24044  1.0000
  H   H637      1.0  0.38938  0.92071  0.48085  1.0000
  H   H638      1.0  0.04288  0.57718  0.28381  1.0000
  C   C812      1.0  0.27118  0.90604  0.42758  1.0000
  H   H639      1.0  0.10520  0.75800  0.32016  1.0000
  C   C813      1.0  0.31277  0.74166  0.27477  1.0000
  C   C814      1.0  0.41836  0.71429  0.32735  1.0000
  C   C815      1.0  0.41976  0.69866  0.34486  1.0000
  C   C816      1.0  0.41235  0.70353  0.36531  1.0000
  C   C817      1.0  0.40350  0.72403  0.36823  1.0000
  C   C818      1.0  0.40155  0.73976  0.35065  1.0000
  C   C819      1.0  0.40920  0.73471  0.33017  1.0000
  P   P25       1.0  0.39094  0.76647  0.35438  1.0000
  C   C820      1.0  0.36989  0.76758  0.37655  1.0000
  C   C821      1.0  0.41207  0.77873  0.36016  1.0000
  C   C822      1.0  0.42513  0.76819  0.37518  1.0000
  C   C823      1.0  0.44167  0.77741  0.37960  1.0000
  C   C824      1.0  0.44548  0.79705  0.36882  1.0000
  C   C825      1.0  0.43255  0.80765  0.35397  1.0000
  C   C826      1.0  0.41547  0.79888  0.35021  1.0000
  C   C827      1.0  0.36470  0.78562  0.38648  1.0000
  C   C828      1.0  0.34702  0.78757  0.40218  1.0000
  C   C829      1.0  0.33465  0.77143  0.40834  1.0000
  C   C830      1.0  0.33985  0.75337  0.39868  1.0000
  C   C831      1.0  0.35723  0.75154  0.38265  1.0000
  C   C832      1.0  0.37942  0.77949  0.33098  1.0000
  C   C833      1.0  0.35755  0.78060  0.33049  1.0000
  C   C834      1.0  0.34858  0.79063  0.31250  1.0000
  C   C835      1.0  0.36132  0.79957  0.29480  1.0000
  C   C836      1.0  0.38312  0.79814  0.29495  1.0000
  C   C837      1.0  0.39219  0.78792  0.31282  1.0000
  H   H640      1.0  0.42396  0.71049  0.31147  1.0000
  H   H641      1.0  0.42642  0.68277  0.34250  1.0000
  H   H642      1.0  0.41338  0.69137  0.37888  1.0000
  H   H643      1.0  0.39802  0.72751  0.38420  1.0000
  H   H644      1.0  0.40806  0.74636  0.31624  1.0000
  H   H645      1.0  0.42277  0.75277  0.38331  1.0000
  H   H646      1.0  0.45208  0.76907  0.39076  1.0000
  H   H647      1.0  0.45885  0.80384  0.37147  1.0000
  H   H648      1.0  0.43600  0.82259  0.34517  1.0000
  H   H649      1.0  0.40518  0.80779  0.33939  1.0000
  H   H650      1.0  0.37403  0.79834  0.38181  1.0000
  H   H651      1.0  0.34276  0.80167  0.40947  1.0000
  H   H652      1.0  0.32089  0.77298  0.42043  1.0000
  H   H653      1.0  0.33002  0.74099  0.40312  1.0000
  H   H654      1.0  0.36029  0.73788  0.37459  1.0000
  H   H655      1.0  0.34731  0.77353  0.34382  1.0000
  H   H656      1.0  0.33172  0.79133  0.31236  1.0000
  H   H657      1.0  0.35445  0.80722  0.28078  1.0000
  H   H658      1.0  0.39315  0.80444  0.28095  1.0000
  H   H659      1.0  0.40922  0.78642  0.31230  1.0000
  C   C838      1.0  0.07706  0.55858  0.45206  1.0000
  H   H660      1.0  0.07673  0.73147  0.40859  1.0000
  C   C839      1.0  0.04579  0.68111  0.27498  1.0000
  C   C840      1.0  0.15328  0.74713  0.46710  1.0000
  H   H661      1.0  0.04191  0.72891  0.38156  1.0000
  H   H662      1.0  0.29821  0.77755  0.23849  1.0000
  C   C841      1.0  0.19198  0.88093  0.45165  1.0000
  C   C842      1.0  0.32765  0.70684  0.25047  1.0000
  C   C843      1.0  0.04995  0.68075  0.25306  1.0000
  C   C844      1.0  0.24978  0.73427  0.25530  1.0000
  C   C845      1.0  0.02086  0.56893  0.26579  1.0000
  Fe  Fe56      1.0  0.18976  0.64662  0.47093  1.0000
  C   C846      1.0  0.11352  0.63634  0.35925  1.0000
  C   C847      1.0  0.28797  0.63287  0.25993  1.0000
  C   C848      1.0  0.45968  0.93066  0.41099  1.0000
  H   H663      1.0  0.09240  0.66446  0.42165  1.0000
  C   C849      1.0  0.48162  0.79529  0.41115  1.0000
  H   H664      1.0  0.13507  0.68254  0.30211  1.0000
  H   H665      1.0  0.00309  0.72882  0.38912  1.0000
  H   H666      1.0  0.21710  0.79360  0.41630  1.0000
  H   H667      1.0  0.46464  0.76193  0.34027  1.0000
  H   H668      1.0  0.07070  0.72232  0.27744  1.0000
  C   C850      1.0  0.17339  0.89371  0.45875  1.0000
  C   C851      1.0  0.05788  0.57215  0.45385  1.0000
  H   H669      1.0  0.01606  0.70620  0.34225  1.0000
  C   C852      1.0  0.08249  0.71748  0.41874  1.0000
  C   C853      1.0  0.12936  0.57245  0.47985  1.0000
  C   C854      1.0  0.08290  0.73604  0.33127  1.0000
  Fe  Fe57      1.0  0.11823  0.74878  0.24857  1.0000
  H   H670      1.0  0.31672  0.63213  0.27315  1.0000
  C   C855      1.0  0.27060  0.69914  0.27853  1.0000
  H   H671      1.0  0.42455  0.89939  0.47291  1.0000
  C   C856      1.0  0.06927  0.71022  0.24881  1.0000
  C   C857      1.0  0.47842  0.93248  0.41855  1.0000
  H   H672      1.0  0.45587  0.95460  0.46277  1.0000
  H   H673      1.0  0.25002  0.80937  0.40337  1.0000
  H   H674      1.0  0.04388  0.75101  0.24033  1.0000
  C   C858      1.0  0.08733  0.71924  0.43868  1.0000
  H   H675      1.0  0.19285  0.87424  0.43722  1.0000
  H   H676      1.0  0.22176  0.71927  0.26442  1.0000
  C   C859      1.0  0.23867  0.81542  0.41603  1.0000
  H   H677      1.0  0.08508  0.65638  0.23774  1.0000
  C   C860      1.0  0.00561  0.69581  0.40053  1.0000
  H   H678      1.0  0.03733  0.66937  0.28523  1.0000
  C   C861      1.0  0.08496  0.69775  0.41209  1.0000
  H   H679      1.0  0.03239  0.78568  0.25190  1.0000
  C   C862      1.0  0.02280  0.77328  0.25789  1.0000
  C   C863      1.0  0.09165  0.67175  0.37667  1.0000
  P   P26       1.0  0.23352  0.86109  0.45348  1.0000
  C   C864      1.0  0.11270  0.66416  0.37995  1.0000
  H   H680      1.0  0.19609  0.59550  0.41415  1.0000
  C   C865      1.0  0.04135  0.67709  0.40013  1.0000
  H   H681      1.0  0.03564  0.59130  0.47380  1.0000
  H   H682      1.0  0.28572  0.78517  0.29469  1.0000
  H   H683      1.0  0.35673  0.77254  0.44346  1.0000
  Fe  Fe58      1.0  0.14519  0.63489  0.47226  1.0000
  C   C866      1.0  0.99895  0.74072  0.27360  1.0000
  H   H684      1.0  0.27820  0.68549  0.28784  1.0000
  H   H685      1.0  0.08292  0.55229  0.43735  1.0000
  H   H686      1.0  0.99718  0.52130  0.28011  1.0000
  H   H687      1.0  0.12183  0.62253  0.35270  1.0000
  C   C867      1.0  0.24271  0.83202  0.42510  1.0000
  H   H688      1.0  0.18302  0.60118  0.37927  1.0000
  H   H689      1.0  0.08270  0.61448  0.39717  1.0000
  H   H690      1.0  0.31757  0.80000  0.27536  1.0000
  C   C868      1.0  0.37031  0.78282  0.46739  1.0000
  C   C869      1.0  0.36359  0.69329  0.23584  1.0000
  H   H691      1.0  0.35385  0.69633  0.26871  1.0000
  H   H692      1.0  0.33081  0.65873  0.24449  1.0000
  C   C870      1.0  0.24542  0.88263  0.41321  1.0000
  H   H693      1.0  0.04437  0.66881  0.24655  1.0000
  H   H694      1.0  0.26583  0.79655  0.25732  1.0000
  C   C871      1.0  0.99635  0.73118  0.32521  1.0000
  C   C872      1.0  0.20978  0.83054  0.44922  1.0000
  S   S121      1.0  0.17801  0.61632  0.47125  1.0000
  S   S122      1.0  0.99528  0.61279  0.38614  1.0000
  H   H695      1.0  0.12249  0.74972  0.35258  1.0000
  S   S123      1.0  0.14526  0.76312  0.25509  1.0000
  H   H696      1.0  0.00837  0.81394  0.23577  1.0000
  H   H697      1.0  0.34376  0.74091  0.25521  1.0000
  H   H698      1.0  0.20555  0.62521  0.42798  1.0000
  H   H699      1.0  0.43593  0.81825  0.43763  1.0000
  C   C873      1.0  0.00001  0.71366  0.34052  1.0000
  H   H700      1.0  0.01843  0.57452  0.31766  1.0000
  C   C874      1.0  0.24902  0.70045  0.27697  1.0000
  C   C875      1.0  0.43846  0.94661  0.44031  1.0000
  C   C876      1.0  0.07605  0.72085  0.34780  1.0000
  H   H701      1.0  0.11713  0.61651  0.40871  1.0000
  P   P27       1.0  0.43317  0.78249  0.47145  1.0000
  H   H702      1.0  0.16423  0.77360  0.44609  1.0000
  C   C877      1.0  0.23600  0.75209  0.47562  1.0000
  C   C878      1.0  0.23858  0.71805  0.26544  1.0000
  S   S124      1.0  0.15752  0.66561  0.46991  1.0000
  C   C879      1.0  0.18729  0.61419  0.38524  1.0000
  C   C880      1.0  0.22808  0.83998  0.44146  1.0000
  C   C881      1.0  0.19463  0.61094  0.40488  1.0000
  H   H703      1.0  0.00986  0.73733  0.31540  1.0000
  C   C882      1.0  0.28191  0.71560  0.26872  1.0000
  C   C883      1.0  0.29842  0.77536  0.28624  1.0000
  H   H704      1.0  0.04977  0.69648  0.30073  1.0000
  C   C884      1.0  0.14468  0.68153  0.31455  1.0000
  C   C885      1.0  0.08182  0.66171  0.36416  1.0000
  H   H705      1.0  0.08554  0.73448  0.44371  1.0000
  H   H706      1.0  0.27913  0.85194  0.45793  1.0000
  C   C886      1.0  0.16782  0.76105  0.45877  1.0000
  C   C887      1.0  0.24797  0.87927  0.43479  1.0000
  C   C888      1.0  0.12354  0.64649  0.37133  1.0000
  C   C889      1.0  0.06482  0.71072  0.27069  1.0000
  H   H707      1.0  0.08485  0.63593  0.34645  1.0000
  C   C890      1.0  0.09134  0.67984  0.42605  1.0000
  H   H708      1.0  0.99697  0.61796  0.29038  1.0000
  H   H709      1.0  0.47315  0.81042  0.27285  1.0000
  C   C891      1.0  0.10916  0.74200  0.35153  1.0000
  C   C892      1.0  0.18723  0.75856  0.46655  1.0000
  H   H710      1.0  0.39141  0.76503  0.42077  1.0000
  H   H711      1.0  0.06580  0.66754  0.36091  1.0000
  C   C893      1.0  0.10247  0.72674  0.36800  1.0000
  H   H712      1.0  0.47852  0.86640  0.39118  1.0000
  H   H713      1.0  0.05179  0.66258  0.40372  1.0000
  S   S125      1.0  0.99902  0.55814  0.36110  1.0000
  H   H714      1.0  0.32633  0.67063  0.28119  1.0000
  H   H715      1.0  0.15106  0.81224  0.24392  1.0000
  H   H716      1.0  0.18325  0.56582  0.47608  1.0000
  H   H717      1.0  0.15377  0.58580  0.45737  1.0000
  C   C894      1.0  0.37121  0.77523  0.44828  1.0000
  H   H718      1.0  0.99914  0.79212  0.27678  1.0000
  H   H719      1.0  0.28157  0.91472  0.43311  1.0000
  C   C895      1.0  0.18341  0.79781  0.23654  1.0000
  C   C896      1.0  0.26053  0.89147  0.44194  1.0000
  H   H720      1.0  0.35518  0.78619  0.47726  1.0000
  C   C897      1.0  0.15040  0.57476  0.47159  1.0000
  C   C898      1.0  0.02943  0.75364  0.25141  1.0000
  C   C899      1.0  0.01734  0.73748  0.25907  1.0000
  H   H721      1.0  0.42304  0.95192  0.44877  1.0000
  C   C900      1.0  0.23714  0.77362  0.47327  1.0000
  C   C901      1.0  0.47060  0.77291  0.44365  1.0000
  H   H722      1.0  0.47332  0.75815  0.45389  1.0000
  H   H723      1.0  0.48806  0.89648  0.44552  1.0000
  C   C902      1.0  0.16624  0.81369  0.23407  1.0000
  H   H724      1.0  0.44821  0.82345  0.46960  1.0000
  C   C903      1.0  0.05037  0.58053  0.47267  1.0000
  C   C904      1.0  0.48438  0.79931  0.30285  1.0000
  C   C905      1.0  0.00056  0.56348  0.26644  1.0000
  Fe  Fe59      1.0  0.99644  0.63714  0.35709  1.0000
  C   C906      1.0  0.38892  0.78587  0.47409  1.0000
  C   C907      1.0  0.40872  0.78114  0.46178  1.0000
  H   H725      1.0  0.09800  0.70258  0.46772  1.0000
  H   H726      1.0  0.41870  0.74093  0.47764  1.0000
  C   C908      1.0  0.23282  0.67509  0.23679  1.0000
  H   H727      1.0  0.16000  0.89661  0.44997  1.0000
  H   H728      1.0  0.18171  0.78407  0.24827  1.0000
  H   H729      1.0  0.48633  0.91209  0.33609  1.0000
  P   P28       1.0  0.99321  0.55489  0.24380  1.0000
  H   H730      1.0  0.23687  0.81474  0.23753  1.0000
  C   C909      1.0  0.24769  0.84890  0.47527  1.0000
  H   H731      1.0  0.19866  0.83587  0.46239  1.0000
  C   C910      1.0  0.16698  0.56345  0.48202  1.0000
  C   C911      1.0  0.26996  0.84657  0.47290  1.0000
  H   H732      1.0  0.37981  0.68694  0.23818  1.0000
  H   H733      1.0  0.21657  0.70135  0.47873  1.0000
  H   H734      1.0  0.20541  0.67971  0.26057  1.0000
  H   H735      1.0  0.24159  0.74793  0.24643  1.0000
  H   H736      1.0  0.02126  0.51502  0.23915  1.0000
  H   H737      1.0  0.27969  0.74581  0.24912  1.0000
  Fe  Fe60      1.0  0.16643  0.73835  0.23802  1.0000
  C   C912      1.0  0.21114  0.67649  0.24453  1.0000
  C   C913      1.0  0.27620  0.64176  0.24344  1.0000
  H   H738      1.0  0.24372  0.67728  0.24699  1.0000
  H   H739      1.0  0.22538  0.78388  0.48217  1.0000
  C   C914      1.0  0.19223  0.74212  0.48272  1.0000
  C   C915      1.0  0.17215  0.90291  0.47704  1.0000
  C   C916      1.0  0.15826  0.73058  0.48302  1.0000
  H   H740      1.0  0.26117  0.63658  0.24314  1.0000
  C   C917      1.0  0.20817  0.88672  0.48109  1.0000
  C   C918      1.0  0.42273  0.91136  0.48312  1.0000
  H   H741      1.0  0.49089  0.94135  0.44435  1.0000
  H   H742      1.0  0.42823  0.89027  0.58259  1.0000
  C   C919      1.0  0.00693  0.50648  0.67406  1.0000
  S   S126      1.0  0.34293  0.91638  0.51017  1.0000
  C   C920      1.0  0.07918  0.48156  0.71184  1.0000
  S   S127      1.0  0.35626  0.81037  0.52280  1.0000
  H   H743      1.0  0.47739  0.73522  0.52019  1.0000
  Fe  Fe61      1.0  0.15526  0.65955  0.50566  1.0000
  S   S128      1.0  0.18813  0.64234  0.50633  1.0000
  S   S129      1.0  0.14361  0.68554  0.52597  1.0000
  H   H744      1.0  0.45502  0.90482  0.48861  1.0000
  H   H745      1.0  0.09113  0.48063  0.72210  1.0000
  Fe  Fe62      1.0  0.17296  0.61375  0.50675  1.0000
  S   S130      1.0  0.18517  0.58378  0.52708  1.0000
  C   C921      1.0  0.08590  0.51574  0.51538  1.0000
  S   S131      1.0  0.13946  0.63058  0.50825  1.0000
  C   C922      1.0  0.44295  0.89356  0.57268  1.0000
  Fe  Fe63      1.0  0.26202  0.74780  0.57523  1.0000
  S   S132      1.0  0.22941  0.76275  0.58782  1.0000
  S   S133      1.0  0.27575  0.76232  0.54234  1.0000
  Fe  Fe64      1.0  0.26161  0.71259  0.61272  1.0000
  S   S134      1.0  0.22898  0.72511  0.62729  1.0000
  S   S135      1.0  0.28087  0.68429  0.62930  1.0000
  Fe  Fe65      1.0  0.22087  0.73015  0.59397  1.0000
  S   S136      1.0  0.18823  0.72496  0.58837  1.0000
  Fe  Fe66      1.0  0.24080  0.75630  0.61950  1.0000
  S   S137      1.0  0.23176  0.77874  0.64388  1.0000
  S   S138      1.0  0.25284  0.71539  0.57981  1.0000
  S   S139      1.0  0.27409  0.74354  0.60670  1.0000
  Fe  Fe67      1.0  0.13490  0.50262  0.61595  1.0000
  S   S140      1.0  0.10994  0.49562  0.64383  1.0000
  S   S141      1.0  0.12305  0.53038  0.59263  1.0000
  C   C923      1.0  0.17068  0.64541  0.58384  1.0000
  C   C924      1.0  0.46249  0.88410  0.57884  1.0000
  C   C925      1.0  0.14105  0.60896  0.67388  1.0000
  H   H746      1.0  0.10595  0.49971  0.57017  1.0000
  H   H747      1.0  0.07222  0.52660  0.58652  1.0000
  Fe  Fe68      1.0  0.13667  0.49053  0.66340  1.0000
  S   S142      1.0  0.13007  0.50163  0.69571  1.0000
  P   P29       1.0  0.45960  0.93297  0.51862  1.0000
  S   S143      1.0  0.16110  0.49979  0.63593  1.0000
  H   H748      1.0  0.30359  0.93100  0.71403  1.0000
  H   H749      1.0  0.29779  0.83629  0.48836  1.0000
  S   S144      1.0  0.39375  0.93762  0.57882  1.0000
  H   H750      1.0  0.10791  0.59801  0.50960  1.0000
  S   S145      1.0  0.40195  0.94280  0.67603  1.0000
  Fe  Fe69      1.0  0.31996  0.86358  0.71673  1.0000
  S   S146      1.0  0.30289  0.88079  0.69031  1.0000
  C   C926      1.0  0.46110  0.91288  0.54140  1.0000
  Fe  Fe70      1.0  0.29139  0.85027  0.68994  1.0000
  S   S147      1.0  0.29526  0.83748  0.65883  1.0000
  C   C927      1.0  0.25545  0.76651  0.72783  1.0000
  C   C928      1.0  0.38762  0.92182  0.68680  1.0000
  C   C929      1.0  0.39759  0.90506  0.69979  1.0000
  C   C930      1.0  0.38696  0.88820  0.70936  1.0000
  C   C931      1.0  0.36595  0.88806  0.70658  1.0000
  C   C932      1.0  0.35565  0.90494  0.69380  1.0000
  C   C933      1.0  0.36657  0.92175  0.68370  1.0000
  H   H751      1.0  0.41375  0.90505  0.70237  1.0000
  H   H752      1.0  0.39501  0.87529  0.71920  1.0000
  C   C934      1.0  0.09657  0.59427  0.52354  1.0000
  C   C935      1.0  0.04341  0.49343  0.70354  1.0000
  C   C936      1.0  0.16253  0.54958  0.50055  1.0000
  H   H753      1.0  0.29961  0.95357  0.64844  1.0000
  C   C937      1.0  0.04340  0.50102  0.64004  1.0000
  C   C938      1.0  0.28066  0.83752  0.49009  1.0000
  H   H754      1.0  0.23085  0.66485  0.49088  1.0000
  S   S148      1.0  0.41862  0.96160  0.61550  1.0000
  H   H755      1.0  0.05440  0.49815  0.73198  1.0000
  H   H756      1.0  0.35862  0.93475  0.67388  1.0000
  H   H757      1.0  0.17337  0.51476  0.68873  1.0000
  C   C939      1.0  0.19906  0.73302  0.69341  1.0000
  C   C940      1.0  0.26777  0.66558  0.64732  1.0000
  C   C941      1.0  0.27996  0.64769  0.65666  1.0000
  C   C942      1.0  0.27013  0.63143  0.66941  1.0000
  C   C943      1.0  0.24799  0.63293  0.67289  1.0000
  C   C944      1.0  0.23574  0.65110  0.66405  1.0000
  C   C945      1.0  0.24559  0.66748  0.65148  1.0000
  H   H758      1.0  0.29708  0.64601  0.65323  1.0000
  H   H759      1.0  0.27971  0.61722  0.67554  1.0000
  H   H760      1.0  0.23603  0.68100  0.64409  1.0000
  C   C946      1.0  0.24943  0.79535  0.64743  1.0000
  C   C947      1.0  0.26892  0.79641  0.63435  1.0000
  C   C948      1.0  0.28276  0.80954  0.63790  1.0000
  C   C949      1.0  0.27738  0.82140  0.65474  1.0000
  C   C950      1.0  0.25788  0.82037  0.66779  1.0000
  C   C951      1.0  0.24386  0.80760  0.66395  1.0000
  H   H761      1.0  0.27328  0.78724  0.62141  1.0000
  H   H762      1.0  0.29777  0.81038  0.62765  1.0000
  H   H763      1.0  0.25353  0.82955  0.68071  1.0000
  H   H764      1.0  0.22870  0.80713  0.67393  1.0000
  C   C952      1.0  0.16774  0.56899  0.54515  1.0000
  C   C953      1.0  0.14576  0.57520  0.54750  1.0000
  C   C954      1.0  0.13231  0.56329  0.56226  1.0000
  C   C955      1.0  0.14066  0.54489  0.57450  1.0000
  C   C956      1.0  0.16260  0.53850  0.57200  1.0000
  C   C957      1.0  0.17611  0.55062  0.55745  1.0000
  H   H765      1.0  0.13915  0.58917  0.53796  1.0000
  H   H766      1.0  0.11535  0.56834  0.56418  1.0000
  H   H767      1.0  0.16918  0.52428  0.58130  1.0000
  H   H768      1.0  0.19312  0.54569  0.55568  1.0000
  C   C958      1.0  0.15783  0.69564  0.54254  1.0000
  C   C959      1.0  0.17985  0.69034  0.54319  1.0000
  C   C960      1.0  0.18980  0.69926  0.55690  1.0000
  C   C961      1.0  0.17777  0.71343  0.56997  1.0000
  C   C962      1.0  0.15594  0.71853  0.56913  1.0000
  C   C963      1.0  0.14614  0.70985  0.55554  1.0000
  H   H769      1.0  0.18918  0.67946  0.53318  1.0000
  H   H770      1.0  0.20660  0.69497  0.55764  1.0000
  H   H771      1.0  0.14645  0.72936  0.57912  1.0000
  H   H772      1.0  0.12924  0.71414  0.55523  1.0000
  C   C964      1.0  0.35641  0.92176  0.53005  1.0000
  C   C965      1.0  0.37258  0.90725  0.53825  1.0000
  C   C966      1.0  0.38322  0.91216  0.55371  1.0000
  C   C967      1.0  0.37820  0.93177  0.56089  1.0000
  C   C968      1.0  0.36174  0.94616  0.55302  1.0000
  C   C969      1.0  0.35083  0.94111  0.53775  1.0000
  H   H773      1.0  0.37688  0.89221  0.53272  1.0000
  H   H774      1.0  0.39548  0.90064  0.56009  1.0000
  C   C970      1.0  0.42946  0.80127  0.48989  1.0000
  H   H775      1.0  0.33825  0.95240  0.53159  1.0000
  C   C971      1.0  0.29804  0.77579  0.53753  1.0000
  C   C972      1.0  0.30367  0.78632  0.51705  1.0000
  C   C973      1.0  0.32100  0.79761  0.51260  1.0000
  C   C974      1.0  0.33337  0.79776  0.52841  1.0000
  C   C975      1.0  0.32803  0.78688  0.54879  1.0000
  C   C976      1.0  0.31023  0.77618  0.55344  1.0000
  H   H776      1.0  0.29437  0.78597  0.50464  1.0000
  H   H777      1.0  0.32505  0.80584  0.49685  1.0000
  H   H778      1.0  0.33761  0.78682  0.56107  1.0000
  H   H779      1.0  0.30611  0.76802  0.56924  1.0000
  H   H780      1.0  0.33941  0.90499  0.69158  1.0000
  C   C977      1.0  0.35508  0.87480  0.65559  1.0000
  C   C978      1.0  0.37312  0.88461  0.64841  1.0000
  C   C979      1.0  0.37470  0.89762  0.62886  1.0000
  C   C980      1.0  0.35810  0.90109  0.61668  1.0000
  C   C981      1.0  0.33941  0.89226  0.62438  1.0000
  C   C982      1.0  0.33837  0.87843  0.64350  1.0000
  P   P30       1.0  0.31777  0.89719  0.60888  1.0000
  C   C983      1.0  0.32390  0.87783  0.59107  1.0000
  C   C984      1.0  0.29285  0.89468  0.62596  1.0000
  C   C985      1.0  0.27857  0.88232  0.62189  1.0000
  C   C986      1.0  0.25952  0.88044  0.63556  1.0000
  C   C987      1.0  0.25427  0.89138  0.65296  1.0000
  C   C988      1.0  0.26796  0.90439  0.65660  1.0000
  C   C989      1.0  0.28723  0.90596  0.64318  1.0000
  C   C990      1.0  0.33070  0.88337  0.56936  1.0000
  C   C991      1.0  0.33515  0.86820  0.55576  1.0000
  C   C992      1.0  0.33317  0.84734  0.56381  1.0000
  C   C993      1.0  0.32715  0.84155  0.58554  1.0000
  C   C994      1.0  0.32278  0.85669  0.59918  1.0000
  H   H781      1.0  0.35395  0.86455  0.67067  1.0000
  H   H782      1.0  0.38581  0.88220  0.65806  1.0000
  H   H783      1.0  0.38871  0.90520  0.62317  1.0000
  H   H784      1.0  0.35974  0.91094  0.60142  1.0000
  H   H785      1.0  0.32465  0.87044  0.64908  1.0000
  H   H786      1.0  0.28211  0.87381  0.60847  1.0000
  H   H787      1.0  0.24907  0.87010  0.63289  1.0000
  H   H788      1.0  0.23971  0.88959  0.66376  1.0000
  H   H789      1.0  0.26387  0.91273  0.67021  1.0000
  H   H790      1.0  0.29803  0.91562  0.64639  1.0000
  H   H791      1.0  0.33272  0.89931  0.56286  1.0000
  H   H792      1.0  0.34016  0.87266  0.53895  1.0000
  H   H793      1.0  0.33641  0.83563  0.55327  1.0000
  H   H794      1.0  0.32582  0.82533  0.59181  1.0000
  H   H795      1.0  0.31825  0.85193  0.61603  1.0000
  C   C995      1.0  0.08864  0.57508  0.52750  1.0000
  H   H796      1.0  0.20523  0.50927  0.62868  1.0000
  H   H797      1.0  0.04707  0.50166  0.58656  1.0000
  C   C996      1.0  0.09501  0.53007  0.52371  1.0000
  C   C997      1.0  0.45471  0.71915  0.51079  1.0000
  H   H798      1.0  0.46040  0.94573  0.56052  1.0000
  C   C998      1.0  0.20877  0.75503  0.51726  1.0000
  C   C999      1.0  0.22618  0.71393  0.50396  1.0000
  C   C1000     1.0  0.23688  0.70902  0.52182  1.0000
  C   C1001     1.0  0.24511  0.68826  0.52863  1.0000
  C   C1002     1.0  0.24280  0.67231  0.51763  1.0000
  C   C1003     1.0  0.22370  0.76539  0.52329  1.0000
  C   C1004     1.0  0.21771  0.77786  0.53942  1.0000
  C   C1005     1.0  0.19710  0.77915  0.55051  1.0000
  C   C1006     1.0  0.18250  0.76793  0.54545  1.0000
  C   C1007     1.0  0.18825  0.75598  0.52883  1.0000
  H   H799      1.0  0.27757  0.82331  0.52292  1.0000
  C   C1008     1.0  0.44228  0.90787  0.55405  1.0000
  C   C1009     1.0  0.46468  0.73653  0.51075  1.0000
  H   H800      1.0  0.18091  0.71555  0.50356  1.0000
  H   H801      1.0  0.48697  0.89707  0.50193  1.0000
  H   H802      1.0  0.23885  0.72115  0.53057  1.0000
  H   H803      1.0  0.25321  0.68461  0.54252  1.0000
  H   H804      1.0  0.24910  0.65623  0.52292  1.0000
  H   H805      1.0  0.24006  0.76380  0.51567  1.0000
  H   H806      1.0  0.22940  0.78581  0.54387  1.0000
  H   H807      1.0  0.19274  0.78812  0.56364  1.0000
  H   H808      1.0  0.16692  0.76799  0.55480  1.0000
  H   H809      1.0  0.17675  0.74720  0.52544  1.0000
  H   H810      1.0  0.13798  0.62494  0.64239  1.0000
  C   C1010     1.0  0.23715  0.65731  0.60352  1.0000
  C   C1011     1.0  0.30081  0.94041  0.68124  1.0000
  H   H811      1.0  0.25276  0.60951  0.63055  1.0000
  C   C1012     1.0  0.30060  0.95055  0.56863  1.0000
  C   C1013     1.0  0.10023  0.50416  0.55490  1.0000
  C   C1014     1.0  0.48429  0.93070  0.50045  1.0000
  C   C1015     1.0  0.32507  0.64371  0.68429  1.0000
  C   C1016     1.0  0.32088  0.62375  0.69376  1.0000
  C   C1017     1.0  0.16587  0.66752  0.62783  1.0000
  H   H812      1.0  0.40400  0.80860  0.53944  1.0000
  H   H813      1.0  0.45969  0.70437  0.52026  1.0000
  C   C1018     1.0  0.31263  0.66148  0.69148  1.0000
  C   C1019     1.0  0.26073  0.72942  0.67189  1.0000
  S   S149      1.0  0.32894  0.86474  0.49422  1.0000
  H   H814      1.0  0.33018  0.61001  0.68783  1.0000
  H   H815      1.0  0.02893  0.48537  0.62028  1.0000
  H   H816      1.0  0.01690  0.53466  0.65504  1.0000
  H   H817      1.0  0.24680  0.70476  0.69231  1.0000
  H   H818      1.0  0.24655  0.73524  0.66452  1.0000
  H   H819      1.0  0.27857  0.75244  0.65265  1.0000
  H   H820      1.0  0.32921  0.93607  0.61852  1.0000
  H   H821      1.0  0.42705  0.91561  0.54990  1.0000
  H   H822      1.0  0.25785  0.50002  0.67538  1.0000
  C   C1020     1.0  0.09117  0.49001  0.54651  1.0000
  H   H823      1.0  0.23149  0.48328  0.57168  1.0000
  C   C1021     1.0  0.31307  0.97297  0.66485  1.0000
  H   H824      1.0  0.99232  0.48191  0.69526  1.0000
  C   C1022     1.0  0.24032  0.55831  0.65388  1.0000
  C   C1023     1.0  0.25084  0.55311  0.67173  1.0000
  C   C1024     1.0  0.19307  0.55431  0.63127  1.0000
  C   C1025     1.0  0.18606  0.55882  0.65204  1.0000
  C   C1026     1.0  0.16440  0.56107  0.65995  1.0000
  C   C1027     1.0  0.14954  0.55907  0.64724  1.0000
  C   C1028     1.0  0.15632  0.55499  0.62646  1.0000
  C   C1029     1.0  0.17798  0.55253  0.61853  1.0000
  H   H825      1.0  0.23505  0.57465  0.64853  1.0000
  H   H826      1.0  0.25379  0.56539  0.67978  1.0000
  H   H827      1.0  0.19716  0.56010  0.66246  1.0000
  H   H828      1.0  0.15915  0.56380  0.67621  1.0000
  H   H829      1.0  0.13283  0.56025  0.65365  1.0000
  H   H830      1.0  0.14481  0.55315  0.61668  1.0000
  H   H831      1.0  0.18299  0.54884  0.60258  1.0000
  C   C1030     1.0  0.07546  0.60442  0.55587  1.0000
  C   C1031     1.0  0.41759  0.79706  0.51008  1.0000
  H   H832      1.0  0.07061  0.61566  0.56694  1.0000
  C   C1032     1.0  0.04977  0.50568  0.60142  1.0000
  C   C1033     1.0  0.26929  0.83012  0.50951  1.0000
  C   C1034     1.0  0.45813  0.75565  0.49870  1.0000
  H   H833      1.0  0.10883  0.53492  0.55055  1.0000
  C   C1035     1.0  0.27881  0.73917  0.66521  1.0000
  H   H834      1.0  0.19004  0.67417  0.64437  1.0000
  C   C1036     1.0  0.14683  0.67571  0.61967  1.0000
  C   C1037     1.0  0.24008  0.51331  0.57348  1.0000
  H   H835      1.0  0.24979  0.51435  0.55804  1.0000
  H   H836      1.0  0.44162  0.84881  0.49465  1.0000
  C   C1038     1.0  0.26096  0.71212  0.68784  1.0000
  H   H837      1.0  0.17496  0.66096  0.58223  1.0000
  H   H838      1.0  0.21060  0.61078  0.56593  1.0000
  C   C1039     1.0  0.09004  0.60883  0.53773  1.0000
  C   C1040     1.0  0.12471  0.55838  0.49842  1.0000
  C   C1041     1.0  0.15419  0.60299  0.68969  1.0000
  C   C1042     1.0  0.32145  0.93976  0.60443  1.0000
  H   H839      1.0  0.29722  0.91807  0.57212  1.0000
  C   C1043     1.0  0.05747  0.51533  0.63977  1.0000
  H   H840      1.0  0.31096  0.48030  0.71695  1.0000
  H   H841      1.0  0.21420  0.60863  0.63577  1.0000
  H   H842      1.0  0.19762  0.76286  0.67336  1.0000
  C   C1044     1.0  0.21724  0.49453  0.60097  1.0000
  Fe  Fe71      1.0  0.39541  0.96334  0.64543  1.0000
  S   S150      1.0  0.25750  0.91895  0.71761  1.0000
  H   H843      1.0  0.18832  0.53809  0.70786  1.0000
  C   C1045     1.0  0.30824  0.96594  0.57667  1.0000
  Fe  Fe72      1.0  0.35207  0.88714  0.49389  1.0000
  S   S151      1.0  0.36676  0.96344  0.63010  1.0000
  C   C1046     1.0  0.31450  0.92405  0.59600  1.0000
  C   C1047     1.0  0.16518  0.63878  0.56627  1.0000
  S   S152      1.0  0.23594  0.61053  0.68355  1.0000
  C   C1048     1.0  0.17544  0.68021  0.63782  1.0000
  Fe  Fe73      1.0  0.35681  0.83945  0.49826  1.0000
  H   H844      1.0  0.21864  0.65216  0.66615  1.0000
  H   H845      1.0  0.31329  0.77640  0.70515  1.0000
  C   C1049     1.0  0.16343  0.52236  0.70127  1.0000
  H   H846      1.0  0.24589  0.54286  0.57939  1.0000
  C   C1050     1.0  0.20655  0.64017  0.61973  1.0000
  C   C1051     1.0  0.24747  0.97297  0.65672  1.0000
  H   H847      1.0  0.46590  0.76904  0.49892  1.0000
  H   H848      1.0  0.07901  0.53511  0.62040  1.0000
  C   C1052     1.0  0.30347  0.92974  0.57841  1.0000
  H   H849      1.0  0.21938  0.84116  0.49636  1.0000
  C   C1053     1.0  0.23647  0.84045  0.49449  1.0000
  C   C1054     1.0  0.14213  0.51887  0.70700  1.0000
  C   C1055     1.0  0.17194  0.53550  0.71218  1.0000
  C   C1056     1.0  0.29708  0.73187  0.67476  1.0000
  H   H850      1.0  0.32441  0.97249  0.60095  1.0000
  H   H851      1.0  0.31106  0.73955  0.66956  1.0000
  P   P31       1.0  0.09737  0.55606  0.50941  1.0000
  C   C1057     1.0  0.28241  0.77453  0.69774  1.0000
  C   C1058     1.0  0.48138  0.88913  0.56643  1.0000
  S   S153      1.0  0.26175  0.85756  0.71283  1.0000
  H   H852      1.0  0.14872  0.59392  0.70471  1.0000
  H   H853      1.0  0.17537  0.54133  0.50900  1.0000
  H   H854      1.0  0.15570  0.61374  0.55414  1.0000
  H   H855      1.0  0.17464  0.71112  0.64546  1.0000
  C   C1059     1.0  0.10199  0.52412  0.54365  1.0000
  S   S154      1.0  0.37909  0.86180  0.50037  1.0000
  P   P32       1.0  0.22112  0.54942  0.62133  1.0000
  C   C1060     1.0  0.23614  0.54254  0.64348  1.0000
  H   H856      1.0  0.26121  0.56708  0.61133  1.0000
  Fe  Fe74      1.0  0.27508  0.88636  0.71566  1.0000
  C   C1061     1.0  0.16545  0.61184  0.60476  1.0000
  C   C1062     1.0  0.23246  0.67713  0.49965  1.0000
  C   C1063     1.0  0.25715  0.53213  0.67950  1.0000
  H   H857      1.0  0.26500  0.52812  0.69356  1.0000
  S   S155      1.0  0.31069  0.83242  0.71485  1.0000
  P   P33       1.0  0.03042  0.48920  0.66519  1.0000
  C   C1064     1.0  0.06390  0.51970  0.60135  1.0000
  C   C1065     1.0  0.31576  0.96035  0.70214  1.0000
  Fe  Fe75      1.0  0.38956  0.96356  0.59960  1.0000
  H   H858      1.0  0.44598  0.97566  0.49852  1.0000
  C   C1066     1.0  0.27928  0.70458  0.69755  1.0000
  C   C1067     1.0  0.44157  0.75751  0.48656  1.0000
  C   C1068     1.0  0.06767  0.52457  0.62050  1.0000
  H   H859      1.0  0.41463  0.95237  0.52172  1.0000
  C   C1069     1.0  0.03949  0.49642  0.62068  1.0000
  C   C1070     1.0  0.45573  0.95946  0.54951  1.0000
  C   C1071     1.0  0.17056  0.63211  0.60331  1.0000
  C   C1072     1.0  0.22901  0.57229  0.60390  1.0000
  C   C1073     1.0  0.24986  0.57677  0.60188  1.0000
  C   C1074     1.0  0.25309  0.51633  0.66927  1.0000
  H   H860      1.0  0.15592  0.58968  0.58816  1.0000
  H   H861      1.0  0.19708  0.62549  0.66512  1.0000
  C   C1075     1.0  0.16909  0.62556  0.65055  1.0000
  H   H862      1.0  0.26766  0.64051  0.60976  1.0000
  P   P34       1.0  0.21581  0.74072  0.49488  1.0000
  C   C1076     1.0  0.30411  0.95542  0.66338  1.0000
  C   C1077     1.0  0.29726  0.71481  0.69103  1.0000
  C   C1078     1.0  0.31851  0.96056  0.59467  1.0000
  C   C1079     1.0  0.25638  0.59360  0.58724  1.0000
  C   C1080     1.0  0.24265  0.52148  0.65133  1.0000
  H   H863      1.0  0.27243  0.59708  0.58583  1.0000
  C   C1081     1.0  0.43763  0.92970  0.50576  1.0000
  H   H864      1.0  0.16612  0.60094  0.61931  1.0000
  C   C1082     1.0  0.12963  0.52857  0.72348  1.0000
  H   H865      1.0  0.13897  0.66616  0.61219  1.0000
  H   H866      1.0  0.41056  0.78278  0.51469  1.0000
  H   H867      1.0  0.12376  0.70307  0.61366  1.0000
  H   H868      1.0  0.16517  0.64914  0.55132  1.0000
  C   C1083     1.0  0.21023  0.76369  0.70207  1.0000
  C   C1084     1.0  0.15983  0.60532  0.58713  1.0000
  C   C1085     1.0  0.25070  0.64009  0.61190  1.0000
  H   H869      1.0  0.24367  0.67091  0.59465  1.0000
  H   H870      1.0  0.43036  0.70744  0.49893  1.0000
  H   H871      1.0  0.33756  0.64546  0.67092  1.0000
  C   C1086     1.0  0.41407  0.81155  0.52435  1.0000
  H   H872      1.0  0.19284  0.72553  0.68248  1.0000
  H   H873      1.0  0.14165  0.72572  0.63003  1.0000
  H   H874      1.0  0.21240  0.77995  0.69758  1.0000
  C   C1087     1.0  0.24213  0.60610  0.57456  1.0000
  C   C1088     1.0  0.21508  0.58451  0.59057  1.0000
  H   H875      1.0  0.24709  0.61926  0.56337  1.0000
  H   H876      1.0  0.23954  0.50889  0.64392  1.0000
  C   C1089     1.0  0.05853  0.49153  0.71728  1.0000
  C   C1090     1.0  0.42285  0.83014  0.51888  1.0000
  H   H877      1.0  0.12521  0.60469  0.67671  1.0000
  C   C1091     1.0  0.17451  0.60870  0.68615  1.0000
  H   H878      1.0  0.18473  0.60407  0.69835  1.0000
  H   H879      1.0  0.13863  0.53650  0.52336  1.0000
  C   C1092     1.0  0.16663  0.70110  0.63871  1.0000
  C   C1093     1.0  0.21287  0.73130  0.72646  1.0000
  H   H880      1.0  0.05583  0.58214  0.57377  1.0000
  C   C1094     1.0  0.22503  0.52833  0.60565  1.0000
  C   C1095     1.0  0.23780  0.52948  0.58571  1.0000
  C   C1096     1.0  0.29593  0.65941  0.70834  1.0000
  C   C1097     1.0  0.22152  0.60147  0.57615  1.0000
  H   H881      1.0  0.19941  0.58069  0.59082  1.0000
  H   H882      1.0  0.35765  0.96127  0.55845  1.0000
  C   C1098     1.0  0.14842  0.62028  0.65441  1.0000
  C   C1099     1.0  0.08397  0.49581  0.52678  1.0000
  C   C1100     1.0  0.30653  0.94285  0.70052  1.0000
  C   C1101     1.0  0.18956  0.89949  0.48815  1.0000
  C   C1102     1.0  0.24229  0.62268  0.62365  1.0000
  H   H883      1.0  0.41963  0.84161  0.52973  1.0000
  H   H884      1.0  0.38755  0.79175  0.48898  1.0000
  H   H885      1.0  0.06086  0.51914  0.65444  1.0000
  H   H886      1.0  0.25286  0.66266  0.69804  1.0000
  C   C1103     1.0  0.20176  0.75405  0.68827  1.0000
  C   C1104     1.0  0.21516  0.65738  0.60736  1.0000
  C   C1105     1.0  0.14801  0.70934  0.63000  1.0000
  C   C1106     1.0  0.30432  0.62152  0.71053  1.0000
  H   H887      1.0  0.28681  0.77871  0.68078  1.0000
  H   H888      1.0  0.25051  0.77208  0.69477  1.0000
  C   C1107     1.0  0.21492  0.51063  0.61325  1.0000
  H   H889      1.0  0.29358  0.92692  0.68040  1.0000
  P   P35       1.0  0.17806  0.64094  0.62566  1.0000
  C   C1108     1.0  0.22034  0.62244  0.62702  1.0000
  H   H890      1.0  0.20495  0.67109  0.60098  1.0000
  Fe  Fe76      1.0  0.23184  0.59790  0.71860  1.0000
  C   C1109     1.0  0.24424  0.66580  0.71331  1.0000
  H   H891      1.0  0.21748  0.65158  0.70975  1.0000
  H   H892      1.0  0.31150  0.70948  0.69838  1.0000
  C   C1110     1.0  0.13802  0.69659  0.62067  1.0000
  P   P36       1.0  0.27988  0.68215  0.71826  1.0000
  C   C1111     1.0  0.29197  0.63923  0.71786  1.0000
  C   C1112     1.0  0.15973  0.61880  0.56791  1.0000
  H   H893      1.0  0.05611  0.58245  0.50400  1.0000
  C   C1113     1.0  0.22415  0.65973  0.71980  1.0000
  H   H894      1.0  0.30074  0.60605  0.71755  1.0000
  C   C1114     1.0  0.06716  0.58555  0.55972  1.0000
  C   C1115     1.0  0.20443  0.72171  0.71258  1.0000
  H   H895      1.0  0.46295  0.87320  0.59344  1.0000
  H   H896      1.0  0.25551  0.95365  0.68548  1.0000
  C   C1116     1.0  0.18170  0.62044  0.66695  1.0000
  H   H897      1.0  0.08019  0.51984  0.50017  1.0000
  C   C1117     1.0  0.06211  0.57553  0.48970  1.0000
  H   H898      1.0  0.25115  0.96017  0.64741  1.0000
  C   C1118     1.0  0.07358  0.57098  0.54551  1.0000
  C   C1119     1.0  0.44003  0.91453  0.49213  1.0000
  C   C1120     1.0  0.29732  0.77325  0.71146  1.0000
  H   H899      1.0  0.29266  0.95468  0.55465  1.0000
  S   S156      1.0  0.35357  0.86643  0.71981  1.0000
  H   H900      1.0  0.06686  0.55652  0.54868  1.0000
  H   H901      1.0  0.27889  0.97966  0.72006  1.0000
  H   H902      1.0  0.31585  0.67667  0.68341  1.0000
  C   C1121     1.0  0.17759  0.72814  0.49087  1.0000
  S   S157      1.0  0.23033  0.56340  0.72657  1.0000
  C   C1122     1.0  0.14151  0.54699  0.50873  1.0000
  H   H903      1.0  0.23860  0.82491  0.52651  1.0000
  C   C1123     1.0  0.24726  0.83122  0.51158  1.0000
  C   C1124     1.0  0.26167  0.77088  0.70583  1.0000
  C   C1125     1.0  0.45063  0.97876  0.55705  1.0000
  C   C1126     1.0  0.43525  0.83416  0.49915  1.0000
  C   C1127     1.0  0.48072  0.90363  0.54786  1.0000
  H   H904      1.0  0.09642  0.62350  0.53472  1.0000
  C   C1128     1.0  0.22977  0.49584  0.58110  1.0000
  H   H905      1.0  0.36347  0.96368  0.69940  1.0000
  C   C1129     1.0  0.25000  0.96929  0.67815  1.0000
  H   H906      1.0  0.14709  0.71969  0.48954  1.0000
  C   C1130     1.0  0.45420  0.95806  0.52830  1.0000
  C   C1131     1.0  0.25338  0.67559  0.72658  1.0000
  C   C1132     1.0  0.22426  0.69786  0.49281  1.0000
  C   C1133     1.0  0.04893  0.48537  0.68419  1.0000
  C   C1134     1.0  0.21618  0.75235  0.72119  1.0000
  C   C1135     1.0  0.15902  0.54532  0.72858  1.0000
  C   C1136     1.0  0.31887  0.97549  0.68411  1.0000
  C   C1137     1.0  0.41750  0.94144  0.51033  1.0000
  H   H907      1.0  0.18872  0.90687  0.50216  1.0000
  C   C1138     1.0  0.00467  0.52801  0.66646  1.0000
  C   C1139     1.0  0.36071  0.97752  0.70717  1.0000
  C   C1140     1.0  0.40044  0.93862  0.50081  1.0000
  H   H908      1.0  0.20216  0.70543  0.71662  1.0000
  H   H909      1.0  0.02766  0.50154  0.70795  1.0000
  H   H910      1.0  0.11330  0.52589  0.72822  1.0000
  H   H911      1.0  0.22167  0.88461  0.48964  1.0000
  H   H912      1.0  0.28429  0.72124  0.73318  1.0000
  H   H913      1.0  0.20930  0.48099  0.60688  1.0000
  P   P37       1.0  0.32290  0.96365  0.72724  1.0000
  H   H914      1.0  0.35775  0.65507  0.73107  1.0000
  H   H915      1.0  0.07694  0.48482  0.52028  1.0000
  H   H916      1.0  0.38497  0.94770  0.50444  1.0000
  C   C1141     1.0  0.43821  0.72088  0.49876  1.0000
  C   C1142     1.0  0.44759  0.97636  0.51481  1.0000
  C   C1143     1.0  0.29144  0.76843  0.73334  1.0000
  H   H917      1.0  0.27905  0.63713  0.73073  1.0000
  C   C1144     1.0  0.43869  0.81975  0.48476  1.0000
  H   H918      1.0  0.48739  0.96372  0.49564  1.0000
  C   C1145     1.0  0.43164  0.73997  0.48666  1.0000
  C   C1146     1.0  0.40294  0.92342  0.48745  1.0000
  H   H919      1.0  0.36641  0.94165  0.73274  1.0000
  C   C1147     1.0  0.08155  0.56211  0.48792  1.0000
  C   C1148     1.0  0.13789  0.54176  0.73396  1.0000
  H   H920      1.0  0.40318  0.68649  0.86726  1.0000
  H   H921      1.0  0.36272  0.72945  0.82831  1.0000
  C   C1149     1.0  0.28046  0.57901  0.85940  1.0000
  Fe  Fe77      1.0  0.39798  0.63942  0.95970  1.0000
  S   S158      1.0  0.37305  0.61816  0.96603  1.0000
  S   S159      1.0  0.39259  0.66993  0.93754  1.0000
  C   C1150     1.0  0.31174  0.72379  0.97784  1.0000
  Fe  Fe78      1.0  0.40052  0.59219  0.96293  1.0000
  S   S160      1.0  0.39774  0.56309  0.94824  1.0000
  H   H922      1.0  0.35485  0.61885  0.74815  1.0000
  S   S161      1.0  0.42567  0.61358  0.95470  1.0000
  S   S162      1.0  0.18414  0.75964  0.95297  1.0000
  Fe  Fe79      1.0  0.29279  0.69785  0.87748  1.0000
  S   S163      1.0  0.26179  0.69057  0.87101  1.0000
  S   S164      1.0  0.30077  0.68357  0.90992  1.0000
  Fe  Fe80      1.0  0.30192  0.72260  0.83352  1.0000
  S   S165      1.0  0.27224  0.71668  0.82348  1.0000
  S   S166      1.0  0.32273  0.74215  0.80947  1.0000
  Fe  Fe81      1.0  0.25703  0.72409  0.85583  1.0000
  S   S167      1.0  0.22776  0.74806  0.85927  1.0000
  Fe  Fe82      1.0  0.28000  0.68391  0.83952  1.0000
  S   S168      1.0  0.28286  0.65449  0.82484  1.0000
  S   S169      1.0  0.28643  0.73205  0.86492  1.0000
  S   S170      1.0  0.31132  0.68903  0.84700  1.0000
  Fe  Fe83      1.0  0.33458  0.49785  0.85595  1.0000
  S   S171      1.0  0.35388  0.51504  0.82872  1.0000
  S   S172      1.0  0.29950  0.51104  0.85812  1.0000
  Fe  Fe84      1.0  0.37841  0.51147  0.85078  1.0000
  S   S173      1.0  0.39516  0.53819  0.85627  1.0000
  C   C1151     1.0  0.22264  0.50415  0.76689  1.0000
  S   S174      1.0  0.15015  0.96330  0.83521  1.0000
  S   S175      1.0  0.20097  0.95744  0.84136  1.0000
  C   C1152     1.0  0.40229  0.62978  0.83786  1.0000
  C   C1153     1.0  0.38392  0.70965  0.84836  1.0000
  Fe  Fe85      1.0  0.24442  0.56500  0.75597  1.0000
  S   S176      1.0  0.21265  0.57143  0.77583  1.0000
  S   S177      1.0  0.27167  0.54041  0.76589  1.0000
  C   C1154     1.0  0.22617  0.62080  0.86737  1.0000
  P   P38       1.0  0.25782  0.58738  0.87812  1.0000
  Fe  Fe86      1.0  0.21677  0.60511  0.76467  1.0000
  S   S178      1.0  0.20779  0.63005  0.78628  1.0000
  C   C1155     1.0  0.31864  0.92471  0.75147  1.0000
  H   H923      1.0  0.31509  0.89379  0.76789  1.0000
  C   C1156     1.0  0.09808  0.91555  0.95982  1.0000
  S   S179      1.0  0.16416  0.81872  0.96445  1.0000
  S   S180      1.0  0.26685  0.82172  0.76606  1.0000
  H   H924      1.0  0.32131  0.71160  0.94801  1.0000
  H   H925      1.0  0.21288  0.95726  0.77203  1.0000
  H   H926      1.0  0.42312  0.63330  0.78540  1.0000
  C   C1157     1.0  0.21402  0.90568  0.76915  1.0000
  C   C1158     1.0  0.41635  0.55018  0.77795  1.0000
  C   C1159     1.0  0.35282  0.58996  0.85722  1.0000
  H   H927      1.0  0.20685  0.89221  0.77729  1.0000
  H   H928      1.0  0.35137  0.69996  0.81592  1.0000
  C   C1160     1.0  0.16998  0.92607  0.90121  1.0000
  C   C1161     1.0  0.19291  0.83186  0.74295  1.0000
  H   H929      1.0  0.18471  0.84754  0.74430  1.0000
  H   H930      1.0  0.31841  0.85226  0.77826  1.0000
  C   C1162     1.0  0.30331  0.58075  0.76090  1.0000
  C   C1163     1.0  0.23464  0.91152  0.93000  1.0000
  Fe  Fe87      1.0  0.18206  0.95568  0.81565  1.0000
  C   C1164     1.0  0.45801  0.63992  0.86813  1.0000
  C   C1165     1.0  0.29121  0.51932  0.83269  1.0000
  C   C1166     1.0  0.30401  0.51293  0.81457  1.0000
  C   C1167     1.0  0.29790  0.51989  0.79439  1.0000
  C   C1168     1.0  0.27867  0.53308  0.79191  1.0000
  C   C1169     1.0  0.26558  0.53937  0.81002  1.0000
  C   C1170     1.0  0.27179  0.53240  0.83036  1.0000
  H   H931      1.0  0.31851  0.50216  0.81604  1.0000
  H   H932      1.0  0.30808  0.51468  0.78064  1.0000
  H   H933      1.0  0.25065  0.54942  0.80837  1.0000
  H   H934      1.0  0.26162  0.53731  0.84423  1.0000
  H   H935      1.0  0.32303  0.64401  0.89838  1.0000
  C   C1171     1.0  0.38179  0.61818  0.89483  1.0000
  H   H936      1.0  0.24253  0.80442  0.74138  1.0000
  C   C1172     1.0  0.30736  0.76445  0.79747  1.0000
  C   C1173     1.0  0.28562  0.76889  0.80455  1.0000
  C   C1174     1.0  0.27335  0.78640  0.79468  1.0000
  C   C1175     1.0  0.28278  0.79985  0.77791  1.0000
  C   C1176     1.0  0.30457  0.79563  0.77095  1.0000
  C   C1177     1.0  0.31681  0.77784  0.78062  1.0000
  H   H937      1.0  0.27818  0.75897  0.81777  1.0000
  H   H938      1.0  0.25647  0.78940  0.80008  1.0000
  H   H939      1.0  0.31192  0.80588  0.75794  1.0000
  H   H940      1.0  0.33357  0.77439  0.77495  1.0000
  C   C1178     1.0  0.26172  0.64836  0.81412  1.0000
  C   C1179     1.0  0.24175  0.66063  0.81558  1.0000
  C   C1180     1.0  0.22526  0.65492  0.80696  1.0000
  C   C1181     1.0  0.22874  0.63705  0.79676  1.0000
  C   C1182     1.0  0.24874  0.62484  0.79537  1.0000
  C   C1183     1.0  0.26514  0.63049  0.80407  1.0000
  H   H941      1.0  0.23892  0.67427  0.82360  1.0000
  H   H942      1.0  0.20971  0.66425  0.80836  1.0000
  H   H943      1.0  0.25142  0.61076  0.78807  1.0000
  H   H944      1.0  0.28042  0.62075  0.80338  1.0000
  C   C1184     1.0  0.18251  0.88259  0.91125  1.0000
  C   C1185     1.0  0.17611  0.89494  0.92755  1.0000
  C   C1186     1.0  0.16973  0.91665  0.92250  1.0000
  C   C1187     1.0  0.37573  0.63501  0.87941  1.0000
  H   H945      1.0  0.16479  0.92621  0.93507  1.0000
  C   C1188     1.0  0.19783  0.75632  0.92738  1.0000
  C   C1189     1.0  0.20374  0.73618  0.92168  1.0000
  C   C1190     1.0  0.21371  0.73344  0.90101  1.0000
  C   C1191     1.0  0.21713  0.75088  0.88575  1.0000
  C   C1192     1.0  0.21125  0.77097  0.89144  1.0000
  C   C1193     1.0  0.20206  0.77365  0.91228  1.0000
  H   H946      1.0  0.20061  0.72269  0.93328  1.0000
  H   H947      1.0  0.21817  0.71786  0.89672  1.0000
  H   H948      1.0  0.21394  0.78447  0.87977  1.0000
  H   H949      1.0  0.19759  0.78920  0.91640  1.0000
  C   C1194     1.0  0.39664  0.55731  0.92228  1.0000
  C   C1195     1.0  0.38448  0.54197  0.92032  1.0000
  C   C1196     1.0  0.38382  0.53606  0.90037  1.0000
  C   C1197     1.0  0.39564  0.54510  0.88195  1.0000
  C   C1198     1.0  0.40812  0.56022  0.88394  1.0000
  C   C1199     1.0  0.40856  0.56635  0.90389  1.0000
  H   H950      1.0  0.37542  0.53458  0.93437  1.0000
  H   H951      1.0  0.37418  0.52440  0.89937  1.0000
  H   H952      1.0  0.41786  0.56692  0.87003  1.0000
  H   H953      1.0  0.41864  0.57758  0.90515  1.0000
  Fe  Fe88      1.0  0.18801  0.78944  0.96415  1.0000
  C   C1200     1.0  0.36693  0.67484  0.92992  1.0000
  C   C1201     1.0  0.36338  0.68661  0.91019  1.0000
  C   C1202     1.0  0.34313  0.68963  0.90366  1.0000
  C   C1203     1.0  0.32637  0.68104  0.91704  1.0000
  C   C1204     1.0  0.32988  0.66974  0.93685  1.0000
  C   C1205     1.0  0.34996  0.66687  0.94338  1.0000
  H   H954      1.0  0.37634  0.69316  0.89991  1.0000
  H   H955      1.0  0.34052  0.69843  0.88834  1.0000
  H   H956      1.0  0.31697  0.66311  0.94717  1.0000
  H   H957      1.0  0.35216  0.65878  0.95903  1.0000
  C   C1206     1.0  0.38572  0.67219  0.84896  1.0000
  H   H958      1.0  0.23412  0.80679  0.84217  1.0000
  H   H959      1.0  0.06626  0.91712  0.97745  1.0000
  C   C1207     1.0  0.22341  0.93269  0.89818  1.0000
  C   C1208     1.0  0.35350  0.80112  0.79863  1.0000
  C   C1209     1.0  0.11475  0.84454  0.80467  1.0000
  C   C1210     1.0  0.12324  0.82858  0.79245  1.0000
  C   C1211     1.0  0.14262  0.81633  0.79593  1.0000
  C   C1212     1.0  0.15357  0.82007  0.81158  1.0000
  C   C1213     1.0  0.14523  0.83621  0.82380  1.0000
  C   C1214     1.0  0.12566  0.84833  0.82035  1.0000
  P   P39       1.0  0.15966  0.84094  0.84380  1.0000
  C   C1215     1.0  0.15568  0.82256  0.86779  1.0000
  C   C1216     1.0  0.18746  0.83742  0.83282  1.0000
  C   C1217     1.0  0.20210  0.82284  0.84354  1.0000
  C   C1218     1.0  0.22315  0.81861  0.83415  1.0000
  C   C1219     1.0  0.22990  0.82911  0.81417  1.0000
  C   C1220     1.0  0.21550  0.84350  0.80323  1.0000
  C   C1221     1.0  0.19427  0.84751  0.81241  1.0000
  C   C1222     1.0  0.16166  0.82663  0.88647  1.0000
  C   C1223     1.0  0.16004  0.81207  0.90490  1.0000
  H   H960      1.0  0.07405  0.96424  0.92313  1.0000
  C   C1224     1.0  0.14658  0.78908  0.88633  1.0000
  C   C1225     1.0  0.14808  0.80368  0.86781  1.0000
  C   C1226     1.0  0.15058  0.86701  0.85052  1.0000
  C   C1227     1.0  0.13309  0.87028  0.86643  1.0000
  C   C1228     1.0  0.12592  0.89026  0.87201  1.0000
  C   C1229     1.0  0.13584  0.90722  0.86145  1.0000
  C   C1230     1.0  0.15291  0.90416  0.84535  1.0000
  C   C1231     1.0  0.16042  0.88418  0.83999  1.0000
  H   H961      1.0  0.09974  0.85407  0.80194  1.0000
  H   H962      1.0  0.11476  0.82570  0.78031  1.0000
  H   H963      1.0  0.14920  0.80392  0.78652  1.0000
  H   H964      1.0  0.16857  0.81041  0.81412  1.0000
  H   H965      1.0  0.11885  0.86082  0.82955  1.0000
  H   H966      1.0  0.19737  0.81424  0.85893  1.0000
  H   H967      1.0  0.17755  0.92089  0.86867  1.0000
  H   H968      1.0  0.24620  0.82568  0.80702  1.0000
  H   H969      1.0  0.22075  0.85113  0.78744  1.0000
  H   H970      1.0  0.18314  0.85817  0.80342  1.0000
  H   H971      1.0  0.16814  0.84082  0.88667  1.0000
  C   C1232     1.0  0.45623  0.64382  0.88904  1.0000
  H   H972      1.0  0.43464  0.65143  0.91691  1.0000
  H   H973      1.0  0.14373  0.79996  0.85356  1.0000
  H   H974      1.0  0.12502  0.85737  0.87462  1.0000
  H   H975      1.0  0.11272  0.89264  0.88454  1.0000
  H   H976      1.0  0.13053  0.92272  0.86584  1.0000
  H   H977      1.0  0.16065  0.91729  0.83722  1.0000
  H   H978      1.0  0.17389  0.88246  0.82772  1.0000
  C   C1233     1.0  0.37099  0.67621  0.83448  1.0000
  H   H979      1.0  0.28078  0.91859  0.80107  1.0000
  H   H980      1.0  0.25460  0.90979  0.78133  1.0000
  H   H981      1.0  0.40959  0.65557  0.81336  1.0000
  C   C1234     1.0  0.29951  0.97376  0.74419  1.0000
  C   C1235     1.0  0.29051  0.70810  0.74409  1.0000
  C   C1236     1.0  0.36658  0.65930  0.78061  1.0000
  C   C1237     1.0  0.36475  0.63883  0.79048  1.0000
  C   C1238     1.0  0.36010  0.62414  0.77904  1.0000
  H   H982      1.0  0.23380  0.88880  0.74529  1.0000
  P   P40       1.0  0.35629  0.59804  0.79199  1.0000
  C   C1239     1.0  0.38014  0.57956  0.78686  1.0000
  C   C1240     1.0  0.34761  0.59937  0.82005  1.0000
  C   C1241     1.0  0.35965  0.58829  0.83576  1.0000
  C   C1242     1.0  0.33413  0.60300  0.86322  1.0000
  C   C1243     1.0  0.32246  0.61461  0.84775  1.0000
  C   C1244     1.0  0.32903  0.61273  0.82632  1.0000
  C   C1245     1.0  0.33513  0.59083  0.78069  1.0000
  C   C1246     1.0  0.24347  0.48197  0.82501  1.0000
  C   C1247     1.0  0.31759  0.60586  0.77600  1.0000
  C   C1248     1.0  0.21286  0.66374  0.73945  1.0000
  P   P41       1.0  0.28541  0.71686  0.98117  1.0000
  H   H983      1.0  0.36982  0.67073  0.78953  1.0000
  H   H984      1.0  0.36663  0.63458  0.80709  1.0000
  H   H985      1.0  0.31949  0.90909  0.84189  1.0000
  H   H986      1.0  0.32860  0.60399  0.87985  1.0000
  H   H987      1.0  0.30818  0.62504  0.85231  1.0000
  H   H988      1.0  0.31957  0.62190  0.81476  1.0000
  H   H989      1.0  0.22671  0.51712  0.93110  1.0000
  H   H990      1.0  0.31613  0.62156  0.77976  1.0000
  C   C1249     1.0  0.43617  0.64829  0.90070  1.0000
  C   C1250     1.0  0.15258  0.79327  0.90486  1.0000
  S   S181      1.0  0.16127  0.95313  0.89489  1.0000
  H   H991      1.0  0.29105  0.57673  0.75338  1.0000
  C   C1251     1.0  0.30584  0.67480  0.77337  1.0000
  C   C1252     1.0  0.30575  0.69538  0.77657  1.0000
  C   C1253     1.0  0.29806  0.71202  0.76196  1.0000
  C   C1254     1.0  0.35982  0.65051  0.74763  1.0000
  H   H992      1.0  0.24750  0.92417  0.85080  1.0000
  H   H993      1.0  0.18848  0.62726  0.83465  1.0000
  H   H994      1.0  0.24890  0.68633  0.75723  1.0000
  C   C1255     1.0  0.21021  0.59902  0.84119  1.0000
  S   S182      1.0  0.24919  0.59880  0.74587  1.0000
  H   H995      1.0  0.16899  0.49529  0.80202  1.0000
  H   H996      1.0  0.36199  0.58096  0.86922  1.0000
  C   C1256     1.0  0.41951  0.64482  0.87060  1.0000
  S   S183      1.0  0.35848  0.49558  0.87852  1.0000
  H   H997      1.0  0.31415  0.83861  0.87045  1.0000
  P   P42       1.0  0.10976  0.89305  0.97679  1.0000
  H   H998      1.0  0.28813  0.61232  0.76292  1.0000
  H   H999      1.0  0.31140  0.66194  0.78497  1.0000
  H   H1000     1.0  0.31131  0.69847  0.79056  1.0000
  H   H1001     1.0  0.29776  0.72796  0.76473  1.0000
  H   H1002     1.0  0.43819  0.56523  0.96243  1.0000
  C   C1257     1.0  0.20236  0.48362  0.79548  1.0000
  C   C1258     1.0  0.26172  0.72945  0.92443  1.0000
  H   H1003     1.0  0.30296  0.76765  0.74397  1.0000
  H   H1004     1.0  0.23058  0.91939  0.82069  1.0000
  H   H1005     1.0  0.15205  0.78170  0.91906  1.0000
  S   S184      1.0  0.18912  0.92646  0.79974  1.0000
  C   C1259     1.0  0.29059  0.68742  0.74072  1.0000
  C   C1260     1.0  0.35278  0.73467  0.97158  1.0000
  H   H1006     1.0  0.33848  0.85227  0.88847  1.0000
  H   H1007     1.0  0.20136  0.96061  0.90298  1.0000
  H   H1008     1.0  0.16521  0.81516  0.91908  1.0000
  H   H1009     1.0  0.28483  0.65096  0.88758  1.0000
  Fe  Fe89      1.0  0.36687  0.48278  0.82049  1.0000
  H   H1010     1.0  0.27899  0.49304  0.77809  1.0000
  Fe  Fe90      1.0  0.16928  0.96679  0.86020  1.0000
  C   C1261     1.0  0.43973  0.64047  0.85888  1.0000
  C   C1262     1.0  0.25193  0.48371  0.84315  1.0000
  C   C1263     1.0  0.36393  0.66519  0.75927  1.0000
  C   C1264     1.0  0.20122  0.61958  0.84352  1.0000
  C   C1265     1.0  0.18161  0.81596  0.74109  1.0000
  H   H1011     1.0  0.25155  0.87258  0.78073  1.0000
  C   C1266     1.0  0.12675  0.85535  0.93008  1.0000
  C   C1267     1.0  0.18397  0.49771  0.79225  1.0000
  C   C1268     1.0  0.07649  0.92382  0.96395  1.0000
  H   H1012     1.0  0.19749  0.65859  0.74478  1.0000
  H   H1013     1.0  0.22808  0.49067  0.82260  1.0000
  C   C1269     1.0  0.27953  0.58233  0.83749  1.0000
  P   P43       1.0  0.22790  0.76494  0.73848  1.0000
  C   C1270     1.0  0.26986  0.71887  0.94269  1.0000
  H   H1014     1.0  0.24434  0.89838  0.93789  1.0000
  C   C1271     1.0  0.32603  0.71929  0.95973  1.0000
  C   C1272     1.0  0.34295  0.82757  0.76989  1.0000
  H   H1015     1.0  0.21297  0.67658  0.76795  1.0000
  H   H1016     1.0  0.34947  0.55851  0.77879  1.0000
  H   H1017     1.0  0.22392  0.58368  0.91374  1.0000
  C   C1273     1.0  0.31462  0.56259  0.83119  1.0000
  P   P44       1.0  0.39565  0.64553  0.85910  1.0000
  C   C1274     1.0  0.22712  0.58928  0.85201  1.0000
  C   C1275     1.0  0.22634  0.75092  0.76522  1.0000
  C   C1276     1.0  0.21429  0.76009  0.78243  1.0000
  C   C1277     1.0  0.21337  0.74903  0.80301  1.0000
  C   C1278     1.0  0.22422  0.72872  0.80654  1.0000
  C   C1279     1.0  0.23650  0.71963  0.78958  1.0000
  C   C1280     1.0  0.23784  0.73083  0.76908  1.0000
  C   C1281     1.0  0.36226  0.91175  0.75051  1.0000
  H   H1018     1.0  0.27085  0.62887  0.86717  1.0000
  H   H1019     1.0  0.25151  0.75937  0.90695  1.0000
  H   H1020     1.0  0.19891  0.95386  0.94213  1.0000
  C   C1282     1.0  0.08070  0.95068  0.93334  1.0000
  C   C1283     1.0  0.10959  0.85106  0.97299  1.0000
  H   H1021     1.0  0.33004  0.55080  0.85882  1.0000
  H   H1022     1.0  0.30247  0.94943  0.88988  1.0000
  H   H1023     1.0  0.20223  0.64644  0.85829  1.0000
  H   H1024     1.0  0.26611  0.76290  0.75864  1.0000
  H   H1025     1.0  0.28786  0.89149  0.85631  1.0000
  H   H1026     1.0  0.13429  0.85679  0.91372  1.0000
  H   H1027     1.0  0.44150  0.63744  0.84267  1.0000
  C   C1284     1.0  0.30061  0.97471  0.76557  1.0000
  Fe  Fe91      1.0  0.19888  0.57282  0.74546  1.0000
  H   H1028     1.0  0.20586  0.77584  0.78016  1.0000
  H   H1029     1.0  0.20453  0.75625  0.81639  1.0000
  H   H1030     1.0  0.22353  0.72028  0.82257  1.0000
  H   H1031     1.0  0.24536  0.70406  0.79242  1.0000
  H   H1032     1.0  0.24777  0.72384  0.75617  1.0000
  C   C1285     1.0  0.23179  0.90706  0.83413  1.0000
  C   C1286     1.0  0.22356  0.88864  0.83432  1.0000
  C   C1287     1.0  0.22445  0.87299  0.85187  1.0000
  C   C1288     1.0  0.23326  0.87587  0.86938  1.0000
  C   C1289     1.0  0.24207  0.89413  0.86913  1.0000
  C   C1290     1.0  0.24122  0.90974  0.85133  1.0000
  P   P45       1.0  0.25390  0.89791  0.89152  1.0000
  C   C1291     1.0  0.23549  0.91484  0.90778  1.0000
  C   C1292     1.0  0.26173  0.87288  0.90700  1.0000
  C   C1293     1.0  0.24639  0.86276  0.92118  1.0000
  C   C1294     1.0  0.25242  0.84399  0.93399  1.0000
  C   C1295     1.0  0.27364  0.83478  0.93239  1.0000
  C   C1296     1.0  0.28899  0.84449  0.91806  1.0000
  C   C1297     1.0  0.28312  0.86354  0.90551  1.0000
  C   C1298     1.0  0.35485  0.93177  0.74077  1.0000
  C   C1299     1.0  0.36300  0.69682  0.82685  1.0000
  H   H1033     1.0  0.35381  0.88212  0.76657  1.0000
  H   H1034     1.0  0.30165  0.92931  0.75177  1.0000
  H   H1035     1.0  0.32674  0.93806  0.85857  1.0000
  C   C1300     1.0  0.27708  0.91057  0.88130  1.0000
  C   C1301     1.0  0.29094  0.90416  0.86365  1.0000
  C   C1302     1.0  0.30884  0.91400  0.85553  1.0000
  C   C1303     1.0  0.31298  0.93031  0.86496  1.0000
  C   C1304     1.0  0.48501  0.52362  0.97917  1.0000
  C   C1305     1.0  0.28146  0.92686  0.89081  1.0000
  C   C1306     1.0  0.11185  0.83423  0.96167  1.0000
  H   H1036     1.0  0.21614  0.88674  0.82100  1.0000
  H   H1037     1.0  0.21757  0.85893  0.85229  1.0000
  H   H1038     1.0  0.23269  0.86398  0.88317  1.0000
  C   C1307     1.0  0.31605  0.55989  0.85285  1.0000
  H   H1039     1.0  0.22978  0.86958  0.92263  1.0000
  H   H1040     1.0  0.24069  0.83668  0.94546  1.0000
  H   H1041     1.0  0.27814  0.82024  0.94253  1.0000
  H   H1042     1.0  0.30547  0.83736  0.91704  1.0000
  H   H1043     1.0  0.29536  0.87097  0.89497  1.0000
  C   C1308     1.0  0.21736  0.94236  0.76620  1.0000
  H   H1044     1.0  0.42660  0.57393  0.75282  1.0000
  C   C1309     1.0  0.40953  0.63884  0.81716  1.0000
  C   C1310     1.0  0.32615  0.90459  0.76087  1.0000
  H   H1045     1.0  0.32134  0.54997  0.76186  1.0000
  C   C1311     1.0  0.26464  0.89738  0.78983  1.0000
  H   H1046     1.0  0.39818  0.60056  0.85832  1.0000
  C   C1312     1.0  0.27105  0.75207  0.95391  1.0000
  H   H1047     1.0  0.12215  0.82328  0.93152  1.0000
  H   H1048     1.0  0.43027  0.53879  0.77458  1.0000
  H   H1049     1.0  0.41272  0.57846  0.83048  1.0000
  C   C1313     1.0  0.32550  0.82990  0.80597  1.0000
  C   C1314     1.0  0.33861  0.81155  0.81308  1.0000
  P   P46       1.0  0.30783  0.84417  0.82510  1.0000
  C   C1315     1.0  0.32529  0.85400  0.83905  1.0000
  C   C1316     1.0  0.34054  0.86605  0.82739  1.0000
  C   C1317     1.0  0.35452  0.87353  0.83772  1.0000
  C   C1318     1.0  0.35357  0.86880  0.85976  1.0000
  C   C1319     1.0  0.33883  0.85635  0.87144  1.0000
  C   C1320     1.0  0.32486  0.84880  0.86113  1.0000
  C   C1321     1.0  0.29021  0.82786  0.84253  1.0000
  C   C1322     1.0  0.27672  0.83580  0.85969  1.0000
  C   C1323     1.0  0.26360  0.82310  0.87377  1.0000
  C   C1324     1.0  0.26340  0.80261  0.87045  1.0000
  C   C1325     1.0  0.27605  0.79491  0.85288  1.0000
  C   C1326     1.0  0.28930  0.80749  0.83887  1.0000
  C   C1327     1.0  0.41166  0.59538  0.82669  1.0000
  H   H1050     1.0  0.33725  0.80523  0.82980  1.0000
  H   H1051     1.0  0.34167  0.86960  0.81024  1.0000
  H   H1052     1.0  0.36625  0.88281  0.82859  1.0000
  H   H1053     1.0  0.36451  0.87448  0.86776  1.0000
  H   H1054     1.0  0.27652  0.85172  0.86232  1.0000
  H   H1055     1.0  0.25354  0.82907  0.88728  1.0000
  H   H1056     1.0  0.25313  0.79280  0.88124  1.0000
  H   H1057     1.0  0.27543  0.77919  0.85000  1.0000
  H   H1058     1.0  0.29860  0.80123  0.82519  1.0000
  C   C1328     1.0  0.34559  0.62003  0.91266  1.0000
  C   C1329     1.0  0.33937  0.63657  0.89725  1.0000
  H   H1059     1.0  0.27110  0.93210  0.90449  1.0000
  H   H1060     1.0  0.37164  0.59804  0.92345  1.0000
  H   H1061     1.0  0.33406  0.61460  0.92576  1.0000
  H   H1062     1.0  0.18705  0.88260  0.87746  1.0000
  C   C1330     1.0  0.36678  0.61074  0.91135  1.0000
  C   C1331     1.0  0.27946  0.90233  0.80097  1.0000
  C   C1332     1.0  0.20909  0.63041  0.85670  1.0000
  C   C1333     1.0  0.35430  0.64407  0.88071  1.0000
  C   C1334     1.0  0.18263  0.89207  0.89010  1.0000
  C   C1335     1.0  0.41791  0.64877  0.89152  1.0000
  C   C1336     1.0  0.28018  0.48502  0.76453  1.0000
  H   H1063     1.0  0.34896  0.65727  0.86946  1.0000
  H   H1064     1.0  0.47033  0.64343  0.89625  1.0000
  H   H1065     1.0  0.35761  0.72057  0.94290  1.0000
  C   C1337     1.0  0.38218  0.55941  0.79862  1.0000
  H   H1066     1.0  0.37433  0.57833  0.83183  1.0000
  C   C1338     1.0  0.20415  0.51808  0.76359  1.0000
  C   C1339     1.0  0.40029  0.54491  0.79438  1.0000
  H   H1067     1.0  0.36966  0.55476  0.81102  1.0000
  C   C1340     1.0  0.34655  0.72452  0.95673  1.0000
  H   H1068     1.0  0.14124  0.77428  0.88624  1.0000
  H   H1069     1.0  0.39823  0.61111  0.89441  1.0000
  S   S185      1.0  0.19080  0.85535  0.91615  1.0000
  C   C1341     1.0  0.17692  0.91374  0.88508  1.0000
  C   C1342     1.0  0.29097  0.86528  0.81157  1.0000
  H   H1070     1.0  0.27489  0.84434  0.79955  1.0000
  H   H1071     1.0  0.42548  0.59466  0.79411  1.0000
  S   S186      1.0  0.21463  0.80566  0.94641  1.0000
  H   H1072     1.0  0.12955  0.88665  0.93305  1.0000
  H   H1073     1.0  0.36527  0.66342  0.82957  1.0000
  H   H1074     1.0  0.25841  0.72066  0.91284  1.0000
  C   C1343     1.0  0.20809  0.92495  0.77682  1.0000
  C   C1344     1.0  0.40336  0.60796  0.84246  1.0000
  H   H1075     1.0  0.40246  0.65222  0.90071  1.0000
  C   C1345     1.0  0.24960  0.52732  0.90476  1.0000
  H   H1076     1.0  0.17605  0.88780  0.94393  1.0000
  C   C1346     1.0  0.30177  0.60080  0.76618  1.0000
  C   C1347     1.0  0.29262  0.88635  0.81178  1.0000
  C   C1348     1.0  0.27599  0.86048  0.80039  1.0000
  H   H1077     1.0  0.30409  0.89062  0.82000  1.0000
  C   C1349     1.0  0.29907  0.56817  0.86693  1.0000
  C   C1350     1.0  0.41874  0.60450  0.80615  1.0000
  C   C1351     1.0  0.41749  0.62624  0.80131  1.0000
  H   H1078     1.0  0.47357  0.63647  0.85908  1.0000
  H   H1079     1.0  0.17056  0.52572  0.77361  1.0000
  C   C1352     1.0  0.26282  0.87646  0.78964  1.0000
  H   H1080     1.0  0.27022  0.54153  0.87908  1.0000
  C   C1353     1.0  0.21066  0.94688  0.91056  1.0000
  C   C1354     1.0  0.12408  0.87236  0.94124  1.0000
  C   C1355     1.0  0.35811  0.63001  0.75740  1.0000
  C   C1356     1.0  0.22926  0.90373  0.75106  1.0000
  Fe  Fe92      1.0  0.19162  0.83527  0.94831  1.0000
  H   H1081     1.0  0.32736  0.55551  0.82039  1.0000
  C   C1357     1.0  0.29645  0.48821  0.74764  1.0000
  C   C1358     1.0  0.32793  0.83796  0.78425  1.0000
  C   C1359     1.0  0.22132  0.92541  0.94237  1.0000
  H   H1082     1.0  0.22378  0.93588  0.88116  1.0000
  H   H1083     1.0  0.26569  0.59092  0.83103  1.0000
  C   C1360     1.0  0.21438  0.79137  0.73907  1.0000
  H   H1084     1.0  0.28901  0.63901  0.92527  1.0000
  H   H1085     1.0  0.30017  0.56540  0.88376  1.0000
  H   H1086     1.0  0.29504  0.57543  0.80687  1.0000
  C   C1361     1.0  0.29645  0.57392  0.82353  1.0000
  C   C1362     1.0  0.33640  0.57062  0.77541  1.0000
  H   H1087     1.0  0.23395  0.57333  0.84999  1.0000
  C   C1363     1.0  0.27814  0.60941  0.92608  1.0000
  H   H1088     1.0  0.36714  0.80106  0.76577  1.0000
  H   H1089     1.0  0.20434  0.59084  0.83059  1.0000
  C   C1364     1.0  0.27413  0.73010  0.95784  1.0000
  C   C1365     1.0  0.28057  0.63590  0.89515  1.0000
  H   H1090     1.0  0.39496  0.59983  0.76048  1.0000
  H   H1091     1.0  0.25981  0.77956  0.93317  1.0000
  C   C1366     1.0  0.24203  0.67944  0.74638  1.0000
  H   H1092     1.0  0.26704  0.58140  0.92232  1.0000
  C   C1367     1.0  0.28308  0.62907  0.91640  1.0000
  C   C1368     1.0  0.39215  0.68908  0.85583  1.0000
  C   C1369     1.0  0.23562  0.60028  0.86474  1.0000
  H   H1093     1.0  0.28046  0.60397  0.94246  1.0000
  C   C1370     1.0  0.27034  0.59673  0.91462  1.0000
  C   C1371     1.0  0.26716  0.60380  0.89341  1.0000
  C   C1372     1.0  0.27267  0.62333  0.88367  1.0000
  C   C1373     1.0  0.24845  0.56495  0.89504  1.0000
  H   H1094     1.0  0.22038  0.92250  0.95950  1.0000
  H   H1095     1.0  0.23185  0.62952  0.87754  1.0000
  C   C1374     1.0  0.25737  0.54447  0.89174  1.0000
  C   C1375     1.0  0.23129  0.56799  0.91124  1.0000
  C   C1376     1.0  0.23271  0.53046  0.92106  1.0000
  H   H1096     1.0  0.25676  0.51160  0.90205  1.0000
  H   H1097     1.0  0.25370  0.68974  0.98186  1.0000
  C   C1377     1.0  0.22351  0.55079  0.92426  1.0000
  H   H1098     1.0  0.12763  0.91982  0.93920  1.0000
  H   H1099     1.0  0.46962  0.50186  0.96754  1.0000
  C   C1378     1.0  0.23235  0.94049  0.74784  1.0000
  C   C1379     1.0  0.39625  0.58464  0.77017  1.0000
  Fe  Fe93      1.0  0.22172  0.80905  0.97826  1.0000
  C   C1380     1.0  0.34795  0.89805  0.76026  1.0000
  C   C1381     1.0  0.26270  0.76262  0.93573  1.0000
  C   C1382     1.0  0.20933  0.94310  0.93264  1.0000
  C   C1383     1.0  0.12016  0.83645  0.94015  1.0000
  C   C1384     1.0  0.11484  0.87060  0.96267  1.0000
  C   C1385     1.0  0.11085  0.92534  0.94243  1.0000
  C   C1386     1.0  0.18485  0.51488  0.77623  1.0000
  H   H1100     1.0  0.23744  0.50706  0.75699  1.0000
  C   C1387     1.0  0.29931  0.93671  0.88261  1.0000
  C   C1388     1.0  0.29818  0.67081  0.75562  1.0000
  H   H1101     1.0  0.05120  0.94756  0.95397  1.0000
  H   H1102     1.0  0.43977  0.52871  0.95664  1.0000
  C   C1389     1.0  0.25799  0.75130  0.92102  1.0000
  S   S187      1.0  0.20151  0.84039  0.97861  1.0000
  S   S188      1.0  0.16747  0.56241  0.74319  1.0000
  H   H1103     1.0  0.21029  0.55324  0.93677  1.0000
  H   H1104     1.0  0.27309  0.70199  0.94465  1.0000
  C   C1390     1.0  0.36937  0.71351  0.83387  1.0000
  H   H1105     1.0  0.18329  0.78349  0.73820  1.0000
  C   C1391     1.0  0.35572  0.80918  0.77704  1.0000
  C   C1392     1.0  0.22555  0.80739  0.74112  1.0000
  C   C1393     1.0  0.41427  0.56999  0.76575  1.0000
  H   H1106     1.0  0.36317  0.78666  0.80414  1.0000
  H   H1107     1.0  0.24312  0.49365  0.85442  1.0000
  C   C1394     1.0  0.19227  0.79573  0.73932  1.0000
  H   H1108     1.0  0.29784  0.65476  0.75382  1.0000
  H   H1109     1.0  0.12668  0.93199  0.97778  1.0000
  H   H1110     1.0  0.34456  0.83368  0.75311  1.0000
  H   H1111     1.0  0.11237  0.95020  0.91598  1.0000
  C   C1395     1.0  0.06786  0.94125  0.95070  1.0000
  C   C1396     1.0  0.45230  0.53299  0.96370  1.0000
  H   H1112     1.0  0.21663  0.72213  0.74119  1.0000
  C   C1397     1.0  0.10222  0.94276  0.92927  1.0000
  C   C1398     1.0  0.32051  0.56566  0.76562  1.0000
  H   H1113     1.0  0.12777  0.54916  0.74656  1.0000
  C   C1399     1.0  0.45139  0.55367  0.96692  1.0000
  C   C1400     1.0  0.46911  0.51795  0.96983  1.0000
  C   C1401     1.0  0.22169  0.67384  0.75258  1.0000
  H   H1114     1.0  0.31548  0.96963  0.77189  1.0000
  H   H1115     1.0  0.38859  0.72260  0.85406  1.0000
  H   H1116     1.0  0.40175  0.52950  0.80380  1.0000
  S   S189      1.0  0.29314  0.87130  0.74228  1.0000
  H   H1117     1.0  0.37920  0.90652  0.74953  1.0000
  C   C1402     1.0  0.23842  0.92114  0.74033  1.0000
  H   H1118     1.0  0.10769  0.81927  0.96976  1.0000
  H   H1119     1.0  0.20471  0.53136  0.75114  1.0000
  H   H1120     1.0  0.30771  0.49851  0.74839  1.0000
  C   C1403     1.0  0.33295  0.93837  0.74094  1.0000
  H   H1121     1.0  0.27490  0.76107  0.96505  1.0000
  H   H1122     1.0  0.36861  0.73890  0.96910  1.0000
  S   S190      1.0  0.19983  0.60728  0.73656  1.0000
  Fe  Fe94      1.0  0.28205  0.84192  0.73785  1.0000
  H   H1123     1.0  0.36500  0.68115  0.75176  1.0000
  C   C1404     1.0  0.22179  0.48665  0.78271  1.0000
  H   H1124     1.0  0.22371  0.83974  0.74463  1.0000
  S   S191      1.0  0.39473  0.48169  0.83818  1.0000
  H   H1125     1.0  0.23942  0.95397  0.73961  1.0000
  H   H1126     1.0  0.16461  0.81934  0.74099  1.0000
  C   C1405     1.0  0.46723  0.55939  0.97622  1.0000
  C   C1406     1.0  0.27053  0.76542  0.74156  1.0000
  H   H1127     1.0  0.46595  0.57545  0.97884  1.0000
  C   C1407     1.0  0.48433  0.54449  0.98223  1.0000
  C   C1408     1.0  0.21486  0.82754  0.74303  1.0000
  H   H1128     1.0  0.41902  0.48334  0.88972  1.0000
  C   C1409     1.0  0.28697  0.68874  0.98401  1.0000
  S   S192      1.0  0.25569  0.80010  0.98404  1.0000
  C   C1410     1.0  0.13474  0.89816  0.98240  1.0000
  C   C1411     1.0  0.13838  0.91877  0.98223  1.0000
  C   C1412     1.0  0.94971  0.04731  0.00040  1.0000
  C   C1413     1.0  0.75318  0.35449  0.00441  1.0000
  H   H1129     1.0  0.87939  0.16196  0.10472  1.0000
  H   H1130     1.0  0.77339  0.13893  0.11076  1.0000
  H   H1131     1.0  0.69490  0.41553  0.19418  1.0000
  C   C1414     1.0  0.79602  0.14174  0.13111  1.0000
  C   C1415     1.0  0.83556  0.09892  0.11123  1.0000
  Fe  Fe95      1.0  0.88406  0.99543  0.10612  1.0000
  H   H1132     1.0  0.76853  0.23770  0.00619  1.0000
  S   S193      1.0  0.89396  0.01297  0.07320  1.0000
  C   C1416     1.0  0.82704  0.06694  0.20982  1.0000
  H   H1133     1.0  0.58704  0.44734  0.03162  1.0000
  Fe  Fe96      1.0  0.85838  0.99567  0.15074  1.0000
  H   H1134     1.0  0.70971  0.33549  0.04927  1.0000
  C   C1417     1.0  0.96643  0.04825  0.01150  1.0000
  S   S194      1.0  0.84958  0.99620  0.11852  1.0000
  Fe  Fe97      1.0  0.85571  0.17729  0.99777  1.0000
  S   S195      1.0  0.83556  0.15254  0.01252  1.0000
  S   S196      1.0  0.84280  0.21013  0.00512  1.0000
  H   H1135     1.0  0.83755  0.11524  0.10937  1.0000
  C   C1418     1.0  0.84828  0.03744  0.19375  1.0000
  H   H1136     1.0  0.80364  0.21875  0.18132  1.0000
  C   C1419     1.0  0.73848  0.08199  0.18380  1.0000
  C   C1420     1.0  0.80745  0.13118  0.14742  1.0000
  Fe  Fe98      1.0  0.86655  0.13137  0.01563  1.0000
  S   S197      1.0  0.87104  0.11161  0.04766  1.0000
  H   H1137     1.0  0.78531  0.04436  0.12755  1.0000
  S   S198      1.0  0.88683  0.15681  0.00272  1.0000
  Fe  Fe99      1.0  0.76321  0.29692  0.12484  1.0000
  S   S199      1.0  0.73356  0.28199  0.12942  1.0000
  S   S200      1.0  0.75931  0.32938  0.13440  1.0000
  Fe  Fe100     1.0  0.79062  0.25924  0.10648  1.0000
  S   S201      1.0  0.76330  0.24118  0.11114  1.0000
  S   S202      1.0  0.82360  0.24478  0.09339  1.0000
  Fe  Fe101     1.0  0.74554  0.27178  0.09745  1.0000
  S   S203      1.0  0.73036  0.27099  0.06844  1.0000
  Fe  Fe102     1.0  0.75397  0.25292  0.14258  1.0000
  S   S204      1.0  0.74451  0.23604  0.17563  1.0000
  S   S205      1.0  0.77346  0.28938  0.09154  1.0000
  S   S206      1.0  0.78311  0.26844  0.13930  1.0000
  H   H1138     1.0  0.75600  0.47375  0.07260  1.0000
  S   S207      1.0  0.62436  0.37261  0.00172  1.0000
  C   C1421     1.0  0.96967  0.03416  0.02993  1.0000
  C   C1422     1.0  0.80174  0.18357  0.13901  1.0000
  C   C1423     1.0  0.93612  0.03221  0.00822  1.0000
  Fe  Fe103     1.0  0.64706  0.34345  0.01032  1.0000
  S   S208      1.0  0.64451  0.32554  0.04366  1.0000
  S   S209      1.0  0.67609  0.35918  0.00135  1.0000
  C   C1424     1.0  0.70668  0.28688  0.06206  1.0000
  C   C1425     1.0  0.69267  0.29756  0.07693  1.0000
  C   C1426     1.0  0.67342  0.30917  0.07132  1.0000
  C   C1427     1.0  0.66874  0.31114  0.05050  1.0000
  C   C1428     1.0  0.68316  0.30102  0.03549  1.0000
  C   C1429     1.0  0.70173  0.28849  0.04145  1.0000
  H   H1139     1.0  0.69656  0.29652  0.09274  1.0000
  H   H1140     1.0  0.66218  0.31672  0.08304  1.0000
  H   H1141     1.0  0.67967  0.30231  0.01945  1.0000
  H   H1142     1.0  0.71242  0.28008  0.03001  1.0000
  C   C1430     1.0  0.77289  0.05577  0.12118  1.0000
  H   H1143     1.0  0.73143  0.47681  0.19196  1.0000
  C   C1431     1.0  0.70833  0.46438  0.17899  1.0000
  S   S210      1.0  0.83150  0.01571  0.16841  1.0000
  C   C1432     1.0  0.83577  0.21636  0.03127  1.0000
  C   C1433     1.0  0.84974  0.21013  0.04633  1.0000
  C   C1434     1.0  0.84556  0.21849  0.06559  1.0000
  C   C1435     1.0  0.82715  0.23276  0.07017  1.0000
  C   C1436     1.0  0.81255  0.23801  0.05565  1.0000
  C   C1437     1.0  0.81703  0.23011  0.03615  1.0000
  H   H1144     1.0  0.86433  0.19973  0.04266  1.0000
  H   H1145     1.0  0.85687  0.21423  0.07678  1.0000
  H   H1146     1.0  0.79809  0.24863  0.05918  1.0000
  H   H1147     1.0  0.80609  0.23493  0.02465  1.0000
  C   C1438     1.0  0.75234  0.33297  0.01024  1.0000
  C   C1439     1.0  0.76116  0.46050  0.14743  1.0000
  H   H1148     1.0  0.98241  0.03513  0.03859  1.0000
  H   H1149     1.0  0.80264  0.19745  0.07909  1.0000
  C   C1440     1.0  0.74000  0.17686  0.20471  1.0000
  C   C1441     1.0  0.74193  0.19826  0.20051  1.0000
  C   C1442     1.0  0.74113  0.20938  0.18003  1.0000
  C   C1443     1.0  0.73737  0.19919  0.16391  1.0000
  C   C1444     1.0  0.73454  0.17793  0.16837  1.0000
  C   C1445     1.0  0.75283  0.05882  0.13326  1.0000
  H   H1150     1.0  0.74449  0.20617  0.21305  1.0000
  H   H1151     1.0  0.73641  0.20773  0.14814  1.0000
  H   H1152     1.0  0.76720  0.37048  0.18901  1.0000
  C   C1446     1.0  0.87738  0.08409  0.05416  1.0000
  C   C1447     1.0  0.88050  0.07057  0.03896  1.0000
  C   C1448     1.0  0.88569  0.04882  0.04495  1.0000
  C   C1449     1.0  0.88702  0.04034  0.06632  1.0000
  C   C1450     1.0  0.88326  0.05384  0.08158  1.0000
  C   C1451     1.0  0.87879  0.07561  0.07545  1.0000
  H   H1153     1.0  0.87892  0.07687  0.02267  1.0000
  H   H1154     1.0  0.88842  0.03848  0.03305  1.0000
  H   H1155     1.0  0.88432  0.04755  0.09804  1.0000
  H   H1156     1.0  0.87650  0.08595  0.08729  1.0000
  C   C1452     1.0  0.76976  0.27082  0.00267  1.0000
  S   S211      1.0  0.65125  0.41992  0.00179  1.0000
  H   H1157     1.0  0.84284  0.04110  0.06740  1.0000
  H   H1158     1.0  0.86250  0.02605  0.19250  1.0000
  H   H1159     1.0  0.62156  0.47000  0.11369  1.0000
  C   C1453     1.0  0.84371  0.06317  0.12796  1.0000
  C   C1454     1.0  0.77067  0.33368  0.15615  1.0000
  C   C1455     1.0  0.76355  0.35210  0.16525  1.0000
  C   C1456     1.0  0.77272  0.35618  0.18223  1.0000
  C   C1457     1.0  0.78944  0.34199  0.18988  1.0000
  C   C1458     1.0  0.79649  0.32355  0.18082  1.0000
  C   C1459     1.0  0.78702  0.31932  0.16416  1.0000
  H   H1160     1.0  0.75072  0.36310  0.15927  1.0000
  H   H1161     1.0  0.80959  0.31269  0.18647  1.0000
  H   H1162     1.0  0.79282  0.30535  0.15694  1.0000
  C   C1460     1.0  0.69245  0.43707  0.04636  1.0000
  C   C1461     1.0  0.70071  0.42162  0.03328  1.0000
  C   C1462     1.0  0.68794  0.41546  0.02036  1.0000
  C   C1463     1.0  0.66687  0.42502  0.02007  1.0000
  C   C1464     1.0  0.65850  0.44019  0.03348  1.0000
  C   C1465     1.0  0.67112  0.44591  0.04686  1.0000
  H   H1163     1.0  0.71719  0.41470  0.03283  1.0000
  H   H1164     1.0  0.69461  0.40396  0.00993  1.0000
  Fe  Fe104     1.0  0.65378  0.38786  0.99128  1.0000
  H   H1165     1.0  0.66454  0.45740  0.05728  1.0000
  C   C1466     1.0  0.69794  0.44717  0.17958  1.0000
  C   C1467     1.0  0.82074  0.26345  0.20754  1.0000
  C   C1468     1.0  0.72332  0.46348  0.19267  1.0000
  C   C1469     1.0  0.72855  0.44514  0.20654  1.0000
  C   C1470     1.0  0.71848  0.42772  0.20692  1.0000
  C   C1471     1.0  0.70287  0.42889  0.19373  1.0000
  H   H1166     1.0  0.81902  0.13854  0.15282  1.0000
  C   C1472     1.0  0.78079  0.18201  0.10358  1.0000
  H   H1167     1.0  0.73845  0.38568  0.00952  1.0000
  C   C1473     1.0  0.74606  0.99327  0.17261  1.0000
  H   H1168     1.0  0.91837  0.11140  0.03572  1.0000
  H   H1169     1.0  0.76906  0.32496  0.23035  1.0000
  C   C1474     1.0  0.81042  0.29239  0.04229  1.0000
  C   C1475     1.0  0.82861  0.30156  0.03396  1.0000
  C   C1476     1.0  0.82929  0.31487  0.01460  1.0000
  H   H1170     1.0  0.88156  0.15424  0.06793  1.0000
  C   C1477     1.0  0.79394  0.30868  0.01116  1.0000
  C   C1478     1.0  0.79300  0.29612  0.03113  1.0000
  C   C1479     1.0  0.82617  0.17434  0.22124  1.0000
  H   H1171     1.0  0.80103  0.18401  0.99504  1.0000
  H   H1172     1.0  0.79404  0.99821  0.20076  1.0000
  C   C1480     1.0  0.79029  0.08396  0.02501  1.0000
  H   H1173     1.0  0.76392  0.09272  0.07839  1.0000
  H   H1174     1.0  0.85456  0.00449  0.06139  1.0000
  C   C1481     1.0  0.71714  0.08552  0.18087  1.0000
  C   C1482     1.0  0.87200  0.43786  0.16364  1.0000
  H   H1175     1.0  0.71044  0.37356  0.03776  1.0000
  C   C1483     1.0  0.95601  0.01929  0.03763  1.0000
  H   H1176     1.0  0.81947  0.22845  0.14380  1.0000
  S   S212      1.0  0.71805  0.46110  0.11308  1.0000
  H   H1177     1.0  0.84455  0.16784  0.12699  1.0000
  H   H1178     1.0  0.58450  0.47675  0.13157  1.0000
  S   S213      1.0  0.67902  0.44838  0.16249  1.0000
  C   C1484     1.0  0.70566  0.06869  0.18397  1.0000
  C   C1485     1.0  0.80399  0.00022  0.08510  1.0000
  S   S214      1.0  0.79832  0.40431  0.22400  1.0000
  C   C1486     1.0  0.79717  0.02101  0.08844  1.0000
  H   H1179     1.0  0.80989  0.28238  0.05751  1.0000
  H   H1180     1.0  0.84206  0.29848  0.04270  1.0000
  H   H1181     1.0  0.58811  0.34682  0.18741  1.0000
  S   S215      1.0  0.89295  0.99722  0.13810  1.0000
  H   H1182     1.0  0.77885  0.28915  0.03808  1.0000
  H   H1183     1.0  0.76702  0.10363  0.12824  1.0000
  C   C1487     1.0  0.77691  0.06731  0.10092  1.0000
  H   H1184     1.0  0.82923  0.04028  0.11761  1.0000
  H   H1185     1.0  0.64222  0.44761  0.03345  1.0000
  C   C1488     1.0  0.73483  0.98212  0.22458  1.0000
  H   H1186     1.0  0.81255  0.32947  0.98872  1.0000
  H   H1187     1.0  0.74731  0.09512  0.18144  1.0000
  C   C1489     1.0  0.75832  0.29513  0.23314  1.0000
  C   C1490     1.0  0.79351  0.19087  0.17541  1.0000
  C   C1491     1.0  0.84592  0.05273  0.20736  1.0000
  C   C1492     1.0  0.82463  0.99427  0.07533  1.0000
  H   H1188     1.0  0.60932  0.37380  0.16708  1.0000
  C   C1493     1.0  0.76093  0.08280  0.09343  1.0000
  H   H1189     1.0  0.72858  0.09778  0.09973  1.0000
  C   C1494     1.0  0.79140  0.37573  0.04223  1.0000
  C   C1495     1.0  0.78235  0.35725  0.04599  1.0000
  C   C1496     1.0  0.77043  0.35154  0.06561  1.0000
  C   C1497     1.0  0.76770  0.36421  0.08154  1.0000
  C   C1498     1.0  0.77677  0.38276  0.07795  1.0000
  C   C1499     1.0  0.78869  0.38845  0.05817  1.0000
  P   P47       1.0  0.77366  0.39841  0.09909  1.0000
  C   C1500     1.0  0.74613  0.40075  0.11115  1.0000
  C   C1501     1.0  0.79104  0.38655  0.11853  1.0000
  C   C1502     1.0  0.79529  0.39847  0.13312  1.0000
  C   C1503     1.0  0.80870  0.38955  0.14820  1.0000
  C   C1504     1.0  0.81817  0.36871  0.14870  1.0000
  C   C1505     1.0  0.81427  0.35681  0.13409  1.0000
  C   C1506     1.0  0.80066  0.36561  0.11914  1.0000
  C   C1507     1.0  0.72995  0.40316  0.09842  1.0000
  C   C1508     1.0  0.70860  0.40629  0.10741  1.0000
  C   C1509     1.0  0.70322  0.40681  0.12920  1.0000
  C   C1510     1.0  0.71919  0.40407  0.14203  1.0000
  C   C1511     1.0  0.74056  0.40112  0.13307  1.0000
  C   C1512     1.0  0.77998  0.42444  0.08875  1.0000
  C   C1513     1.0  0.80076  0.42885  0.08768  1.0000
  C   C1514     1.0  0.80522  0.44938  0.08171  1.0000
  C   C1515     1.0  0.78903  0.46560  0.07653  1.0000
  C   C1516     1.0  0.76857  0.46119  0.07668  1.0000
  C   C1517     1.0  0.76410  0.44069  0.08255  1.0000
  H   H1190     1.0  0.80056  0.38019  0.02697  1.0000
  H   H1191     1.0  0.78461  0.34729  0.03377  1.0000
  H   H1192     1.0  0.76344  0.33719  0.06858  1.0000
  H   H1193     1.0  0.75877  0.35941  0.09683  1.0000
  H   H1194     1.0  0.79586  0.40265  0.05502  1.0000
  H   H1195     1.0  0.78809  0.41466  0.13288  1.0000
  H   H1196     1.0  0.81156  0.39866  0.15971  1.0000
  H   H1197     1.0  0.82811  0.36162  0.16077  1.0000
  H   H1198     1.0  0.82123  0.34051  0.13479  1.0000
  H   H1199     1.0  0.79748  0.35582  0.10845  1.0000
  H   H1200     1.0  0.73376  0.40339  0.08138  1.0000
  H   H1201     1.0  0.69626  0.40891  0.09730  1.0000
  H   H1202     1.0  0.68669  0.40983  0.13610  1.0000
  H   H1203     1.0  0.71498  0.40474  0.15887  1.0000
  H   H1204     1.0  0.75259  0.39935  0.14329  1.0000
  H   H1205     1.0  0.81344  0.41650  0.09182  1.0000
  H   H1206     1.0  0.82115  0.45274  0.08133  1.0000
  H   H1207     1.0  0.73092  0.30895  0.98544  1.0000
  C   C1518     1.0  0.75915  0.29106  0.99708  1.0000
  H   H1208     1.0  0.74812  0.43776  0.08252  1.0000
  H   H1209     1.0  0.70475  0.47849  0.16811  1.0000
  C   C1519     1.0  0.83846  0.00913  0.06876  1.0000
  S   S216      1.0  0.80258  0.34681  0.21017  1.0000
  C   C1520     1.0  0.74055  0.25588  0.99477  1.0000
  C   C1521     1.0  0.77381  0.43131  0.17261  1.0000
  C   C1522     1.0  0.75904  0.44083  0.15909  1.0000
  H   H1210     1.0  0.57550  0.27515  0.98697  1.0000
  S   S217      1.0  0.73447  0.13952  0.19339  1.0000
  H   H1211     1.0  0.77833  0.08279  0.01546  1.0000
  H   H1212     1.0  0.77178  0.41634  0.18220  1.0000
  H   H1213     1.0  0.74550  0.43339  0.15822  1.0000
  H   H1214     1.0  0.74101  0.16841  0.22050  1.0000
  H   H1215     1.0  0.81829  0.20608  0.11704  1.0000
  H   H1216     1.0  0.82286  0.20777  0.21649  1.0000
  C   C1523     1.0  0.76688  0.03269  0.23319  1.0000
  H   H1217     1.0  0.73095  0.99030  0.18176  1.0000
  C   C1524     1.0  0.72240  0.36225  0.03046  1.0000
  H   H1218     1.0  0.78098  0.02530  0.09558  1.0000
  P   P48       1.0  0.74922  0.01866  0.20259  1.0000
  C   C1525     1.0  0.68185  0.26716  0.13604  1.0000
  C   C1526     1.0  0.68896  0.25310  0.15308  1.0000
  C   C1527     1.0  0.69119  0.26042  0.17160  1.0000
  C   C1528     1.0  0.68682  0.28186  0.17292  1.0000
  C   C1529     1.0  0.68075  0.29622  0.15543  1.0000
  C   C1530     1.0  0.67751  0.28860  0.13731  1.0000
  P   P49       1.0  0.67566  0.32406  0.15664  1.0000
  C   C1531     1.0  0.64796  0.33124  0.16668  1.0000
  C   C1532     1.0  0.69237  0.33174  0.17315  1.0000
  C   C1533     1.0  0.68624  0.35041  0.18202  1.0000
  C   C1534     1.0  0.69951  0.35688  0.19396  1.0000
  C   C1535     1.0  0.71881  0.34458  0.19754  1.0000
  C   C1536     1.0  0.72508  0.32604  0.18876  1.0000
  C   C1537     1.0  0.71223  0.31992  0.17615  1.0000
  C   C1538     1.0  0.63822  0.35211  0.16275  1.0000
  C   C1539     1.0  0.61675  0.35769  0.17031  1.0000
  C   C1540     1.0  0.61432  0.32169  0.18563  1.0000
  C   C1541     1.0  0.63581  0.31605  0.17812  1.0000
  C   C1542     1.0  0.68135  0.33801  0.13014  1.0000
  C   C1543     1.0  0.66571  0.34282  0.11657  1.0000
  C   C1544     1.0  0.66999  0.35398  0.09624  1.0000
  C   C1545     1.0  0.68993  0.36022  0.08923  1.0000
  C   C1546     1.0  0.70571  0.35507  0.10242  1.0000
  C   C1547     1.0  0.70148  0.34404  0.12280  1.0000
  H   H1219     1.0  0.68015  0.26151  0.12162  1.0000
  H   H1220     1.0  0.69297  0.23654  0.15189  1.0000
  H   H1221     1.0  0.69690  0.24946  0.18470  1.0000
  H   H1222     1.0  0.68871  0.28713  0.18741  1.0000
  H   H1223     1.0  0.67200  0.29916  0.12394  1.0000
  H   H1224     1.0  0.67153  0.36036  0.17931  1.0000
  H   H1225     1.0  0.72926  0.34974  0.20652  1.0000
  H   H1226     1.0  0.74041  0.31686  0.19089  1.0000
  H   H1227     1.0  0.71820  0.30630  0.16831  1.0000
  H   H1228     1.0  0.64716  0.36406  0.15364  1.0000
  H   H1229     1.0  0.66201  0.31036  0.21152  1.0000
  H   H1230     1.0  0.64276  0.29979  0.18111  1.0000
  H   H1231     1.0  0.65026  0.33780  0.12153  1.0000
  H   H1232     1.0  0.65795  0.35751  0.08572  1.0000
  H   H1233     1.0  0.69314  0.36891  0.07353  1.0000
  H   H1234     1.0  0.72127  0.35963  0.09689  1.0000
  H   H1235     1.0  0.71400  0.34022  0.13269  1.0000
  H   H1236     1.0  0.85183  0.05176  0.13925  1.0000
  H   H1237     1.0  0.92826  0.00723  0.03322  1.0000
  H   H1238     1.0  0.72261  0.41349  0.21747  1.0000
  H   H1239     1.0  0.92260  0.03150  0.00059  1.0000
  H   H1240     1.0  0.78687  0.08545  0.15739  1.0000
  P   P50       1.0  0.77120  0.31400  0.99706  1.0000
  C   C1548     1.0  0.93926  0.01833  0.02678  1.0000
  C   C1549     1.0  0.77793  0.47072  0.14930  1.0000
  H   H1241     1.0  0.83584  0.17296  0.20598  1.0000
  H   H1242     1.0  0.73676  0.21617  0.07310  1.0000
  C   C1550     1.0  0.78887  0.07456  0.04624  1.0000
  H   H1243     1.0  0.60919  0.44825  0.99637  1.0000
  P   P51       1.0  0.81401  0.47525  0.16557  1.0000
  C   C1551     1.0  0.79840  0.24061  0.23140  1.0000
  H   H1244     1.0  0.72128  0.07621  0.13490  1.0000
  C   C1552     1.0  0.78623  0.19556  0.08485  1.0000
  C   C1553     1.0  0.83183  0.02982  0.07237  1.0000
  C   C1554     1.0  0.77057  0.02005  0.21703  1.0000
  Fe  Fe105     1.0  0.70004  0.46837  0.08509  1.0000
  C   C1555     1.0  0.83653  0.44658  0.19371  1.0000
  C   C1556     1.0  0.77827  0.11135  0.13357  1.0000
  C   C1557     1.0  0.81122  0.03590  0.08239  1.0000
  H   H1245     1.0  0.79687  0.07761  0.19891  1.0000
  C   C1558     1.0  0.73680  0.07381  0.12547  1.0000
  H   H1246     1.0  0.77593  0.06578  0.05287  1.0000
  C   C1559     1.0  0.80733  0.09468  0.01594  1.0000
  C   C1560     1.0  0.79072  0.44148  0.17440  1.0000
  C   C1561     1.0  0.74089  0.08589  0.10562  1.0000
  H   H1247     1.0  0.80069  0.05069  0.17557  1.0000
  C   C1562     1.0  0.80659  0.26667  0.19269  1.0000
  C   C1563     1.0  0.74823  0.06172  0.19036  1.0000
  H   H1248     1.0  0.76474  0.05935  0.19270  1.0000
  C   C1564     1.0  0.73660  0.04484  0.19429  1.0000
  H   H1249     1.0  0.78607  0.02206  0.16942  1.0000
  C   C1565     1.0  0.87165  0.42788  0.18461  1.0000
  H   H1250     1.0  0.73100  0.17016  0.15616  1.0000
  C   C1566     1.0  0.78469  0.00084  0.14797  1.0000
  H   H1251     1.0  0.79989  0.00353  0.13868  1.0000
  C   C1567     1.0  0.84609  0.08425  0.12577  1.0000
  H   H1252     1.0  0.88583  0.43453  0.15202  1.0000
  C   C1568     1.0  0.93497  0.12857  0.00832  1.0000
  C   C1569     1.0  0.80424  0.07630  0.05869  1.0000
  H   H1253     1.0  0.74972  0.04955  0.14867  1.0000
  C   C1570     1.0  0.80406  0.11102  0.15694  1.0000
  C   C1571     1.0  0.71541  0.04837  0.19041  1.0000
  C   C1572     1.0  0.82161  0.08655  0.04924  1.0000
  H   H1254     1.0  0.83650  0.10378  0.02095  1.0000
  C   C1573     1.0  0.81669  0.25046  0.22686  1.0000
  C   C1574     1.0  0.92680  0.11092  0.01976  1.0000
  C   C1575     1.0  0.74899  0.20634  0.08140  1.0000
  C   C1576     1.0  0.73643  0.16656  0.18859  1.0000
  C   C1577     1.0  0.82304  0.09584  0.02802  1.0000
  C   C1578     1.0  0.81104  0.06632  0.19789  1.0000
  C   C1579     1.0  0.86501  0.16132  0.09840  1.0000
  C   C1580     1.0  0.78819  0.25722  0.19727  1.0000
  H   H1255     1.0  0.83431  0.08711  0.05802  1.0000
  C   C1581     1.0  0.92921  0.09266  0.01056  1.0000
  H   H1256     1.0  0.81911  0.46889  0.12107  1.0000
  C   C1582     1.0  0.72195  0.34084  0.03687  1.0000
  C   C1583     1.0  0.82065  0.07123  0.10057  1.0000
  H   H1257     1.0  0.81295  0.10306  0.16953  1.0000
  H   H1258     1.0  0.77717  0.25964  0.18579  1.0000
  H   H1259     1.0  0.88515  0.41680  0.18926  1.0000
  H   H1260     1.0  0.70634  0.03547  0.19270  1.0000
  C   C1584     1.0  0.83172  0.03645  0.18257  1.0000
  C   C1585     1.0  0.74343  0.19320  0.10023  1.0000
  H   H1261     1.0  0.85615  0.08919  0.13529  1.0000
  P   P52       1.0  0.80295  0.06303  0.08567  1.0000
  H   H1262     1.0  0.79338  0.98859  0.09009  1.0000
  C   C1586     1.0  0.75812  0.00665  0.17871  1.0000
  H   H1263     1.0  0.84884  0.15258  0.05361  1.0000
  S   S218      1.0  0.66811  0.47556  0.10455  1.0000
  H   H1264     1.0  0.77027  0.23623  0.21914  1.0000
  P   P53       1.0  0.80097  0.16767  0.11897  1.0000
  H   H1265     1.0  0.83138  0.26277  0.00175  1.0000
  H   H1266     1.0  0.78381  0.16514  0.16481  1.0000
  C   C1587     1.0  0.85458  0.45222  0.15769  1.0000
  C   C1588     1.0  0.65996  0.31225  0.22811  1.0000
  C   C1589     1.0  0.73134  0.00409  0.22174  1.0000
  C   C1590     1.0  0.79068  0.00827  0.21287  1.0000
  S   S219      1.0  0.70962  0.44548  0.06099  1.0000
  C   C1591     1.0  0.83668  0.45667  0.17273  1.0000
  C   C1592     1.0  0.84520  0.16476  0.11092  1.0000
  C   C1593     1.0  0.73700  0.32625  0.02694  1.0000
  H   H1267     1.0  0.85352  0.42453  0.21597  1.0000
  C   C1594     1.0  0.73815  0.36907  0.01441  1.0000
  H   H1268     1.0  0.95805  0.00878  0.05227  1.0000
  C   C1595     1.0  0.82253  0.09251  0.09899  1.0000
  H   H1269     1.0  0.82289  0.44979  0.20545  1.0000
  C   C1596     1.0  0.79233  0.17846  0.16011  1.0000
  C   C1597     1.0  0.86627  0.15702  0.07770  1.0000
  C   C1598     1.0  0.80706  0.00987  0.22396  1.0000
  C   C1599     1.0  0.93973  0.09192  0.98972  1.0000
  C   C1600     1.0  0.77697  0.01109  0.16564  1.0000
  S   S220      1.0  0.82335  0.08512  0.22801  1.0000
  S   S221      1.0  0.74758  0.44479  0.22321  1.0000
  C   C1601     1.0  0.81219  0.21432  0.14853  1.0000
  C   C1602     1.0  0.75362  0.98329  0.15469  1.0000
  H   H1270     1.0  0.81390  0.15785  0.07564  1.0000
  H   H1271     1.0  0.85524  0.45984  0.14143  1.0000
  H   H1272     1.0  0.76254  0.18522  0.99424  1.0000
  C   C1603     1.0  0.83099  0.05667  0.11549  1.0000
  C   C1604     1.0  0.60480  0.34250  0.18176  1.0000
  H   H1273     1.0  0.69505  0.37166  0.20009  1.0000
  C   C1605     1.0  0.82650  0.16419  0.10266  1.0000
  C   C1606     1.0  0.78419  0.24407  0.21643  1.0000
  H   H1274     1.0  0.84325  0.32233  0.00839  1.0000
  H   H1275     1.0  0.72685  0.19274  0.10650  1.0000
  C   C1607     1.0  0.78941  0.10112  0.15007  1.0000
  Fe  Fe106     1.0  0.68666  0.47021  0.13218  1.0000
  H   H1276     1.0  0.60496  0.30986  0.19423  1.0000
  C   C1608     1.0  0.77039  0.20742  0.07367  1.0000
  H   H1277     1.0  0.83506  0.27073  0.20387  1.0000
  C   C1609     1.0  0.85389  0.43223  0.19966  1.0000
  C   C1610     1.0  0.81336  0.05120  0.18440  1.0000
  C   C1611     1.0  0.84777  0.15601  0.06960  1.0000
  H   H1278     1.0  0.77465  0.21802  0.05937  1.0000
  H   H1279     1.0  0.92281  0.07913  0.01977  1.0000
  H   H1280     1.0  0.80169  0.43399  0.18520  1.0000
  H   H1281     1.0  0.75481  0.17138  0.12603  1.0000
  H   H1282     1.0  0.68911  0.07145  0.18161  1.0000
  C   C1612     1.0  0.81141  0.20170  0.13332  1.0000
  H   H1283     1.0  0.73656  0.30973  0.03218  1.0000
  H   H1284     1.0  0.81414  0.10417  0.08816  1.0000
  C   C1613     1.0  0.82799  0.15917  0.08211  1.0000
  H   H1285     1.0  0.85851  0.05322  0.21637  1.0000
  H   H1286     1.0  0.70956  0.10137  0.17634  1.0000
  C   C1614     1.0  0.78175  0.13150  0.12388  1.0000
  H   H1287     1.0  0.81002  0.27626  0.17751  1.0000
  C   C1615     1.0  0.75927  0.18113  0.11128  1.0000
  C   C1616     1.0  0.79290  0.46132  0.16277  1.0000
  H   H1288     1.0  0.78630  0.18681  0.19167  1.0000
  Fe  Fe107     1.0  0.74781  0.12274  0.22293  1.0000
  C   C1617     1.0  0.61818  0.47838  0.99688  1.0000
  C   C1618     1.0  0.80330  0.20886  0.16960  1.0000
  H   H1289     1.0  0.93293  0.14277  0.01540  1.0000
  H   H1290     1.0  0.82281  0.00152  0.21984  1.0000
  H   H1291     1.0  0.97656  0.06030  0.00626  1.0000
  C   C1619     1.0  0.81192  0.31865  0.00337  1.0000
  C   C1620     1.0  0.59500  0.46081  0.02511  1.0000
  H   H1292     1.0  0.76526  0.36002  0.99199  1.0000
  H   H1293     1.0  0.74945  0.46819  0.13738  1.0000
  C   C1621     1.0  0.73014  0.27597  0.98872  1.0000
  C   C1622     1.0  0.59381  0.47703  0.03707  1.0000
  H   H1294     1.0  0.77285  0.28813  0.22444  1.0000
  C   C1623     1.0  0.76039  0.25330  0.00167  1.0000
  C   C1624     1.0  0.73934  0.29349  0.98998  1.0000
  Fe  Fe108     1.0  0.78991  0.37176  0.23144  1.0000
  S   S222      1.0  0.76193  0.08877  0.22683  1.0000
  H   H1295     1.0  0.73322  0.24233  0.99414  1.0000
  H   H1296     1.0  0.78525  0.26844  0.00769  1.0000
  H   H1297     1.0  0.80850  0.10186  0.99947  1.0000
  H   H1298     1.0  0.82641  0.14100  0.22989  1.0000
  C   C1625     1.0  0.60739  0.46136  0.00515  1.0000
  C   C1626     1.0  0.81866  0.19412  0.22728  1.0000
  H   H1299     1.0  0.69185  0.31822  0.22660  1.0000
  C   C1627     1.0  0.77314  0.98674  0.14263  1.0000
  C   C1628     1.0  0.94529  0.12807  0.98756  1.0000
  H   H1300     1.0  0.89867  0.08415  0.98930  1.0000
  H   H1301     1.0  0.82083  0.30378  0.22434  1.0000
  S   S223      1.0  0.77629  0.13358  0.23070  1.0000
  H   H1302     1.0  0.58472  0.47586  0.05279  1.0000
  H   H1303     1.0  0.85910  0.29951  0.22777  1.0000
  H   H1304     1.0  0.67685  0.39785  0.23182  1.0000
  C   C1629     1.0  0.83376  0.26435  0.98455  1.0000
  C   C1630     1.0  0.79286  0.19601  0.98434  1.0000
  Fe  Fe109     1.0  0.91765  0.45308  0.34199  1.0000
  S   S224      1.0  0.65511  0.09723  0.47874  1.0000
  S   S225      1.0  0.93913  0.42251  0.35032  1.0000
  H   H1305     1.0  0.65374  0.98352  0.26722  1.0000
  H   H1306     1.0  0.80366  0.14426  0.26458  1.0000
  S   S226      1.0  0.83905  0.46192  0.34003  1.0000
  H   H1307     1.0  0.85718  0.40672  0.32493  1.0000
  S   S227      1.0  0.89663  0.45561  0.31723  1.0000
  C   C1631     1.0  0.77982  0.22078  0.46308  1.0000
  C   C1632     1.0  0.76481  0.25335  0.44377  1.0000
  Fe  Fe110     1.0  0.76605  0.37929  0.27462  1.0000
  S   S228      1.0  0.79994  0.36667  0.26401  1.0000
  S   S229      1.0  0.74904  0.36684  0.30626  1.0000
  Fe  Fe111     1.0  0.80497  0.40041  0.25766  1.0000
  S   S230      1.0  0.83376  0.41248  0.26429  1.0000
  H   H1308     1.0  0.90802  0.40263  0.43522  1.0000
  S   S231      1.0  0.77181  0.41255  0.27062  1.0000
  C   C1633     1.0  0.95409  0.39087  0.43823  1.0000
  S   S232      1.0  0.65205  0.02003  0.30400  1.0000
  C   C1634     1.0  0.81673  0.28965  0.33993  1.0000
  H   H1309     1.0  0.76262  0.19930  0.24405  1.0000
  C   C1635     1.0  0.78816  0.31368  0.35567  1.0000
  Fe  Fe112     1.0  0.74715  0.08754  0.26082  1.0000
  S   S233      1.0  0.77519  0.09689  0.27170  1.0000
  S   S234      1.0  0.73915  0.05645  0.27893  1.0000
  Fe  Fe113     1.0  0.75939  0.12992  0.26419  1.0000
  S   S235      1.0  0.75343  0.15827  0.28126  1.0000
  H   H1310     1.0  0.76614  0.45955  0.25496  1.0000
  H   H1311     1.0  0.88285  0.25125  0.35847  1.0000
  S   S236      1.0  0.73002  0.12054  0.25609  1.0000
  C   C1636     1.0  0.66448  0.19614  0.44160  1.0000
  Fe  Fe114     1.0  0.90218  0.33077  0.44240  1.0000
  S   S237      1.0  0.87678  0.35615  0.45245  1.0000
  S   S238      1.0  0.92381  0.33708  0.41117  1.0000
  Fe  Fe115     1.0  0.85551  0.33096  0.45889  1.0000
  S   S239      1.0  0.82447  0.33305  0.44539  1.0000
  S   S240      1.0  0.88086  0.30601  0.44765  1.0000
  H   H1312     1.0  0.78915  0.31393  0.46868  1.0000
  Fe  Fe116     1.0  0.77549  0.20729  0.37195  1.0000
  S   S241      1.0  0.74334  0.22365  0.36544  1.0000
  S   S242      1.0  0.78728  0.17482  0.36302  1.0000
  Fe  Fe117     1.0  0.78526  0.24481  0.39044  1.0000
  S   S243      1.0  0.75372  0.26377  0.38486  1.0000
  S   S244      1.0  0.81268  0.25493  0.40270  1.0000
  Fe  Fe118     1.0  0.74048  0.23350  0.39746  1.0000
  S   S245      1.0  0.70902  0.23379  0.41888  1.0000
  Fe  Fe119     1.0  0.75979  0.25175  0.35341  1.0000
  S   S246      1.0  0.75689  0.26831  0.32022  1.0000
  S   S247      1.0  0.77157  0.21523  0.40514  1.0000
  S   S248      1.0  0.79220  0.23480  0.35801  1.0000
  C   C1637     1.0  0.69715  0.21099  0.42888  1.0000
  H   H1313     1.0  0.87057  0.01233  0.38495  1.0000
  H   H1314     1.0  0.77443  0.31656  0.36755  1.0000
  H   H1315     1.0  0.97774  0.33871  0.41653  1.0000
  C   C1638     1.0  0.70882  0.19088  0.43225  1.0000
  C   C1639     1.0  0.82040  0.31115  0.43410  1.0000
  C   C1640     1.0  0.80408  0.31306  0.42153  1.0000
  C   C1641     1.0  0.80080  0.29586  0.41240  1.0000
  C   C1642     1.0  0.81412  0.27667  0.41543  1.0000
  C   C1643     1.0  0.82999  0.27470  0.42840  1.0000
  C   C1644     1.0  0.83281  0.29162  0.43798  1.0000
  H   H1316     1.0  0.79406  0.32795  0.41870  1.0000
  H   H1317     1.0  0.78834  0.29760  0.40266  1.0000
  H   H1318     1.0  0.84015  0.25988  0.43124  1.0000
  H   H1319     1.0  0.84450  0.28933  0.44860  1.0000
  C   C1645     1.0  0.76220  0.16152  0.30484  1.0000
  C   C1646     1.0  0.77423  0.14546  0.31684  1.0000
  C   C1647     1.0  0.78139  0.14951  0.33506  1.0000
  C   C1648     1.0  0.77729  0.16969  0.34083  1.0000
  C   C1649     1.0  0.76544  0.18564  0.32866  1.0000
  C   C1650     1.0  0.75759  0.18145  0.31108  1.0000
  H   H1320     1.0  0.77812  0.13007  0.31203  1.0000
  H   H1321     1.0  0.79032  0.13714  0.34465  1.0000
  H   H1322     1.0  0.76267  0.20137  0.33246  1.0000
  H   H1323     1.0  0.74837  0.19392  0.30192  1.0000
  H   H1324     1.0  0.72596  0.18882  0.42864  1.0000
  P   P54       1.0  0.85459  0.37345  0.36162  1.0000
  H   H1325     1.0  0.88293  0.30979  0.32380  1.0000
  H   H1326     1.0  0.81619  0.33898  0.31271  1.0000
  C   C1651     1.0  0.84571  0.33216  0.36795  1.0000
  S   S249      1.0  0.64082  0.00504  0.40862  1.0000
  C   C1652     1.0  0.67593  0.03076  0.29707  1.0000
  C   C1653     1.0  0.69429  0.02016  0.30484  1.0000
  C   C1654     1.0  0.71338  0.02841  0.29906  1.0000
  C   C1655     1.0  0.71440  0.04738  0.28549  1.0000
  C   C1656     1.0  0.69610  0.05810  0.27747  1.0000
  C   C1657     1.0  0.67689  0.04964  0.28311  1.0000
  H   H1327     1.0  0.69391  0.00531  0.31493  1.0000
  H   H1328     1.0  0.72744  0.01987  0.30511  1.0000
  H   H1329     1.0  0.69680  0.07267  0.26682  1.0000
  H   H1330     1.0  0.66276  0.05773  0.27673  1.0000
  C   C1658     1.0  0.75113  0.33947  0.31013  1.0000
  C   C1659     1.0  0.75847  0.32826  0.29309  1.0000
  C   C1660     1.0  0.75979  0.30640  0.29632  1.0000
  C   C1661     1.0  0.75478  0.29565  0.31673  1.0000
  C   C1662     1.0  0.74746  0.30684  0.33377  1.0000
  C   C1663     1.0  0.74524  0.32878  0.33038  1.0000
  H   H1331     1.0  0.76295  0.33647  0.27741  1.0000
  H   H1332     1.0  0.76496  0.29772  0.28309  1.0000
  H   H1333     1.0  0.74317  0.29863  0.34948  1.0000
  H   H1334     1.0  0.73939  0.33744  0.34356  1.0000
  C   C1664     1.0  0.69141  0.02496  0.42658  1.0000
  C   C1665     1.0  0.93317  0.39972  0.36816  1.0000
  C   C1666     1.0  0.91456  0.39879  0.38299  1.0000
  C   C1667     1.0  0.91136  0.37989  0.39680  1.0000
  C   C1668     1.0  0.92658  0.36184  0.39547  1.0000
  C   C1669     1.0  0.94481  0.36297  0.38043  1.0000
  C   C1670     1.0  0.94825  0.38173  0.36726  1.0000
  H   H1335     1.0  0.90276  0.41257  0.38386  1.0000
  H   H1336     1.0  0.89704  0.37921  0.40812  1.0000
  H   H1337     1.0  0.95659  0.34921  0.37913  1.0000
  H   H1338     1.0  0.96266  0.38220  0.35601  1.0000
  C   C1671     1.0  0.83573  0.45053  0.31774  1.0000
  C   C1672     1.0  0.81834  0.43987  0.31856  1.0000
  C   C1673     1.0  0.81658  0.42935  0.30162  1.0000
  C   C1674     1.0  0.83287  0.42836  0.28432  1.0000
  C   C1675     1.0  0.84959  0.43984  0.28309  1.0000
  C   C1676     1.0  0.85057  0.45140  0.29928  1.0000
  H   H1339     1.0  0.80647  0.43935  0.33248  1.0000
  H   H1340     1.0  0.80299  0.42154  0.30227  1.0000
  H   H1341     1.0  0.86184  0.43997  0.26943  1.0000
  H   H1342     1.0  0.82471  0.27374  0.33998  1.0000
  H   H1343     1.0  0.73115  0.25701  0.44275  1.0000
  C   C1677     1.0  0.79426  0.32995  0.34015  1.0000
  C   C1678     1.0  0.88471  0.23821  0.32958  1.0000
  C   C1679     1.0  0.87484  0.33784  0.38462  1.0000
  H   H1344     1.0  0.62213  0.00062  0.28848  1.0000
  H   H1345     1.0  0.62260  0.31173  0.27203  1.0000
  C   C1680     1.0  0.70529  0.98107  0.25311  1.0000
  C   C1681     1.0  0.79928  0.29352  0.35542  1.0000
  H   H1346     1.0  0.94977  0.33886  0.44770  1.0000
  H   H1347     1.0  0.79085  0.17902  0.27540  1.0000
  C   C1682     1.0  0.86483  0.30321  0.38900  1.0000
  H   H1348     1.0  0.93863  0.45335  0.37721  1.0000
  H   H1349     1.0  0.68705  0.00274  0.40681  1.0000
  H   H1350     1.0  0.78702  0.15783  0.41976  1.0000
  C   C1683     1.0  0.84537  0.41301  0.41606  1.0000
  H   H1351     1.0  0.72410  0.20132  0.25473  1.0000
  H   H1352     1.0  0.78091  0.18557  0.44243  1.0000
  H   H1353     1.0  0.68931  0.01093  0.26096  1.0000
  C   C1684     1.0  0.72293  0.29278  0.25214  1.0000
  C   C1685     1.0  0.77663  0.15611  0.43480  1.0000
  H   H1354     1.0  0.76956  0.45673  0.35621  1.0000
  C   C1686     1.0  0.73279  0.21111  0.26104  1.0000
  C   C1687     1.0  0.91459  0.37957  0.33024  1.0000
  S   S250      1.0  0.66115  0.15484  0.45277  1.0000
  H   H1355     1.0  0.88717  0.41904  0.30007  1.0000
  C   C1688     1.0  0.94698  0.37202  0.44815  1.0000
  C   C1689     1.0  0.72225  0.22439  0.27551  1.0000
  C   C1690     1.0  0.74206  0.22774  0.46112  1.0000
  H   H1356     1.0  0.84242  0.34215  0.27784  1.0000
  H   H1357     1.0  0.81972  0.19395  0.28596  1.0000
  C   C1691     1.0  0.71502  0.01443  0.23521  1.0000
  H   H1358     1.0  0.79377  0.30689  0.25601  1.0000
  C   C1692     1.0  0.87303  0.39850  0.32625  1.0000
  C   C1693     1.0  0.88148  0.40765  0.45963  1.0000
  H   H1359     1.0  0.72817  0.98005  0.30659  1.0000
  C   C1694     1.0  0.83819  0.30103  0.27977  1.0000
  C   C1695     1.0  0.81062  0.38353  0.36311  1.0000
  C   C1696     1.0  0.89006  0.40577  0.31223  1.0000
  C   C1697     1.0  0.81657  0.30368  0.27760  1.0000
  H   H1360     1.0  0.66590  0.22891  0.43150  1.0000
  C   C1698     1.0  0.77286  0.17201  0.44755  1.0000
  C   C1699     1.0  0.73176  0.16389  0.38639  1.0000
  C   C1700     1.0  0.72845  0.14676  0.40197  1.0000
  C   C1701     1.0  0.70947  0.13840  0.40486  1.0000
  C   C1702     1.0  0.69357  0.14753  0.39252  1.0000
  C   C1703     1.0  0.69638  0.16537  0.37753  1.0000
  C   C1704     1.0  0.71593  0.17300  0.37394  1.0000
  P   P55       1.0  0.67539  0.17799  0.36248  1.0000
  C   C1705     1.0  0.64952  0.17466  0.37723  1.0000
  C   C1706     1.0  0.67528  0.20591  0.35826  1.0000
  C   C1707     1.0  0.66822  0.21825  0.34009  1.0000
  C   C1708     1.0  0.66710  0.24003  0.33748  1.0000
  C   C1709     1.0  0.67270  0.24959  0.35314  1.0000
  C   C1710     1.0  0.67954  0.23742  0.37135  1.0000
  C   C1711     1.0  0.68068  0.21567  0.37400  1.0000
  C   C1712     1.0  0.63222  0.17431  0.36670  1.0000
  C   C1713     1.0  0.61216  0.17212  0.37831  1.0000
  C   C1714     1.0  0.60917  0.17070  0.40045  1.0000
  C   C1715     1.0  0.62615  0.17175  0.41094  1.0000
  C   C1716     1.0  0.64615  0.17399  0.39936  1.0000
  C   C1717     1.0  0.68036  0.16720  0.33788  1.0000
  C   C1718     1.0  0.67118  0.14973  0.33602  1.0000
  C   C1719     1.0  0.67533  0.14126  0.31698  1.0000
  C   C1720     1.0  0.68894  0.14996  0.29984  1.0000
  C   C1721     1.0  0.69855  0.16700  0.30180  1.0000
  C   C1722     1.0  0.69454  0.17543  0.32082  1.0000
  H   H1361     1.0  0.74642  0.17044  0.38430  1.0000
  H   H1362     1.0  0.74051  0.14015  0.41195  1.0000
  H   H1363     1.0  0.70672  0.12530  0.41718  1.0000
  H   H1364     1.0  0.67891  0.14101  0.39514  1.0000
  H   H1365     1.0  0.71879  0.18633  0.36198  1.0000
  H   H1366     1.0  0.66328  0.21110  0.32811  1.0000
  H   H1367     1.0  0.66161  0.24953  0.32348  1.0000
  H   H1368     1.0  0.67147  0.26644  0.35135  1.0000
  H   H1369     1.0  0.68381  0.24478  0.38360  1.0000
  H   H1370     1.0  0.68556  0.20657  0.38848  1.0000
  H   H1371     1.0  0.63412  0.17595  0.34955  1.0000
  H   H1372     1.0  0.59888  0.17170  0.37016  1.0000
  H   H1373     1.0  0.59366  0.16902  0.40949  1.0000
  H   H1374     1.0  0.62391  0.17090  0.42810  1.0000
  H   H1375     1.0  0.65897  0.17526  0.40775  1.0000
  H   H1376     1.0  0.66115  0.14239  0.34935  1.0000
  H   H1377     1.0  0.66837  0.12768  0.31563  1.0000
  H   H1378     1.0  0.69244  0.14323  0.28518  1.0000
  H   H1379     1.0  0.70949  0.17340  0.28866  1.0000
  H   H1380     1.0  0.70272  0.18818  0.32226  1.0000
  H   H1381     1.0  0.93076  0.37273  0.33226  1.0000
  H   H1382     1.0  0.77083  0.12528  0.43215  1.0000
  C   C1723     1.0  0.83011  0.37889  0.35026  1.0000
  H   H1383     1.0  0.81150  0.38012  0.30354  1.0000
  C   C1724     1.0  0.86728  0.35794  0.28266  1.0000
  C   C1725     1.0  0.85508  0.40966  0.37878  1.0000
  S   S251      1.0  0.70475  0.10693  0.46602  1.0000
  C   C1726     1.0  0.78334  0.03433  0.24420  1.0000
  H   H1384     1.0  0.87067  0.40219  0.45138  1.0000
  C   C1727     1.0  0.97066  0.39053  0.42111  1.0000
  S   S252      1.0  0.62373  0.99445  0.35823  1.0000
  C   C1728     1.0  0.87827  0.32300  0.31228  1.0000
  H   H1385     1.0  0.98068  0.43668  0.44825  1.0000
  C   C1729     1.0  0.87658  0.38135  0.34220  1.0000
  H   H1386     1.0  0.74062  0.99911  0.27124  1.0000
  C   C1730     1.0  0.91085  0.39648  0.31437  1.0000
  C   C1731     1.0  0.84493  0.37998  0.40406  1.0000
  C   C1732     1.0  0.93975  0.45449  0.39352  1.0000
  C   C1733     1.0  0.76247  0.45516  0.34256  1.0000
  C   C1734     1.0  0.94132  0.43640  0.40851  1.0000
  Fe  Fe120     1.0  0.76447  0.41413  0.23758  1.0000
  H   H1387     1.0  0.83639  0.12884  0.28484  1.0000
  P   P56       1.0  0.84654  0.30144  0.30505  1.0000
  C   C1735     1.0  0.75959  0.21453  0.46860  1.0000
  H   H1388     1.0  0.76385  0.01294  0.30656  1.0000
  C   C1736     1.0  0.75476  0.20995  0.25503  1.0000
  C   C1737     1.0  0.68482  0.38826  0.24438  1.0000
  C   C1738     1.0  0.65473  0.31749  0.27090  1.0000
  H   H1389     1.0  0.71011  0.28363  0.25800  1.0000
  H   H1390     1.0  0.74327  0.26738  0.23838  1.0000
  C   C1739     1.0  0.90965  0.42119  0.48119  1.0000
  H   H1391     1.0  0.82816  0.24762  0.23790  1.0000
  P   P57       1.0  0.69612  0.32603  0.26895  1.0000
  C   C1740     1.0  0.74168  0.28352  0.24100  1.0000
  C   C1741     1.0  0.69528  0.35415  0.26431  1.0000
  S   S253      1.0  0.91241  0.32026  0.47481  1.0000
  C   C1742     1.0  0.67690  0.31665  0.23676  1.0000
  H   H1392     1.0  0.72639  0.22309  0.46442  1.0000
  C   C1743     1.0  0.70580  0.38538  0.27281  1.0000
  C   C1744     1.0  0.70584  0.36374  0.27656  1.0000
  C   C1745     1.0  0.96155  0.41493  0.46857  1.0000
  H   H1393     1.0  0.93475  0.37169  0.46189  1.0000
  H   H1394     1.0  0.88344  0.22926  0.29926  1.0000
  H   H1395     1.0  0.74009  0.44801  0.29245  1.0000
  Fe  Fe121     1.0  0.67263  0.12520  0.47362  1.0000
  C   C1746     1.0  0.69374  0.31716  0.29726  1.0000
  C   C1747     1.0  0.68095  0.32982  0.31143  1.0000
  C   C1748     1.0  0.67945  0.32345  0.33336  1.0000
  C   C1749     1.0  0.69047  0.30429  0.34134  1.0000
  C   C1750     1.0  0.70277  0.29139  0.32739  1.0000
  C   C1751     1.0  0.70460  0.29783  0.30545  1.0000
  C   C1752     1.0  0.68470  0.36659  0.24820  1.0000
  H   H1396     1.0  0.65231  0.31969  0.28743  1.0000
  H   H1397     1.0  0.79380  0.21062  0.46784  1.0000
  C   C1753     1.0  0.75922  0.17012  0.46692  1.0000
  C   C1754     1.0  0.63780  0.31304  0.26219  1.0000
  C   C1755     1.0  0.94228  0.45751  0.43569  1.0000
  H   H1398     1.0  0.71426  0.39256  0.28219  1.0000
  H   H1399     1.0  0.71434  0.35444  0.28888  1.0000
  C   C1756     1.0  0.79958  0.45844  0.24551  1.0000
  C   C1757     1.0  0.97820  0.42705  0.46355  1.0000
  H   H1400     1.0  0.90123  0.35950  0.35667  1.0000
  C   C1758     1.0  0.72077  0.31371  0.25559  1.0000
  C   C1759     1.0  0.78006  0.46616  0.25628  1.0000
  H   H1401     1.0  0.67237  0.34478  0.30557  1.0000
  H   H1402     1.0  0.67001  0.33351  0.34421  1.0000
  H   H1403     1.0  0.68972  0.29952  0.35835  1.0000
  H   H1404     1.0  0.71159  0.27667  0.33363  1.0000
  H   H1405     1.0  0.71500  0.28788  0.29517  1.0000
  C   C1760     1.0  0.79159  0.38694  0.35450  1.0000
  H   H1406     1.0  0.92408  0.40274  0.30411  1.0000
  H   H1407     1.0  0.81007  0.38430  0.37982  1.0000
  H   H1408     1.0  0.70714  0.15798  0.44360  1.0000
  C   C1761     1.0  0.74652  0.43424  0.32373  1.0000
  C   C1762     1.0  0.85168  0.38864  0.38308  1.0000
  H   H1409     1.0  0.70854  0.02144  0.42404  1.0000
  C   C1763     1.0  0.83020  0.37712  0.32887  1.0000
  C   C1764     1.0  0.64725  0.03332  0.43345  1.0000
  H   H1410     1.0  0.89083  0.31060  0.40213  1.0000
  C   C1765     1.0  0.82673  0.21385  0.30603  1.0000
  C   C1766     1.0  0.82452  0.23420  0.31070  1.0000
  C   C1767     1.0  0.81364  0.25067  0.29821  1.0000
  C   C1768     1.0  0.80539  0.24692  0.28070  1.0000
  C   C1769     1.0  0.80749  0.22646  0.27586  1.0000
  C   C1770     1.0  0.81818  0.20994  0.28878  1.0000
  P   P58       1.0  0.79467  0.22136  0.25467  1.0000
  C   C1771     1.0  0.76642  0.22216  0.26335  1.0000
  H   H1411     1.0  0.83711  0.99298  0.27618  1.0000
  H   H1412     1.0  0.64730  0.19834  0.44481  1.0000
  C   C1772     1.0  0.84180  0.39215  0.42047  1.0000
  C   C1773     1.0  0.76190  0.47131  0.32539  1.0000
  H   H1413     1.0  0.97699  0.40472  0.41375  1.0000
  C   C1774     1.0  0.94315  0.43772  0.42962  1.0000
  H   H1414     1.0  0.84494  0.37307  0.31881  1.0000
  H   H1415     1.0  0.70531  0.22496  0.28044  1.0000
  C   C1775     1.0  0.70189  0.00292  0.25062  1.0000
  C   C1776     1.0  0.73371  0.23656  0.28393  1.0000
  C   C1777     1.0  0.75566  0.23552  0.27782  1.0000
  H   H1416     1.0  0.74704  0.12154  0.46664  1.0000
  H   H1417     1.0  0.83287  0.33776  0.35870  1.0000
  H   H1418     1.0  0.83446  0.20097  0.31625  1.0000
  H   H1419     1.0  0.83063  0.23710  0.32444  1.0000
  H   H1420     1.0  0.81082  0.26619  0.30269  1.0000
  H   H1421     1.0  0.79663  0.25987  0.27149  1.0000
  H   H1422     1.0  0.84290  0.42246  0.42875  1.0000
  H   H1423     1.0  0.84180  0.36392  0.40783  1.0000
  Fe  Fe122     1.0  0.65152  0.99415  0.33230  1.0000
  H   H1424     1.0  0.79434  0.28083  0.36723  1.0000
  H   H1425     1.0  0.78060  0.04471  0.25611  1.0000
  C   C1778     1.0  0.81191  0.32624  0.32477  1.0000
  Fe  Fe123     1.0  0.64807  0.98583  0.38081  1.0000
  H   H1426     1.0  0.72578  0.24657  0.29551  1.0000
  H   H1427     1.0  0.76405  0.24504  0.28468  1.0000
  H   H1428     1.0  0.90302  0.33939  0.31702  1.0000
  C   C1779     1.0  0.82444  0.09935  0.28974  1.0000
  C   C1780     1.0  0.83006  0.11663  0.29643  1.0000
  C   C1781     1.0  0.82741  0.11818  0.31806  1.0000
  C   C1782     1.0  0.81913  0.10247  0.33304  1.0000
  C   C1783     1.0  0.81336  0.08509  0.32649  1.0000
  C   C1784     1.0  0.81615  0.08362  0.30468  1.0000
  P   P59       1.0  0.80335  0.06459  0.34614  1.0000
  C   C1785     1.0  0.78429  0.07614  0.36636  1.0000
  C   C1786     1.0  0.79058  0.04834  0.33368  1.0000
  C   C1787     1.0  0.76835  0.05050  0.33552  1.0000
  C   C1788     1.0  0.75878  0.03753  0.32605  1.0000
  C   C1789     1.0  0.77128  0.02262  0.31435  1.0000
  C   C1790     1.0  0.79339  0.02048  0.31231  1.0000
  C   C1791     1.0  0.80303  0.03322  0.32201  1.0000
  C   C1792     1.0  0.77080  0.09477  0.36088  1.0000
  C   C1793     1.0  0.75585  0.10360  0.37642  1.0000
  C   C1794     1.0  0.75395  0.09369  0.39744  1.0000
  C   C1795     1.0  0.76719  0.07511  0.40301  1.0000
  C   C1796     1.0  0.78238  0.06638  0.38759  1.0000
  C   C1797     1.0  0.82490  0.04807  0.35814  1.0000
  C   C1798     1.0  0.84421  0.05538  0.35796  1.0000
  C   C1799     1.0  0.86060  0.04249  0.36757  1.0000
  C   C1800     1.0  0.85787  0.02224  0.37742  1.0000
  C   C1801     1.0  0.83874  0.01483  0.37765  1.0000
  C   C1802     1.0  0.82232  0.02767  0.36804  1.0000
  C   C1803     1.0  0.87817  0.31657  0.39263  1.0000
  H   H1429     1.0  0.88448  0.34810  0.38890  1.0000
  H   H1430     1.0  0.83760  0.30085  0.37479  1.0000
  H   H1431     1.0  0.81715  0.10397  0.34976  1.0000
  H   H1432     1.0  0.81183  0.07053  0.29898  1.0000
  H   H1433     1.0  0.75828  0.06217  0.34412  1.0000
  H   H1434     1.0  0.74163  0.03937  0.32740  1.0000
  H   H1435     1.0  0.77084  0.98259  0.24793  1.0000
  C   C1804     1.0  0.67449  0.31911  0.25829  1.0000
  H   H1436     1.0  0.82021  0.03146  0.32020  1.0000
  H   H1437     1.0  0.77173  0.10246  0.34459  1.0000
  H   H1438     1.0  0.74576  0.11816  0.37212  1.0000
  H   H1439     1.0  0.74218  0.10030  0.40949  1.0000
  H   H1440     1.0  0.76561  0.06743  0.41935  1.0000
  H   H1441     1.0  0.79243  0.05199  0.39236  1.0000
  H   H1442     1.0  0.84673  0.07099  0.35051  1.0000
  H   H1443     1.0  0.87543  0.04825  0.36745  1.0000
  C   C1805     1.0  0.82573  0.30263  0.23981  1.0000
  H   H1444     1.0  0.83658  0.99916  0.38538  1.0000
  H   H1445     1.0  0.80751  0.02172  0.36854  1.0000
  C   C1806     1.0  0.71868  0.01470  0.37106  1.0000
  C   C1807     1.0  0.73595  0.01643  0.38080  1.0000
  C   C1808     1.0  0.73821  0.03572  0.38598  1.0000
  C   C1809     1.0  0.72310  0.05326  0.38158  1.0000
  C   C1810     1.0  0.70517  0.05150  0.37262  1.0000
  C   C1811     1.0  0.70339  0.03213  0.36690  1.0000
  P   P60       1.0  0.68664  0.07461  0.36544  1.0000
  C   C1812     1.0  0.67371  0.08872  0.38694  1.0000
  C   C1813     1.0  0.70269  0.09115  0.34669  1.0000
  C   C1814     1.0  0.70712  0.10981  0.35192  1.0000
  C   C1815     1.0  0.72109  0.12164  0.33797  1.0000
  C   C1816     1.0  0.73086  0.11475  0.31894  1.0000
  C   C1817     1.0  0.72677  0.09612  0.31383  1.0000
  C   C1818     1.0  0.71289  0.08422  0.32768  1.0000
  C   C1819     1.0  0.65553  0.10349  0.38395  1.0000
  C   C1820     1.0  0.64565  0.11522  0.40003  1.0000
  C   C1821     1.0  0.65396  0.11246  0.41912  1.0000
  C   C1822     1.0  0.67210  0.09794  0.42207  1.0000
  C   C1823     1.0  0.68187  0.08602  0.40616  1.0000
  C   C1824     1.0  0.66527  0.06725  0.35480  1.0000
  C   C1825     1.0  0.65165  0.05454  0.36826  1.0000
  C   C1826     1.0  0.63504  0.04828  0.36065  1.0000
  C   C1827     1.0  0.63167  0.05496  0.33961  1.0000
  C   C1828     1.0  0.64479  0.06811  0.32626  1.0000
  C   C1829     1.0  0.66159  0.07426  0.33377  1.0000
  H   H1446     1.0  0.71688  0.99974  0.36702  1.0000
  H   H1447     1.0  0.74749  0.00277  0.38443  1.0000
  H   H1448     1.0  0.75154  0.03704  0.39361  1.0000
  H   H1449     1.0  0.72546  0.06821  0.38511  1.0000
  H   H1450     1.0  0.69029  0.03028  0.35919  1.0000
  H   H1451     1.0  0.70005  0.11519  0.36679  1.0000
  H   H1452     1.0  0.72437  0.13616  0.34183  1.0000
  H   H1453     1.0  0.74162  0.12379  0.30808  1.0000
  H   H1454     1.0  0.73449  0.09084  0.29915  1.0000
  H   H1455     1.0  0.71027  0.06953  0.32363  1.0000
  H   H1456     1.0  0.64892  0.10585  0.36922  1.0000
  H   H1457     1.0  0.63154  0.12643  0.39776  1.0000
  H   H1458     1.0  0.64647  0.12160  0.43162  1.0000
  H   H1459     1.0  0.67854  0.09565  0.43683  1.0000
  H   H1460     1.0  0.69552  0.07459  0.40920  1.0000
  H   H1461     1.0  0.65411  0.04912  0.38461  1.0000
  H   H1462     1.0  0.62504  0.03793  0.37105  1.0000
  H   H1463     1.0  0.61921  0.04954  0.33351  1.0000
  H   H1464     1.0  0.64225  0.07299  0.30988  1.0000
  H   H1465     1.0  0.67164  0.08423  0.32306  1.0000
  H   H1466     1.0  0.86341  0.26276  0.28575  1.0000
  C   C1830     1.0  0.76740  0.13787  0.44168  1.0000
  H   H1467     1.0  0.80437  0.30546  0.29113  1.0000
  C   C1831     1.0  0.97157  0.35318  0.42285  1.0000
  C   C1832     1.0  0.68163  0.03986  0.43991  1.0000
  H   H1468     1.0  0.65159  0.05552  0.45327  1.0000
  C   C1833     1.0  0.79189  0.38589  0.33299  1.0000
  C   C1834     1.0  0.74983  0.15184  0.47357  1.0000
  C   C1835     1.0  0.85894  0.34578  0.37175  1.0000
  C   C1836     1.0  0.90270  0.40777  0.45059  1.0000
  H   H1469     1.0  0.86291  0.46097  0.29731  1.0000
  C   C1837     1.0  0.86799  0.26084  0.30139  1.0000
  H   H1470     1.0  0.78494  0.34532  0.33981  1.0000
  C   C1838     1.0  0.74470  0.24708  0.44876  1.0000
  C   C1839     1.0  0.67502  0.21348  0.43392  1.0000
  C   C1840     1.0  0.75303  0.46928  0.30752  1.0000
  C   C1841     1.0  0.89761  0.37210  0.34417  1.0000
  C   C1842     1.0  0.81120  0.38082  0.32025  1.0000
  C   C1843     1.0  0.78231  0.24024  0.45109  1.0000
  H   H1471     1.0  0.83149  0.13173  0.32326  1.0000
  H   H1472     1.0  0.76695  0.26818  0.43395  1.0000
  C   C1844     1.0  0.69817  0.17343  0.44079  1.0000
  C   C1845     1.0  0.87895  0.25400  0.34241  1.0000
  H   H1473     1.0  0.82641  0.09815  0.27292  1.0000
  H   H1474     1.0  0.77719  0.38871  0.32621  1.0000
  C   C1846     1.0  0.67926  0.01436  0.41672  1.0000
  S   S254      1.0  0.69791  0.05289  0.45175  1.0000
  H   H1475     1.0  0.77663  0.39025  0.36457  1.0000
  S   S255      1.0  0.75536  0.38182  0.24267  1.0000
  C   C1847     1.0  0.86118  0.32341  0.30117  1.0000
  C   C1848     1.0  0.65706  0.01838  0.42016  1.0000
  H   H1476     1.0  0.83652  0.38529  0.43658  1.0000
  C   C1849     1.0  0.86234  0.27693  0.31410  1.0000
  H   H1477     1.0  0.79796  0.24495  0.44717  1.0000
  H   H1478     1.0  0.85469  0.43795  0.39167  1.0000
  C   C1850     1.0  0.65941  0.04409  0.44315  1.0000
  H   H1479     1.0  0.63010  0.03659  0.43628  1.0000
  C   C1851     1.0  0.67588  0.17605  0.44514  1.0000
  H   H1480     1.0  0.89339  0.37024  0.29058  1.0000
  H   H1481     1.0  0.86682  0.28692  0.39610  1.0000
  H   H1482     1.0  0.85988  0.41692  0.36273  1.0000
  C   C1852     1.0  0.85567  0.34117  0.28647  1.0000
  C   C1853     1.0  0.84846  0.31106  0.37687  1.0000
  C   C1854     1.0  0.85203  0.42174  0.39523  1.0000
  H   H1483     1.0  0.81643  0.02513  0.24727  1.0000
  H   H1484     1.0  0.86306  0.28505  0.34513  1.0000
  C   C1855     1.0  0.82357  0.30612  0.32479  1.0000
  H   H1485     1.0  0.73652  0.34129  0.25002  1.0000
  C   C1856     1.0  0.75395  0.13579  0.46101  1.0000
  C   C1857     1.0  0.80075  0.17783  0.26031  1.0000
  H   H1486     1.0  0.89322  0.22326  0.33563  1.0000
  C   C1858     1.0  0.64041  0.31041  0.24081  1.0000
  H   H1487     1.0  0.86284  0.37164  0.27141  1.0000
  H   H1488     1.0  0.87024  0.29832  0.26287  1.0000
  P   P61       1.0  0.94420  0.41465  0.44940  1.0000
  C   C1859     1.0  0.88982  0.33984  0.30845  1.0000
  C   C1860     1.0  0.95567  0.35329  0.44040  1.0000
  C   C1861     1.0  0.87922  0.24163  0.30909  1.0000
  S   S256      1.0  0.89235  0.46750  0.36565  1.0000
  H   H1489     1.0  0.94086  0.42151  0.40353  1.0000
  C   C1862     1.0  0.81043  0.30440  0.25769  1.0000
  C   C1863     1.0  0.91700  0.41423  0.46148  1.0000
  Fe  Fe124     1.0  0.68765  0.07856  0.47327  1.0000
  C   C1864     1.0  0.88442  0.35722  0.29356  1.0000
  C   C1865     1.0  0.85350  0.29961  0.26164  1.0000
  C   C1866     1.0  0.86783  0.27323  0.33473  1.0000
  C   C1867     1.0  0.74877  0.98374  0.27664  1.0000
  H   H1490     1.0  0.94272  0.45899  0.45207  1.0000
  H   H1491     1.0  0.77495  0.28086  0.47012  1.0000
  C   C1868     1.0  0.69540  0.39765  0.25666  1.0000
  C   C1869     1.0  0.74580  0.45043  0.30660  1.0000
  C   C1870     1.0  0.84727  0.30027  0.24176  1.0000
  H   H1492     1.0  0.83323  0.45969  0.23965  1.0000
  C   C1871     1.0  0.73761  0.32518  0.24767  1.0000
  H   H1493     1.0  0.69577  0.41439  0.25350  1.0000
  H   H1494     1.0  0.80300  0.00906  0.30307  1.0000
  H   H1495     1.0  0.75137  0.04162  0.23704  1.0000
  Fe  Fe125     1.0  0.78919  0.09947  0.23726  1.0000
  C   C1872     1.0  0.83766  0.98213  0.26508  1.0000
  C   C1873     1.0  0.81795  0.46615  0.24748  1.0000
  H   H1496     1.0  0.67646  0.35966  0.23849  1.0000
  C   C1874     1.0  0.62369  0.98409  0.28739  1.0000
  H   H1497     1.0  0.71442  0.18490  0.47557  1.0000
  C   C1875     1.0  0.80824  0.15811  0.25427  1.0000
  C   C1876     1.0  0.75466  0.43670  0.34179  1.0000
  H   H1498     1.0  0.75530  0.42415  0.35501  1.0000
  C   C1877     1.0  0.80572  0.19600  0.24689  1.0000
  H   H1499     1.0  0.74114  0.41963  0.32281  1.0000
  C   C1878     1.0  0.75622  0.31593  0.23645  1.0000
  S   S257      1.0  0.67580  0.98730  0.35471  1.0000
  C   C1879     1.0  0.78275  0.30586  0.48379  1.0000
  H   H1500     1.0  0.86821  0.98845  0.24819  1.0000
  Fe  Fe126     1.0  0.87158  0.47162  0.33967  1.0000
  Fe  Fe127     1.0  0.88699  0.29928  0.48147  1.0000
  C   C1880     1.0  0.97912  0.37178  0.41324  1.0000
  C   C1881     1.0  0.80348  0.02312  0.23941  1.0000
  H   H1501     1.0  0.80044  0.44591  0.23633  1.0000
  C   C1882     1.0  0.94057  0.47558  0.42066  1.0000
  C   C1883     1.0  0.93938  0.47406  0.39957  1.0000
  C   C1884     1.0  0.87437  0.41403  0.47951  1.0000
  H   H1502     1.0  0.71263  0.03132  0.23419  1.0000
  C   C1885     1.0  0.82093  0.15633  0.23472  1.0000
  H   H1503     1.0  0.62726  0.30703  0.23407  1.0000
  Fe  Fe128     1.0  0.51045  0.08737  0.63905  1.0000
  Fe  Fe129     1.0  0.61724  0.19630  0.72065  1.0000
  Fe  Fe130     1.0  0.53553  0.11591  0.65668  1.0000
  S   S258      1.0  0.52510  0.14416  0.63377  1.0000
  H   H1504     1.0  0.82907  0.29983  0.64699  1.0000
  C   C1886     1.0  0.81107  0.11180  0.72300  1.0000
  Fe  Fe131     1.0  0.53241  0.12164  0.60974  1.0000
  S   S259      1.0  0.54934  0.13179  0.57674  1.0000
  P   P62       1.0  0.88509  0.22324  0.59758  1.0000
  S   S260      1.0  0.54443  0.09386  0.63230  1.0000
  H   H1505     1.0  0.93120  0.22244  0.58604  1.0000
  C   C1887     1.0  0.83845  0.24973  0.64071  1.0000
  H   H1506     1.0  0.84036  0.17903  0.72924  1.0000
  C   C1888     1.0  0.52792  0.19886  0.73053  1.0000
  S   S261      1.0  0.95753  0.34469  0.65706  1.0000
  H   H1507     1.0  0.51269  0.05452  0.53532  1.0000
  S   S262      1.0  0.50279  0.10668  0.66567  1.0000
  H   H1508     1.0  0.95285  0.24468  0.55935  1.0000
  S   S263      1.0  0.97406  0.38174  0.60275  1.0000
  S   S264      1.0  0.92807  0.25534  0.66755  1.0000
  S   S265      1.0  0.87735  0.17320  0.69433  1.0000
  H   H1509     1.0  0.60534  0.12059  0.72961  1.0000
  H   H1510     1.0  0.57739  0.07498  0.54497  1.0000
  S   S266      1.0  0.88844  0.26777  0.50250  1.0000
  H   H1511     1.0  0.70756  0.29109  0.71035  1.0000
  S   S267      1.0  0.89310  0.36564  0.50801  1.0000
  C   C1889     1.0  0.50649  0.14579  0.69867  1.0000
  C   C1890     1.0  0.92102  0.18626  0.65144  1.0000
  H   H1512     1.0  0.78708  0.18210  0.71416  1.0000
  Fe  Fe132     1.0  0.70583  0.10404  0.50114  1.0000
  S   S268      1.0  0.67454  0.12424  0.50822  1.0000
  S   S269      1.0  0.73588  0.10790  0.51345  1.0000
  Fe  Fe133     1.0  0.66044  0.09440  0.51275  1.0000
  S   S270      1.0  0.63859  0.08283  0.54208  1.0000
  C   C1891     1.0  0.93571  0.24859  0.56173  1.0000
  C   C1892     1.0  0.84418  0.24564  0.59765  1.0000
  S   S271      1.0  0.69206  0.07388  0.50776  1.0000
  H   H1513     1.0  0.93545  0.27528  0.53706  1.0000
  Fe  Fe134     1.0  0.76213  0.21708  0.61694  1.0000
  S   S272      1.0  0.76513  0.18212  0.62187  1.0000
  S   S273      1.0  0.74560  0.23476  0.64363  1.0000
  Fe  Fe135     1.0  0.78906  0.21884  0.57309  1.0000
  S   S274      1.0  0.79395  0.18381  0.57467  1.0000
  S   S275      1.0  0.79802  0.24242  0.54421  1.0000
  Fe  Fe136     1.0  0.75927  0.18551  0.58789  1.0000
  S   S276      1.0  0.73237  0.17133  0.57940  1.0000
  Fe  Fe137     1.0  0.79934  0.18367  0.60843  1.0000
  S   S277      1.0  0.82585  0.16145  0.62253  1.0000
  S   S278      1.0  0.75388  0.22067  0.58409  1.0000
  S   S279      1.0  0.79682  0.21843  0.60582  1.0000
  H   H1514     1.0  0.71691  0.31720  0.73215  1.0000
  C   C1893     1.0  0.70302  0.17129  0.70676  1.0000
  C   C1894     1.0  0.57200  0.12832  0.69230  1.0000
  S   S280      1.0  0.59960  0.22403  0.70253  1.0000
  H   H1515     1.0  0.85810  0.41326  0.48679  1.0000
  C   C1895     1.0  0.73420  0.15417  0.56039  1.0000
  C   C1896     1.0  0.75354  0.14328  0.55213  1.0000
  C   C1897     1.0  0.75389  0.12908  0.53779  1.0000
  C   C1898     1.0  0.73502  0.12602  0.53128  1.0000
  C   C1899     1.0  0.71583  0.13730  0.53920  1.0000
  C   C1900     1.0  0.71541  0.15103  0.55385  1.0000
  H   H1516     1.0  0.76814  0.14551  0.55704  1.0000
  H   H1517     1.0  0.76883  0.12039  0.53178  1.0000
  H   H1518     1.0  0.70119  0.13515  0.53443  1.0000
  H   H1519     1.0  0.70039  0.15941  0.55993  1.0000
  C   C1901     1.0  0.86356  0.25954  0.51319  1.0000
  C   C1902     1.0  0.86208  0.24355  0.53062  1.0000
  C   C1903     1.0  0.84220  0.23765  0.54006  1.0000
  C   C1904     1.0  0.82366  0.24776  0.53209  1.0000
  C   C1905     1.0  0.82533  0.26310  0.51412  1.0000
  C   C1906     1.0  0.84509  0.26910  0.50481  1.0000
  H   H1520     1.0  0.87635  0.23591  0.53692  1.0000
  H   H1521     1.0  0.84116  0.22540  0.55350  1.0000
  H   H1522     1.0  0.81122  0.27067  0.50749  1.0000
  H   H1523     1.0  0.61014  0.05306  0.48764  1.0000
  C   C1907     1.0  0.86366  0.17219  0.67304  1.0000
  C   C1908     1.0  0.84973  0.18910  0.66430  1.0000
  C   C1909     1.0  0.83806  0.18645  0.64840  1.0000
  C   C1910     1.0  0.84086  0.16706  0.64092  1.0000
  C   C1911     1.0  0.85554  0.15071  0.64905  1.0000
  C   C1912     1.0  0.86642  0.15309  0.66530  1.0000
  H   H1524     1.0  0.84753  0.20395  0.67013  1.0000
  H   H1525     1.0  0.82678  0.19921  0.64217  1.0000
  H   H1526     1.0  0.85788  0.13576  0.64333  1.0000
  H   H1527     1.0  0.87713  0.13998  0.67191  1.0000
  C   C1913     1.0  0.95433  0.35564  0.53980  1.0000
  C   C1914     1.0  0.95303  0.34433  0.52346  1.0000
  C   C1915     1.0  0.93440  0.34696  0.51392  1.0000
  C   C1916     1.0  0.91672  0.36121  0.52032  1.0000
  C   C1917     1.0  0.91800  0.37266  0.53660  1.0000
  C   C1918     1.0  0.93660  0.36981  0.54639  1.0000
  H   H1528     1.0  0.96667  0.33355  0.51796  1.0000
  H   H1529     1.0  0.93397  0.33821  0.50128  1.0000
  H   H1530     1.0  0.90456  0.38390  0.54159  1.0000
  H   H1531     1.0  0.93746  0.37894  0.55862  1.0000
  C   C1919     1.0  0.95034  0.31924  0.66089  1.0000
  C   C1920     1.0  0.95765  0.30582  0.64574  1.0000
  C   C1921     1.0  0.95133  0.28599  0.64861  1.0000
  C   C1922     1.0  0.93735  0.27936  0.66651  1.0000
  C   C1923     1.0  0.93016  0.29251  0.68202  1.0000
  C   C1924     1.0  0.93668  0.31243  0.67919  1.0000
  H   H1532     1.0  0.96781  0.31075  0.63151  1.0000
  H   H1533     1.0  0.95692  0.27594  0.63658  1.0000
  H   H1534     1.0  0.91922  0.28759  0.69584  1.0000
  H   H1535     1.0  0.93088  0.32272  0.69102  1.0000
  C   C1925     1.0  0.67298  0.24233  0.65491  1.0000
  C   C1926     1.0  0.68395  0.24204  0.63425  1.0000
  C   C1927     1.0  0.70628  0.23879  0.63073  1.0000
  C   C1928     1.0  0.71770  0.23703  0.64773  1.0000
  C   C1929     1.0  0.70672  0.23781  0.66827  1.0000
  C   C1930     1.0  0.68446  0.23989  0.67195  1.0000
  H   H1536     1.0  0.67516  0.24409  0.62097  1.0000
  H   H1537     1.0  0.71461  0.23827  0.61480  1.0000
  H   H1538     1.0  0.71542  0.23653  0.68143  1.0000
  C   C1931     1.0  0.57393  0.11783  0.56695  1.0000
  C   C1932     1.0  0.58482  0.12541  0.54718  1.0000
  C   C1933     1.0  0.60483  0.11505  0.53937  1.0000
  C   C1934     1.0  0.61385  0.09682  0.55118  1.0000
  C   C1935     1.0  0.60273  0.08900  0.57066  1.0000
  C   C1936     1.0  0.58284  0.09942  0.57852  1.0000
  H   H1539     1.0  0.57790  0.13954  0.53803  1.0000
  H   H1540     1.0  0.61323  0.12115  0.52427  1.0000
  H   H1541     1.0  0.60970  0.07492  0.57982  1.0000
  H   H1542     1.0  0.57444  0.09319  0.59351  1.0000
  C   C1937     1.0  0.87861  0.20575  0.58150  1.0000
  H   H1543     1.0  0.56538  0.00165  0.55921  1.0000
  H   H1544     1.0  0.56442  0.15767  0.67234  1.0000
  H   H1545     1.0  0.94753  0.39131  0.49187  1.0000
  H   H1546     1.0  0.82432  0.16646  0.53394  1.0000
  C   C1938     1.0  0.52738  0.06807  0.55657  1.0000
  H   H1547     1.0  0.52859  0.04814  0.60479  1.0000
  C   C1939     1.0  0.57943  0.06394  0.53378  1.0000
  H   H1548     1.0  0.53181  0.19714  0.71386  1.0000
  C   C1940     1.0  0.73036  0.19163  0.50011  1.0000
  C   C1941     1.0  0.77692  0.18194  0.50146  1.0000
  C   C1942     1.0  0.78437  0.19714  0.51016  1.0000
  C   C1943     1.0  0.80173  0.19160  0.52137  1.0000
  C   C1944     1.0  0.81116  0.17074  0.52487  1.0000
  C   C1945     1.0  0.80327  0.15539  0.51707  1.0000
  C   C1946     1.0  0.78632  0.16096  0.50529  1.0000
  C   C1947     1.0  0.72745  0.19695  0.52069  1.0000
  C   C1948     1.0  0.70714  0.19923  0.53244  1.0000
  C   C1949     1.0  0.68963  0.19598  0.52387  1.0000
  C   C1950     1.0  0.69239  0.19073  0.50337  1.0000
  S   S281      1.0  0.97899  0.35249  0.55006  1.0000
  C   C1951     1.0  0.77457  0.28728  0.48461  1.0000
  H   H1549     1.0  0.93029  0.21565  0.65405  1.0000
  H   H1550     1.0  0.71697  0.25120  0.73162  1.0000
  H   H1551     1.0  0.67619  0.24030  0.68793  1.0000
  C   C1952     1.0  0.91124  0.21878  0.62891  1.0000
  C   C1953     1.0  0.90984  0.17593  0.64066  1.0000
  S   S282      1.0  0.64912  0.20629  0.70873  1.0000
  H   H1552     1.0  0.76046  0.26212  0.50487  1.0000
  H   H1553     1.0  0.77710  0.21337  0.50795  1.0000
  H   H1554     1.0  0.80774  0.20350  0.52755  1.0000
  C   C1954     1.0  0.49728  0.10356  0.54810  1.0000
  H   H1555     1.0  0.74081  0.19906  0.52789  1.0000
  H   H1556     1.0  0.70516  0.20286  0.54851  1.0000
  H   H1557     1.0  0.67400  0.19735  0.53319  1.0000
  H   H1558     1.0  0.84945  0.19936  0.60188  1.0000
  C   C1955     1.0  0.88724  0.18754  0.55058  1.0000
  C   C1956     1.0  0.82502  0.25584  0.60706  1.0000
  S   S283      1.0  0.91602  0.20789  0.70795  1.0000
  C   C1957     1.0  0.86009  0.19635  0.58753  1.0000
  H   H1559     1.0  0.92867  0.17776  0.66472  1.0000
  H   H1560     1.0  0.81219  0.26161  0.59769  1.0000
  H   H1561     1.0  0.80693  0.26503  0.63601  1.0000
  H   H1562     1.0  0.51256  0.11786  0.56798  1.0000
  C   C1958     1.0  0.60081  0.16427  0.56327  1.0000
  C   C1959     1.0  0.61213  0.16851  0.54298  1.0000
  C   C1960     1.0  0.63432  0.16435  0.53993  1.0000
  C   C1961     1.0  0.64518  0.15574  0.55714  1.0000
  C   C1962     1.0  0.63385  0.15071  0.57742  1.0000
  C   C1963     1.0  0.61161  0.15553  0.58047  1.0000
  P   P63       1.0  0.64791  0.13961  0.59960  1.0000
  C   C1964     1.0  0.63196  0.12326  0.61896  1.0000
  C   C1965     1.0  0.67127  0.12222  0.59052  1.0000
  C   C1966     1.0  0.67045  0.11009  0.57472  1.0000
  C   C1967     1.0  0.68853  0.09700  0.56708  1.0000
  C   C1968     1.0  0.70749  0.09572  0.57530  1.0000
  C   C1969     1.0  0.70823  0.10710  0.59159  1.0000
  C   C1970     1.0  0.69009  0.12005  0.59944  1.0000
  C   C1971     1.0  0.63201  0.12273  0.64081  1.0000
  C   C1972     1.0  0.61883  0.11077  0.65565  1.0000
  C   C1973     1.0  0.60597  0.09882  0.64879  1.0000
  C   C1974     1.0  0.60651  0.09859  0.62711  1.0000
  C   C1975     1.0  0.61953  0.11068  0.61223  1.0000
  C   C1976     1.0  0.65266  0.16173  0.61065  1.0000
  C   C1977     1.0  0.67195  0.16987  0.60489  1.0000
  C   C1978     1.0  0.67516  0.18719  0.61339  1.0000
  C   C1979     1.0  0.65898  0.19674  0.62740  1.0000
  C   C1980     1.0  0.63953  0.18918  0.63270  1.0000
  C   C1981     1.0  0.63626  0.17192  0.62416  1.0000
  H   H1563     1.0  0.58358  0.16726  0.56563  1.0000
  H   H1564     1.0  0.60369  0.17484  0.52961  1.0000
  H   H1565     1.0  0.64310  0.16754  0.52419  1.0000
  H   H1566     1.0  0.66238  0.15271  0.55451  1.0000
  H   H1567     1.0  0.60250  0.15231  0.59604  1.0000
  H   H1568     1.0  0.65593  0.11084  0.56806  1.0000
  H   H1569     1.0  0.68788  0.08813  0.55450  1.0000
  H   H1570     1.0  0.72168  0.08615  0.56878  1.0000
  H   H1571     1.0  0.72301  0.10624  0.59781  1.0000
  H   H1572     1.0  0.69095  0.12850  0.61223  1.0000
  H   H1573     1.0  0.64199  0.13172  0.64647  1.0000
  H   H1574     1.0  0.61834  0.11098  0.67248  1.0000
  H   H1575     1.0  0.59547  0.08987  0.66030  1.0000
  H   H1576     1.0  0.59660  0.08926  0.62182  1.0000
  H   H1577     1.0  0.61970  0.11048  0.59546  1.0000
  H   H1578     1.0  0.68454  0.16306  0.59378  1.0000
  H   H1579     1.0  0.69018  0.19325  0.60897  1.0000
  H   H1580     1.0  0.66138  0.21008  0.63409  1.0000
  H   H1581     1.0  0.62693  0.19685  0.64334  1.0000
  H   H1582     1.0  0.62089  0.16655  0.62812  1.0000
  C   C1982     1.0  0.90969  0.38462  0.60164  1.0000
  C   C1983     1.0  0.91375  0.38578  0.62197  1.0000
  C   C1984     1.0  0.91144  0.36887  0.63808  1.0000
  C   C1985     1.0  0.90529  0.35067  0.63388  1.0000
  C   C1986     1.0  0.90097  0.34938  0.61354  1.0000
  C   C1987     1.0  0.90339  0.36650  0.59742  1.0000
  P   P64       1.0  0.89502  0.32527  0.60726  1.0000
  C   C1988     1.0  0.91993  0.30897  0.60050  1.0000
  C   C1989     1.0  0.87914  0.31193  0.62968  1.0000
  C   C1990     1.0  0.85754  0.31099  0.62958  1.0000
  C   C1991     1.0  0.84572  0.30046  0.64709  1.0000
  H   H1583     1.0  0.83612  0.25086  0.65752  1.0000
  C   C1992     1.0  0.88869  0.30176  0.64736  1.0000
  C   C1993     1.0  0.92168  0.28709  0.60549  1.0000
  C   C1994     1.0  0.94069  0.27453  0.59924  1.0000
  C   C1995     1.0  0.95782  0.28365  0.58737  1.0000
  C   C1996     1.0  0.95621  0.30537  0.58236  1.0000
  C   C1997     1.0  0.93738  0.31802  0.58893  1.0000
  C   C1998     1.0  0.88108  0.33173  0.58441  1.0000
  C   C1999     1.0  0.88898  0.32275  0.56585  1.0000
  C   C2000     1.0  0.87861  0.32863  0.54795  1.0000
  C   C2001     1.0  0.86033  0.34349  0.54838  1.0000
  C   C2002     1.0  0.85244  0.35262  0.56670  1.0000
  C   C2003     1.0  0.86286  0.34689  0.58461  1.0000
  H   H1584     1.0  0.91198  0.39753  0.58900  1.0000
  H   H1585     1.0  0.91923  0.39956  0.62513  1.0000
  H   H1586     1.0  0.91526  0.36950  0.65368  1.0000
  H   H1587     1.0  0.90457  0.33758  0.64647  1.0000
  H   H1588     1.0  0.90104  0.36569  0.58138  1.0000
  H   H1589     1.0  0.84973  0.31820  0.61610  1.0000
  C   C2004     1.0  0.55895  0.04508  0.58450  1.0000
  H   H1590     1.0  0.90539  0.30183  0.64752  1.0000
  H   H1591     1.0  0.90844  0.27963  0.61417  1.0000
  H   H1592     1.0  0.94212  0.25772  0.60363  1.0000
  H   H1593     1.0  0.97234  0.27393  0.58199  1.0000
  H   H1594     1.0  0.96954  0.31249  0.57327  1.0000
  H   H1595     1.0  0.93648  0.33481  0.58463  1.0000
  H   H1596     1.0  0.90341  0.31162  0.56487  1.0000
  H   H1597     1.0  0.88515  0.32225  0.53339  1.0000
  H   H1598     1.0  0.85271  0.34833  0.53422  1.0000
  H   H1599     1.0  0.83856  0.36448  0.56679  1.0000
  H   H1600     1.0  0.85695  0.35451  0.59853  1.0000
  C   C2005     1.0  0.51252  0.06811  0.54290  1.0000
  H   H1601     1.0  0.63725  0.29605  0.68687  1.0000
  S   S284      1.0  0.87352  0.23531  0.68886  1.0000
  S   S285      1.0  0.64499  0.24645  0.65912  1.0000
  S   S286      1.0  0.86097  0.32356  0.49319  1.0000
  C   C2006     1.0  0.57303  0.14969  0.68508  1.0000
  C   C2007     1.0  0.54837  0.00240  0.56391  1.0000
  H   H1602     1.0  0.58324  0.10172  0.71408  1.0000
  H   H1603     1.0  0.75134  0.40266  0.52651  1.0000
  C   C2008     1.0  0.90385  0.27053  0.55178  1.0000
  S   S287      1.0  0.89311  0.25159  0.72641  1.0000
  C   C2009     1.0  0.74522  0.37218  0.52297  1.0000
  C   C2010     1.0  0.86078  0.23754  0.60962  1.0000
  H   H1604     1.0  0.58325  0.04037  0.63672  1.0000
  Fe  Fe138     1.0  0.90537  0.24128  0.69461  1.0000
  H   H1605     1.0  0.84599  0.28116  0.49114  1.0000
  C   C2011     1.0  0.72846  0.22091  0.72216  1.0000
  H   H1606     1.0  0.73985  0.14968  0.48879  1.0000
  C   C2012     1.0  0.58983  0.04023  0.60288  1.0000
  C   C2013     1.0  0.50487  0.00358  0.57826  1.0000
  C   C2014     1.0  0.80153  0.22073  0.72385  1.0000
  H   H1607     1.0  0.67319  0.16244  0.70311  1.0000
  Fe  Fe139     1.0  0.59819  0.23938  0.73160  1.0000
  H   H1608     1.0  0.59181  0.04031  0.56948  1.0000
  C   C2015     1.0  0.78302  0.31389  0.50246  1.0000
  C   C2016     1.0  0.77463  0.30359  0.52218  1.0000
  C   C2017     1.0  0.76628  0.28496  0.52287  1.0000
  P   P65       1.0  0.77464  0.31450  0.54613  1.0000
  C   C2018     1.0  0.80039  0.30872  0.55505  1.0000
  C   C2019     1.0  0.76712  0.34247  0.54038  1.0000
  C   C2020     1.0  0.77756  0.35636  0.54785  1.0000
  C   C2021     1.0  0.77182  0.37799  0.54289  1.0000
  C   C2022     1.0  0.75567  0.38590  0.53046  1.0000
  C   C2023     1.0  0.52537  0.06612  0.72272  1.0000
  C   C2024     1.0  0.75091  0.35056  0.52789  1.0000
  C   C2025     1.0  0.80197  0.30937  0.57639  1.0000
  C   C2026     1.0  0.82173  0.30471  0.58361  1.0000
  C   C2027     1.0  0.84002  0.29917  0.56966  1.0000
  C   C2028     1.0  0.83863  0.29872  0.54836  1.0000
  C   C2029     1.0  0.81892  0.30373  0.54100  1.0000
  C   C2030     1.0  0.75587  0.30347  0.56727  1.0000
  C   C2031     1.0  0.76159  0.28343  0.57824  1.0000
  C   C2032     1.0  0.74766  0.27496  0.59518  1.0000
  C   C2033     1.0  0.72784  0.28626  0.60122  1.0000
  C   C2034     1.0  0.72188  0.30610  0.59024  1.0000
  C   C2035     1.0  0.73585  0.31474  0.57334  1.0000
  H   H1609     1.0  0.88300  0.42554  0.50578  1.0000
  C   C2036     1.0  0.59729  0.15017  0.71046  1.0000
  C   C2037     1.0  0.82207  0.25775  0.62862  1.0000
  H   H1610     1.0  0.78987  0.32810  0.50144  1.0000
  H   H1611     1.0  0.76013  0.27634  0.53779  1.0000
  H   H1612     1.0  0.79025  0.35061  0.55731  1.0000
  H   H1613     1.0  0.78003  0.38863  0.54856  1.0000
  H   H1614     1.0  0.98529  0.44594  0.64176  1.0000
  S   S288      1.0  0.82910  0.25905  0.73150  1.0000
  H   H1615     1.0  0.74275  0.34011  0.52185  1.0000
  H   H1616     1.0  0.78790  0.31338  0.58747  1.0000
  H   H1617     1.0  0.82281  0.30499  0.60011  1.0000
  H   H1618     1.0  0.85529  0.29536  0.57532  1.0000
  H   H1619     1.0  0.85283  0.29446  0.53748  1.0000
  H   H1620     1.0  0.81823  0.30347  0.52442  1.0000
  H   H1621     1.0  0.77680  0.27425  0.57359  1.0000
  H   H1622     1.0  0.75222  0.25954  0.60358  1.0000
  H   H1623     1.0  0.71708  0.27954  0.61435  1.0000
  H   H1624     1.0  0.70640  0.31474  0.59483  1.0000
  H   H1625     1.0  0.73092  0.33014  0.56514  1.0000
  S   S289      1.0  0.49911  0.11361  0.61478  1.0000
  C   C2038     1.0  0.65923  0.34654  0.73039  1.0000
  C   C2039     1.0  0.76635  0.27682  0.50415  1.0000
  H   H1626     1.0  0.55894  0.02252  0.52364  1.0000
  C   C2040     1.0  0.71263  0.18871  0.49150  1.0000
  C   C2041     1.0  0.67350  0.29878  0.71903  1.0000
  C   C2042     1.0  0.95966  0.40152  0.48801  1.0000
  C   C2043     1.0  0.52732  0.08614  0.56559  1.0000
  C   C2044     1.0  0.85538  0.29067  0.66475  1.0000
  H   H1627     1.0  0.58632  0.17709  0.68874  1.0000
  H   H1628     1.0  0.53953  0.22852  0.72648  1.0000
  H   H1629     1.0  0.83223  0.21235  0.70604  1.0000
  Fe  Fe140     1.0  0.49293  0.13337  0.64103  1.0000
  C   C2045     1.0  0.69210  0.29262  0.70547  1.0000
  H   H1630     1.0  0.60692  0.03805  0.60241  1.0000
  H   H1631     1.0  0.50992  0.19639  0.67693  1.0000
  C   C2046     1.0  0.51232  0.10381  0.56129  1.0000
  C   C2047     1.0  0.65660  0.36819  0.73032  1.0000
  C   C2048     1.0  0.82073  0.20772  0.71953  1.0000
  H   H1632     1.0  0.97220  0.39058  0.51751  1.0000
  C   C2049     1.0  0.49735  0.08569  0.53893  1.0000
  C   C2050     1.0  0.82539  0.18896  0.73289  1.0000
  H   H1633     1.0  0.71609  0.21359  0.73265  1.0000
  H   H1634     1.0  0.64747  0.37856  0.71908  1.0000
  H   H1635     1.0  0.60523  0.07775  0.51389  1.0000
  C   C2051     1.0  0.59784  0.05178  0.50128  1.0000
  H   H1636     1.0  0.81025  0.13914  0.52016  1.0000
  C   C2052     1.0  0.67112  0.28939  0.67864  1.0000
  H   H1637     1.0  0.89630  0.28322  0.54126  1.0000
  C   C2053     1.0  0.53548  0.02178  0.56539  1.0000
  C   C2054     1.0  0.96988  0.23729  0.70209  1.0000
  C   C2055     1.0  0.69087  0.28788  0.68540  1.0000
  C   C2056     1.0  0.87690  0.29124  0.66481  1.0000
  C   C2057     1.0  0.56912  0.03440  0.52194  1.0000
  H   H1638     1.0  0.84629  0.28253  0.67838  1.0000
  C   C2058     1.0  0.70743  0.18409  0.66285  1.0000
  C   C2059     1.0  0.68951  0.17531  0.67319  1.0000
  C   C2060     1.0  0.68736  0.16882  0.69511  1.0000
  C   C2061     1.0  0.65370  0.30019  0.71208  1.0000
  C   C2062     1.0  0.72142  0.17943  0.69636  1.0000
  C   C2063     1.0  0.72332  0.18613  0.67438  1.0000
  H   H1639     1.0  0.97831  0.26654  0.68530  1.0000
  H   H1640     1.0  0.65199  0.34052  0.71915  1.0000
  C   C2064     1.0  0.76730  0.16809  0.69824  1.0000
  C   C2065     1.0  0.78638  0.14346  0.67498  1.0000
  C   C2066     1.0  0.76725  0.15383  0.68422  1.0000
  C   C2067     1.0  0.83086  0.11755  0.72356  1.0000
  S   S290      1.0  0.55687  0.11282  0.68230  1.0000
  C   C2068     1.0  0.74375  0.20900  0.70925  1.0000
  C   C2069     1.0  0.92181  0.20764  0.64549  1.0000
  H   H1641     1.0  0.70520  0.28255  0.67519  1.0000
  C   C2070     1.0  0.74445  0.25201  0.70741  1.0000
  C   C2071     1.0  0.75921  0.24044  0.69381  1.0000
  C   C2072     1.0  0.75885  0.21902  0.69465  1.0000
  H   H1642     1.0  0.70897  0.18949  0.64591  1.0000
  H   H1643     1.0  0.67711  0.17385  0.66430  1.0000
  H   H1644     1.0  0.67888  0.18817  0.49662  1.0000
  H   H1645     1.0  0.58674  0.02569  0.49246  1.0000
  H   H1646     1.0  0.73714  0.19294  0.66610  1.0000
  H   H1647     1.0  0.78638  0.13297  0.66366  1.0000
  H   H1648     1.0  0.75257  0.15071  0.68020  1.0000
  C   C2073     1.0  0.65256  0.29551  0.69198  1.0000
  S   S291      1.0  0.61385  0.16206  0.72286  1.0000
  H   H1649     1.0  0.84471  0.11161  0.71309  1.0000
  S   S292      1.0  0.62836  0.25331  0.72009  1.0000
  H   H1650     1.0  0.74473  0.26860  0.70664  1.0000
  H   H1651     1.0  0.77062  0.24811  0.68216  1.0000
  H   H1652     1.0  0.76993  0.21056  0.68342  1.0000
  C   C2074     1.0  0.59508  0.06570  0.51604  1.0000
  Fe  Fe141     1.0  0.88620  0.34493  0.48524  1.0000
  H   H1653     1.0  0.86447  0.16842  0.54665  1.0000
  C   C2075     1.0  0.89146  0.25816  0.56702  1.0000
  H   H1654     1.0  0.87444  0.26154  0.56784  1.0000
  H   H1655     1.0  0.88457  0.28341  0.67833  1.0000
  H   H1656     1.0  0.67011  0.28529  0.66327  1.0000
  H   H1657     1.0  0.86994  0.23331  0.64116  1.0000
  H   H1658     1.0  0.88987  0.17879  0.61663  1.0000
  C   C2076     1.0  0.90108  0.24096  0.57993  1.0000
  H   H1659     1.0  0.50372  0.03667  0.57595  1.0000
  C   C2077     1.0  0.58553  0.16067  0.69431  1.0000
  C   C2078     1.0  0.92596  0.26584  0.54920  1.0000
  C   C2079     1.0  0.89908  0.18702  0.62418  1.0000
  H   H1660     1.0  0.79831  0.23558  0.71383  1.0000
  H   H1661     1.0  0.89767  0.18428  0.53617  1.0000
  C   C2080     1.0  0.59627  0.12890  0.71731  1.0000
  H   H1662     1.0  0.80961  0.10127  0.71221  1.0000
  C   C2081     1.0  0.78672  0.17138  0.70325  1.0000
  H   H1663     1.0  0.84578  0.24367  0.58115  1.0000
  P   P66       1.0  0.74276  0.18143  0.71054  1.0000
  C   C2082     1.0  0.50448  0.18321  0.68773  1.0000
  H   H1664     1.0  0.90696  0.20756  0.55825  1.0000
  C   C2083     1.0  0.89977  0.20853  0.61813  1.0000
  C   C2084     1.0  0.89241  0.20084  0.56318  1.0000
  C   C2085     1.0  0.58367  0.11818  0.70849  1.0000
  C   C2086     1.0  0.80583  0.16098  0.69396  1.0000
  Fe  Fe142     1.0  0.63143  0.23524  0.69280  1.0000
  C   C2087     1.0  0.86853  0.17866  0.55642  1.0000
  Fe  Fe143     1.0  0.88317  0.20279  0.70453  1.0000
  C   C2088     1.0  0.80561  0.14694  0.67996  1.0000
  H   H1665     1.0  0.82034  0.13874  0.67284  1.0000
  H   H1666     1.0  0.91155  0.23548  0.62493  1.0000
  C   C2089     1.0  0.85507  0.18295  0.57494  1.0000
  C   C2090     1.0  0.58472  0.03629  0.50410  1.0000
  H   H1667     1.0  0.90891  0.15943  0.64559  1.0000
  H   H1668     1.0  0.78059  0.14880  0.49931  1.0000
  H   H1669     1.0  0.84070  0.17585  0.57957  1.0000
  C   C2091     1.0  0.85775  0.23973  0.63128  1.0000
  H   H1670     1.0  0.82085  0.16380  0.69755  1.0000
  C   C2092     1.0  0.92335  0.23615  0.57702  1.0000
  P   P67       1.0  0.54733  0.04554  0.56081  1.0000
  H   H1671     1.0  0.96586  0.20619  0.71762  1.0000
  S   S293      1.0  0.49894  0.05538  0.64612  1.0000
  C   C2093     1.0  0.58111  0.04179  0.58412  1.0000
  C   C2094     1.0  0.57654  0.04150  0.62218  1.0000
  H   H1672     1.0  0.93830  0.28222  0.72999  1.0000
  H   H1673     1.0  0.73279  0.37829  0.51320  1.0000
  C   C2095     1.0  0.51972  0.10195  0.72980  1.0000
  C   C2096     1.0  0.55452  0.04415  0.62275  1.0000
  H   H1674     1.0  0.95300  0.24307  0.70428  1.0000
  H   H1675     1.0  0.52691  0.16022  0.67251  1.0000
  H   H1676     1.0  0.54420  0.04490  0.63776  1.0000
  C   C2097     1.0  0.56680  0.04786  0.53724  1.0000
  H   H1677     1.0  0.51374  0.13025  0.69587  1.0000
  Fe  Fe144     1.0  0.86217  0.24244  0.72214  1.0000
  C   C2098     1.0  0.51395  0.16285  0.68516  1.0000
  H   H1678     1.0  0.92024  0.42668  0.48968  1.0000
  H   H1679     1.0  0.97556  0.28930  0.72291  1.0000
  C   C2099     1.0  0.72895  0.24226  0.72151  1.0000
  C   C2100     1.0  0.54572  0.04609  0.60399  1.0000
  H   H1680     1.0  0.63907  0.30457  0.72231  1.0000
  C   C2101     1.0  0.51377  0.02214  0.57322  1.0000
  H   H1681     1.0  0.53903  0.08682  0.57563  1.0000
  Fe  Fe145     1.0  0.98122  0.35433  0.62816  1.0000
  C   C2102     1.0  0.97366  0.40096  0.50255  1.0000
  C   C2103     1.0  0.88843  0.42089  0.49024  1.0000
  C   C2104     1.0  0.53944  0.98382  0.56893  1.0000
  H   H1682     1.0  0.73397  0.13943  0.72884  1.0000
  C   C2105     1.0  0.97713  0.21649  0.70956  1.0000
  C   C2106     1.0  0.98982  0.41347  0.49770  1.0000
  Fe  Fe146     1.0  0.99021  0.35945  0.57995  1.0000
  H   H1683     1.0  0.70055  0.16699  0.72379  1.0000
  C   C2107     1.0  0.98429  0.25057  0.69143  1.0000
  C   C2108     1.0  0.51766  0.98443  0.57599  1.0000
  H   H1684     1.0  0.55044  0.08327  0.72482  1.0000
  C   C2109     1.0  0.50352  0.06687  0.72337  1.0000
  H   H1685     1.0  0.49729  0.05344  0.72037  1.0000
  H   H1686     1.0  0.53610  0.05217  0.71914  1.0000
  C   C2110     1.0  0.53344  0.08359  0.72609  1.0000
  H   H1687     1.0  0.98820  0.25243  0.61247  1.0000
  C   C2111     1.0  0.49772  0.10296  0.73029  1.0000
  H   H1688     1.0  0.52643  0.11563  0.73134  1.0000
  P   P68       1.0  0.75641  0.18946  0.48449  1.0000
  Fe  Fe147     1.0  0.53137  0.32536  0.83303  1.0000
  S   S294      1.0  0.55901  0.32270  0.80654  1.0000
  S   S295      1.0  0.52674  0.35325  0.85027  1.0000
  C   C2112     1.0  0.98154  0.24522  0.75951  1.0000
  S   S296      1.0  0.91179  0.13619  0.94416  1.0000
  C   C2113     1.0  0.98754  0.21913  0.84614  1.0000
  C   C2114     1.0  0.50833  0.41927  0.87424  1.0000
  H   H1689     1.0  0.72280  0.25744  0.79031  1.0000
  S   S297      1.0  0.67472  0.22287  0.75035  1.0000
  H   H1690     1.0  0.77244  0.27113  0.95623  1.0000
  S   S298      1.0  0.56613  0.25402  0.74648  1.0000
  H   H1691     1.0  0.61601  0.36717  0.86303  1.0000
  C   C2115     1.0  0.66630  0.35928  0.87574  1.0000
  S   S299      1.0  0.61404  0.21081  0.75055  1.0000
  C   C2116     1.0  0.76249  0.29403  0.93065  1.0000
  Fe  Fe148     1.0  0.52393  0.33016  0.88026  1.0000
  S   S300      1.0  0.70772  0.33557  0.95253  1.0000
  S   S301      1.0  0.60338  0.37295  0.94615  1.0000
  S   S302      1.0  0.65689  0.38075  0.95775  1.0000
  Fe  Fe149     1.0  0.71662  0.22737  0.85394  1.0000
  S   S303      1.0  0.73521  0.25204  0.83493  1.0000
  S   S304      1.0  0.68638  0.21851  0.84658  1.0000
  Fe  Fe150     1.0  0.74303  0.22010  0.89059  1.0000
  S   S305      1.0  0.76329  0.24468  0.87502  1.0000
  S   S306      1.0  0.74175  0.20170  0.92357  1.0000
  Fe  Fe151     1.0  0.73304  0.26405  0.86605  1.0000
  S   S307      1.0  0.72461  0.29902  0.86571  1.0000
  Fe  Fe152     1.0  0.76390  0.23069  0.84527  1.0000
  S   S308      1.0  0.79635  0.22261  0.82662  1.0000
  S   S309      1.0  0.71263  0.24087  0.88431  1.0000
  S   S310      1.0  0.74546  0.20469  0.86162  1.0000
  C   C2117     1.0  0.78808  0.33652  0.92547  1.0000
  H   H1692     1.0  0.61028  0.22009  0.84328  1.0000
  C   C2118     1.0  0.87505  0.13264  0.78458  1.0000
  C   C2119     1.0  0.65681  0.30167  0.83726  1.0000
  C   C2120     1.0  0.51799  0.18378  0.74488  1.0000
  C   C2121     1.0  0.63365  0.34852  0.82708  1.0000
  C   C2122     1.0  0.98681  0.26272  0.74492  1.0000
  S   S311      1.0  0.91541  0.21080  0.77039  1.0000
  H   H1693     1.0  0.66983  0.31689  0.88091  1.0000
  H   H1694     1.0  0.88019  0.18384  0.78212  1.0000
  C   C2123     1.0  0.96027  0.15120  0.79037  1.0000
  C   C2124     1.0  0.94797  0.15163  0.77420  1.0000
  C   C2125     1.0  0.93432  0.16991  0.76763  1.0000
  C   C2126     1.0  0.93228  0.18752  0.77783  1.0000
  H   H1695     1.0  0.87512  0.20072  0.91161  1.0000
  H   H1696     1.0  0.94956  0.13804  0.76626  1.0000
  H   H1697     1.0  0.92531  0.17033  0.75479  1.0000
  C   C2127     1.0  0.80455  0.23414  0.80043  1.0000
  C   C2128     1.0  0.79011  0.24395  0.78660  1.0000
  C   C2129     1.0  0.79763  0.25202  0.76550  1.0000
  C   C2130     1.0  0.81954  0.24994  0.75814  1.0000
  C   C2131     1.0  0.83383  0.24028  0.77209  1.0000
  C   C2132     1.0  0.82636  0.23251  0.79309  1.0000
  H   H1698     1.0  0.77327  0.24493  0.79213  1.0000
  H   H1699     1.0  0.78655  0.25940  0.75468  1.0000
  H   H1700     1.0  0.85074  0.23911  0.76683  1.0000
  H   H1701     1.0  0.83760  0.22549  0.80378  1.0000
  C   C2133     1.0  0.70847  0.32561  0.92865  1.0000
  C   C2134     1.0  0.70987  0.30399  0.92867  1.0000
  C   C2135     1.0  0.71416  0.29559  0.90943  1.0000
  C   C2136     1.0  0.71738  0.30881  0.89011  1.0000
  C   C2137     1.0  0.71583  0.33039  0.89013  1.0000
  C   C2138     1.0  0.71147  0.33875  0.90930  1.0000
  H   H1702     1.0  0.70853  0.29363  0.94361  1.0000
  H   H1703     1.0  0.71574  0.27886  0.90960  1.0000
  H   H1704     1.0  0.71892  0.34058  0.87528  1.0000
  H   H1705     1.0  0.71140  0.35529  0.90918  1.0000
  C   C2139     1.0  0.96241  0.14050  0.89799  1.0000
  H   H1706     1.0  0.82471  0.21006  0.87340  1.0000
  C   C2140     1.0  0.98447  0.05614  0.95704  1.0000
  C   C2141     1.0  0.64971  0.35758  0.86482  1.0000
  C   C2142     1.0  0.79344  0.15475  0.95370  1.0000
  C   C2143     1.0  0.79948  0.17127  0.93815  1.0000
  C   C2144     1.0  0.78393  0.18513  0.92764  1.0000
  C   C2145     1.0  0.76236  0.18296  0.93323  1.0000
  S   S312      1.0  0.54185  0.32512  0.90905  1.0000
  H   H1707     1.0  0.81603  0.17328  0.93414  1.0000
  H   H1708     1.0  0.78844  0.19791  0.91582  1.0000
  C   C2146     1.0  0.85164  0.20448  0.89052  1.0000
  H   H1709     1.0  0.59396  0.14291  0.85494  1.0000
  C   C2147     1.0  0.67737  0.22146  0.77727  1.0000
  C   C2148     1.0  0.66022  0.21937  0.79346  1.0000
  C   C2149     1.0  0.66315  0.21858  0.81472  1.0000
  C   C2150     1.0  0.68320  0.21972  0.81984  1.0000
  C   C2151     1.0  0.70038  0.22148  0.80368  1.0000
  C   C2152     1.0  0.69746  0.22235  0.78246  1.0000
  H   H1710     1.0  0.64483  0.21818  0.78959  1.0000
  H   H1711     1.0  0.64991  0.21711  0.82726  1.0000
  H   H1712     1.0  0.71593  0.22202  0.80760  1.0000
  H   H1713     1.0  0.71082  0.22382  0.77002  1.0000
  C   C2153     1.0  0.55933  0.33877  0.91844  1.0000
  C   C2154     1.0  0.57131  0.32807  0.93435  1.0000
  C   C2155     1.0  0.58514  0.33807  0.94274  1.0000
  C   C2156     1.0  0.58674  0.35920  0.93571  1.0000
  C   C2157     1.0  0.57450  0.37003  0.92000  1.0000
  C   C2158     1.0  0.56116  0.35983  0.91114  1.0000
  H   H1714     1.0  0.56978  0.31193  0.94033  1.0000
  H   H1715     1.0  0.57524  0.38648  0.91472  1.0000
  H   H1716     1.0  0.55197  0.36837  0.89904  1.0000
  C   C2159     1.0  0.55989  0.30493  0.78865  1.0000
  C   C2160     1.0  0.57824  0.30135  0.77395  1.0000
  C   C2161     1.0  0.58039  0.28576  0.76088  1.0000
  C   C2162     1.0  0.56373  0.27435  0.76182  1.0000
  C   C2163     1.0  0.54479  0.27892  0.77553  1.0000
  C   C2164     1.0  0.54300  0.29391  0.78921  1.0000
  H   H1717     1.0  0.59099  0.31043  0.77288  1.0000
  C   C2165     1.0  0.77216  0.22618  0.95566  1.0000
  H   H1718     1.0  0.53176  0.27026  0.77618  1.0000
  H   H1719     1.0  0.52866  0.29674  0.80032  1.0000
  H   H1720     1.0  0.61216  0.33331  0.85203  1.0000
  C   C2166     1.0  0.85928  0.20771  0.90858  1.0000
  C   C2167     1.0  0.62542  0.37904  0.88829  1.0000
  C   C2168     1.0  0.49376  0.12636  0.77272  1.0000
  H   H1721     1.0  0.82114  0.20913  0.97046  1.0000
  H   H1722     1.0  0.74569  0.19392  0.75202  1.0000
  C   C2169     1.0  0.64194  0.38023  0.89934  1.0000
  C   C2170     1.0  0.72146  0.27035  0.77748  1.0000
  C   C2171     1.0  0.76084  0.21182  0.96960  1.0000
  H   H1723     1.0  0.55659  0.21450  0.78790  1.0000
  C   C2172     1.0  0.81483  0.13952  0.75052  1.0000
  C   C2173     1.0  0.51907  0.23541  0.82520  1.0000
  H   H1724     1.0  0.88382  0.11714  0.78786  1.0000
  P   P69       1.0  0.61052  0.15688  0.81001  1.0000
  C   C2174     1.0  0.61487  0.13249  0.82757  1.0000
  C   C2175     1.0  0.59285  0.15519  0.79155  1.0000
  C   C2176     1.0  0.58914  0.13579  0.78748  1.0000
  C   C2177     1.0  0.79305  0.12035  0.73568  1.0000
  C   C2178     1.0  0.97618  0.08202  0.91929  1.0000
  C   C2179     1.0  0.56751  0.19530  0.84559  1.0000
  C   C2180     1.0  0.58367  0.17363  0.78007  1.0000
  C   C2181     1.0  0.62887  0.11558  0.82011  1.0000
  H   H1725     1.0  0.51194  0.37834  0.90235  1.0000
  H   H1726     1.0  0.55942  0.15285  0.74726  1.0000
  C   C2182     1.0  0.74176  0.17822  0.75467  1.0000
  C   C2183     1.0  0.60465  0.13014  0.84864  1.0000
  C   C2184     1.0  0.63624  0.16150  0.79548  1.0000
  C   C2185     1.0  0.65324  0.16164  0.80655  1.0000
  C   C2186     1.0  0.67293  0.16602  0.79550  1.0000
  C   C2187     1.0  0.67598  0.16974  0.77332  1.0000
  C   C2188     1.0  0.65944  0.16877  0.76219  1.0000
  C   C2189     1.0  0.63970  0.16454  0.77318  1.0000
  H   H1727     1.0  0.95690  0.23696  0.84208  1.0000
  H   H1728     1.0  0.51396  0.17048  0.73929  1.0000
  H   H1729     1.0  0.64328  0.08359  0.82757  1.0000
  H   H1730     1.0  0.49265  0.33864  0.73603  1.0000
  H   H1731     1.0  0.58660  0.18868  0.78276  1.0000
  C   C2190     1.0  0.97216  0.23056  0.83416  1.0000
  C   C2191     1.0  0.53662  0.41806  0.93993  1.0000
  C   C2192     1.0  0.57958  0.20976  0.84935  1.0000
  H   H1732     1.0  0.65109  0.15895  0.82375  1.0000
  C   C2193     1.0  0.78681  0.21485  0.74139  1.0000
  C   C2194     1.0  0.51904  0.18105  0.81921  1.0000
  H   H1733     1.0  0.53328  0.12981  0.85759  1.0000
  C   C2195     1.0  0.66185  0.28005  0.84262  1.0000
  C   C2196     1.0  0.66931  0.27188  0.86183  1.0000
  C   C2197     1.0  0.67186  0.28529  0.87564  1.0000
  C   C2198     1.0  0.66239  0.37037  0.89305  1.0000
  H   H1734     1.0  0.66041  0.26955  0.83176  1.0000
  H   H1735     1.0  0.67348  0.25515  0.86578  1.0000
  H   H1736     1.0  0.67843  0.27907  0.89020  1.0000
  H   H1737     1.0  0.67515  0.37122  0.90174  1.0000
  H   H1738     1.0  0.68225  0.35184  0.87095  1.0000
  H   H1739     1.0  0.74090  0.17563  0.78855  1.0000
  C   C2199     1.0  0.55240  0.26963  0.94489  1.0000
  H   H1740     1.0  0.78071  0.14138  0.75842  1.0000
  C   C2200     1.0  0.77198  0.15225  0.95857  1.0000
  H   H1741     1.0  0.50756  0.11578  0.76736  1.0000
  C   C2201     1.0  0.51893  0.20279  0.77392  1.0000
  H   H1742     1.0  0.53218  0.43772  0.87778  1.0000
  H   H1743     1.0  0.53604  0.16339  0.79452  1.0000
  C   C2202     1.0  0.85303  0.27688  0.95060  1.0000
  C   C2203     1.0  0.70011  0.29427  0.75357  1.0000
  C   C2204     1.0  0.79488  0.13434  0.74923  1.0000
  H   H1744     1.0  0.77198  0.22505  0.74472  1.0000
  H   H1745     1.0  0.50304  0.23457  0.83298  1.0000
  H   H1746     1.0  0.57224  0.22203  0.85872  1.0000
  H   H1747     1.0  0.74794  0.34329  0.96608  1.0000
  H   H1748     1.0  0.86822  0.05035  0.95456  1.0000
  C   C2205     1.0  0.59218  0.27164  0.95566  1.0000
  C   C2206     1.0  0.59043  0.26957  0.93472  1.0000
  C   C2207     1.0  0.57046  0.26801  0.92959  1.0000
  P   P70       1.0  0.61386  0.26803  0.91502  1.0000
  C   C2208     1.0  0.63031  0.28590  0.92022  1.0000
  C   C2209     1.0  0.62721  0.24132  0.91711  1.0000
  C   C2210     1.0  0.64890  0.23696  0.90935  1.0000
  C   C2211     1.0  0.65905  0.21630  0.91007  1.0000
  C   C2212     1.0  0.64763  0.19979  0.91867  1.0000
  C   C2213     1.0  0.62603  0.20395  0.92644  1.0000
  C   C2214     1.0  0.61580  0.22463  0.92559  1.0000
  C   C2215     1.0  0.62573  0.30751  0.91342  1.0000
  C   C2216     1.0  0.63766  0.32143  0.91848  1.0000
  C   C2217     1.0  0.65442  0.31397  0.93014  1.0000
  C   C2218     1.0  0.65882  0.29260  0.93741  1.0000
  C   C2219     1.0  0.64673  0.27863  0.93265  1.0000
  C   C2220     1.0  0.60649  0.27615  0.88866  1.0000
  C   C2221     1.0  0.59093  0.29355  0.88487  1.0000
  C   C2222     1.0  0.58473  0.29961  0.86476  1.0000
  C   C2223     1.0  0.59373  0.28820  0.84825  1.0000
  C   C2224     1.0  0.60937  0.27093  0.85177  1.0000
  C   C2225     1.0  0.61578  0.26493  0.87187  1.0000
  H   H1749     1.0  0.98087  0.16763  0.74779  1.0000
  H   H1750     1.0  0.90349  0.03355  0.93896  1.0000
  H   H1751     1.0  0.51377  0.16160  0.87201  1.0000
  H   H1752     1.0  0.60741  0.27258  0.96014  1.0000
  H   H1753     1.0  0.56864  0.26600  0.91372  1.0000
  H   H1754     1.0  0.65800  0.24949  0.90271  1.0000
  H   H1755     1.0  0.67580  0.21308  0.90390  1.0000
  C   C2226     1.0  0.84961  0.27535  0.97275  1.0000
  C   C2227     1.0  0.53854  0.43897  0.94000  1.0000
  H   H1756     1.0  0.59901  0.22751  0.93148  1.0000
  H   H1757     1.0  0.61265  0.31391  0.90471  1.0000
  H   H1758     1.0  0.63357  0.33809  0.91380  1.0000
  H   H1759     1.0  0.66365  0.32484  0.93399  1.0000
  H   H1760     1.0  0.67136  0.28694  0.94711  1.0000
  H   H1761     1.0  0.65001  0.26226  0.93910  1.0000
  H   H1762     1.0  0.58322  0.30226  0.89757  1.0000
  H   H1763     1.0  0.57264  0.31305  0.86215  1.0000
  H   H1764     1.0  0.58839  0.29274  0.83284  1.0000
  H   H1765     1.0  0.61658  0.26214  0.83898  1.0000
  H   H1766     1.0  0.62792  0.25152  0.87416  1.0000
  H   H1767     1.0  0.86169  0.19525  0.87925  1.0000
  C   C2228     1.0  0.78322  0.17056  0.82423  1.0000
  C   C2229     1.0  0.77501  0.15199  0.83243  1.0000
  C   C2230     1.0  0.77947  0.13523  0.82076  1.0000
  C   C2231     1.0  0.79195  0.13715  0.80079  1.0000
  C   C2232     1.0  0.79956  0.15609  0.79212  1.0000
  C   C2233     1.0  0.79559  0.17258  0.80426  1.0000
  P   P71       1.0  0.81700  0.15839  0.76718  1.0000
  C   C2234     1.0  0.84336  0.15519  0.77426  1.0000
  C   C2235     1.0  0.71804  0.30399  0.74472  1.0000
  C   C2236     1.0  0.83273  0.13152  0.73709  1.0000
  H   H1768     1.0  0.55290  0.43390  0.84270  1.0000
  C   C2237     1.0  0.73930  0.16835  0.73766  1.0000
  C   C2238     1.0  0.80228  0.32158  0.93616  1.0000
  H   H1769     1.0  0.50433  0.17482  0.77710  1.0000
  C   C2239     1.0  0.85242  0.17271  0.77608  1.0000
  C   C2240     1.0  0.87297  0.17022  0.78135  1.0000
  C   C2241     1.0  0.88429  0.15021  0.78560  1.0000
  H   H1770     1.0  0.54989  0.44275  0.94890  1.0000
  C   C2242     1.0  0.85459  0.13509  0.77908  1.0000
  C   C2243     1.0  0.81096  0.18319  0.75086  1.0000
  C   C2244     1.0  0.79145  0.19611  0.75485  1.0000
  S   S313      1.0  0.97883  0.12889  0.79696  1.0000
  H   H1771     1.0  0.75705  0.35516  0.92800  1.0000
  H   H1772     1.0  0.62722  0.16395  0.76406  1.0000
  C   C2245     1.0  0.56814  0.15347  0.76009  1.0000
  H   H1773     1.0  0.78029  0.18336  0.83348  1.0000
  H   H1774     1.0  0.76553  0.15052  0.84800  1.0000
  H   H1775     1.0  0.77357  0.12063  0.82739  1.0000
  H   H1776     1.0  0.79593  0.12373  0.79239  1.0000
  H   H1777     1.0  0.80220  0.18699  0.79842  1.0000
  C   C2246     1.0  0.76857  0.34433  0.93641  1.0000
  C   C2247     1.0  0.51345  0.18044  0.84127  1.0000
  H   H1778     1.0  0.84806  0.13642  0.73662  1.0000
  C   C2248     1.0  0.96031  0.08097  0.93690  1.0000
  C   C2249     1.0  0.99003  0.19394  0.75823  1.0000
  H   H1779     1.0  0.84367  0.18834  0.77336  1.0000
  Fe  Fe153     1.0  0.49572  0.30586  0.86227  1.0000
  H   H1780     1.0  0.97310  0.09222  0.90473  1.0000
  C   C2250     1.0  0.52947  0.14412  0.84692  1.0000
  H   H1781     1.0  0.84762  0.12133  0.77843  1.0000
  H   H1782     1.0  0.77980  0.19186  0.76828  1.0000
  S   S314      1.0  0.81197  0.13580  0.96643  1.0000
  S   S315      1.0  0.49681  0.32668  0.83096  1.0000
  H   H1783     1.0  0.97482  0.20320  0.75648  1.0000
  H   H1784     1.0  0.94492  0.09044  0.93580  1.0000
  H   H1785     1.0  0.76402  0.23696  0.94397  1.0000
  C   C2251     1.0  0.77804  0.32328  0.96917  1.0000
  C   C2252     1.0  0.71619  0.34079  0.81061  1.0000
  C   C2253     1.0  0.73282  0.13711  0.76264  1.0000
  C   C2254     1.0  0.73471  0.14726  0.77950  1.0000
  C   C2255     1.0  0.73929  0.16777  0.77550  1.0000
  C   C2256     1.0  0.79202  0.26601  0.92640  1.0000
  P   P72       1.0  0.51289  0.20527  0.80186  1.0000
  C   C2257     1.0  0.70087  0.37727  0.80912  1.0000
  H   H1786     1.0  0.72938  0.12115  0.76571  1.0000
  H   H1787     1.0  0.73272  0.13923  0.79566  1.0000
  H   H1788     1.0  0.63694  0.11707  0.80390  1.0000
  C   C2258     1.0  0.85803  0.13240  0.92064  1.0000
  C   C2259     1.0  0.89588  0.11300  0.89983  1.0000
  C   C2260     1.0  0.88608  0.13230  0.89039  1.0000
  C   C2261     1.0  0.86725  0.14210  0.90115  1.0000
  P   P73       1.0  0.89805  0.14513  0.86533  1.0000
  C   C2262     1.0  0.87739  0.15914  0.85045  1.0000
  C   C2263     1.0  0.91409  0.16359  0.86987  1.0000
  C   C2264     1.0  0.93110  0.16911  0.85449  1.0000
  C   C2265     1.0  0.94331  0.18374  0.85764  1.0000
  C   C2266     1.0  0.93836  0.19326  0.87600  1.0000
  C   C2267     1.0  0.92131  0.18803  0.89128  1.0000
  C   C2268     1.0  0.90933  0.17310  0.88834  1.0000
  C   C2269     1.0  0.85823  0.15113  0.85184  1.0000
  C   C2270     1.0  0.84194  0.16239  0.84092  1.0000
  C   C2271     1.0  0.84474  0.18157  0.82844  1.0000
  C   C2272     1.0  0.86393  0.18940  0.82663  1.0000
  C   C2273     1.0  0.88026  0.17818  0.83743  1.0000
  C   C2274     1.0  0.91451  0.12614  0.85005  1.0000
  C   C2275     1.0  0.90720  0.11970  0.83319  1.0000
  C   C2276     1.0  0.92060  0.10596  0.82069  1.0000
  C   C2277     1.0  0.94124  0.09845  0.82503  1.0000
  C   C2278     1.0  0.94845  0.10446  0.84202  1.0000
  C   C2279     1.0  0.93519  0.11827  0.85446  1.0000
  H   H1789     1.0  0.84352  0.14001  0.92887  1.0000
  H   H1790     1.0  0.91073  0.10540  0.89231  1.0000
  H   H1791     1.0  0.85968  0.15727  0.89460  1.0000
  H   H1792     1.0  0.93504  0.16197  0.84013  1.0000
  H   H1793     1.0  0.95693  0.18731  0.84610  1.0000
  H   H1794     1.0  0.94828  0.20401  0.87881  1.0000
  H   H1795     1.0  0.91801  0.19483  0.90587  1.0000
  H   H1796     1.0  0.89681  0.16861  0.90080  1.0000
  H   H1797     1.0  0.85583  0.13627  0.86144  1.0000
  H   H1798     1.0  0.82708  0.15634  0.84219  1.0000
  H   H1799     1.0  0.83211  0.19025  0.82001  1.0000
  H   H1800     1.0  0.86637  0.20407  0.81661  1.0000
  H   H1801     1.0  0.89504  0.18449  0.83551  1.0000
  H   H1802     1.0  0.89139  0.12552  0.82939  1.0000
  H   H1803     1.0  0.91522  0.10143  0.80734  1.0000
  H   H1804     1.0  0.95192  0.08842  0.81491  1.0000
  H   H1805     1.0  0.96463  0.09894  0.84501  1.0000
  H   H1806     1.0  0.94126  0.12319  0.86720  1.0000
  H   H1807     1.0  0.57705  0.23859  0.79841  1.0000
  C   C2280     1.0  0.53077  0.24899  0.83128  1.0000
  C   C2281     1.0  0.55171  0.25008  0.82172  1.0000
  C   C2282     1.0  0.56099  0.23742  0.80624  1.0000
  C   C2283     1.0  0.54924  0.22390  0.80013  1.0000
  H   H1808     1.0  0.52340  0.25891  0.84316  1.0000
  H   H1809     1.0  0.56053  0.26111  0.82592  1.0000
  C   C2284     1.0  0.95810  0.16881  0.80053  1.0000
  C   C2285     1.0  0.86769  0.11304  0.92975  1.0000
  C   C2286     1.0  0.53564  0.14475  0.82504  1.0000
  C   C2287     1.0  0.66690  0.30691  0.87030  1.0000
  H   H1810     1.0  0.63878  0.38855  0.91298  1.0000
  H   H1811     1.0  0.90020  0.14839  0.78969  1.0000
  S   S316      1.0  0.53076  0.30222  0.86280  1.0000
  C   C2288     1.0  0.94390  0.18674  0.79457  1.0000
  C   C2289     1.0  0.88671  0.10344  0.91945  1.0000
  C   C2290     1.0  0.97132  0.15734  0.90166  1.0000
  H   H1812     1.0  0.59427  0.32952  0.95489  1.0000
  H   H1813     1.0  0.66878  0.38351  0.82467  1.0000
  C   C2291     1.0  0.62222  0.09434  0.85438  1.0000
  C   C2292     1.0  0.63248  0.09658  0.83346  1.0000
  C   C2293     1.0  0.83087  0.21291  0.88716  1.0000
  H   H1814     1.0  0.84356  0.26845  0.92312  1.0000
  C   C2294     1.0  0.91986  0.06375  0.96960  1.0000
  H   H1815     1.0  0.94224  0.20019  0.80273  1.0000
  C   C2295     1.0  0.65913  0.31527  0.85114  1.0000
  C   C2296     1.0  0.52682  0.42871  0.86765  1.0000
  H   H1816     1.0  0.61719  0.19113  0.93310  1.0000
  H   H1817     1.0  0.66391  0.39327  0.74436  1.0000
  C   C2297     1.0  0.52801  0.22311  0.80924  1.0000
  H   H1818     1.0  0.68566  0.16717  0.80412  1.0000
  H   H1819     1.0  0.78564  0.29698  0.87913  1.0000
  C   C2298     1.0  0.67753  0.36309  0.75910  1.0000
  H   H1820     1.0  0.69652  0.31844  0.82737  1.0000
  C   C2299     1.0  0.51847  0.16200  0.85503  1.0000
  C   C2300     1.0  0.59852  0.17811  0.82482  1.0000
  C   C2301     1.0  0.73908  0.28035  0.76885  1.0000
  H   H1821     1.0  0.62508  0.07962  0.86474  1.0000
  H   H1822     1.0  0.60770  0.27063  0.80182  1.0000
  H   H1823     1.0  0.65171  0.30778  0.82203  1.0000
  H   H1824     1.0  0.75395  0.27536  0.77514  1.0000
  H   H1825     1.0  0.85244  0.22172  0.93716  1.0000
  C   C2302     1.0  0.67995  0.34143  0.75942  1.0000
  H   H1826     1.0  0.93748  0.12140  0.90811  1.0000
  C   C2303     1.0  0.73746  0.29699  0.75230  1.0000
  C   C2304     1.0  0.61428  0.34145  0.83591  1.0000
  C   C2305     1.0  0.62622  0.29611  0.79405  1.0000
  H   H1827     1.0  0.96733  0.16860  0.81307  1.0000
  H   H1828     1.0  0.95554  0.22842  0.77482  1.0000
  C   C2306     1.0  0.69718  0.33493  0.82198  1.0000
  H   H1829     1.0  0.86058  0.10574  0.94498  1.0000
  C   C2307     1.0  0.64861  0.27459  0.76144  1.0000
  H   H1830     1.0  0.93630  0.04155  0.94890  1.0000
  C   C2308     1.0  0.77539  0.27648  0.93936  1.0000
  C   C2309     1.0  0.60833  0.11111  0.86197  1.0000
  H   H1831     1.0  0.98801  0.04590  0.97136  1.0000
  H   H1832     1.0  0.80935  0.26680  0.89447  1.0000
  C   C2310     1.0  0.68183  0.37147  0.82053  1.0000
  C   C2311     1.0  0.94436  0.13426  0.91135  1.0000
  C   C2312     1.0  0.62096  0.27688  0.79162  1.0000
  P   P74       1.0  0.65542  0.34310  0.84247  1.0000
  C   C2313     1.0  0.57411  0.27304  0.97098  1.0000
  C   C2314     1.0  0.81791  0.22490  0.90166  1.0000
  C   C2315     1.0  0.96443  0.06828  0.95603  1.0000
  C   C2316     1.0  0.70202  0.27719  0.76986  1.0000
  C   C2317     1.0  0.97638  0.23361  0.81194  1.0000
  Fe  Fe154     1.0  0.67632  0.35030  0.96908  1.0000
  C   C2318     1.0  0.62920  0.36775  0.87114  1.0000
  H   H1833     1.0  0.60959  0.38668  0.89332  1.0000
  C   C2319     1.0  0.96205  0.16774  0.91910  1.0000
  H   H1834     1.0  0.68473  0.36948  0.77015  1.0000
  C   C2320     1.0  0.51297  0.18605  0.76638  1.0000
  C   C2321     1.0  0.67979  0.35025  0.82691  1.0000
  C   C2322     1.0  0.49236  0.13284  0.79257  1.0000
  H   H1835     1.0  0.53052  0.23265  0.76418  1.0000
  H   H1836     1.0  0.62689  0.19274  0.82159  1.0000
  H   H1837     1.0  0.58235  0.33994  0.83110  1.0000
  H   H1838     1.0  0.80166  0.23080  0.89917  1.0000
  H   H1839     1.0  0.80798  0.30268  0.96575  1.0000
  H   H1840     1.0  0.68858  0.26925  0.77697  1.0000
  H   H1841     1.0  0.65559  0.18380  0.91926  1.0000
  C   C2323     1.0  0.78293  0.29130  0.89598  1.0000
  C   C2324     1.0  0.82142  0.25471  0.97426  1.0000
  C   C2325     1.0  0.60001  0.35486  0.80307  1.0000
  H   H1842     1.0  0.62773  0.25154  0.77298  1.0000
  H   H1843     1.0  0.61712  0.30476  0.80628  1.0000
  C   C2326     1.0  0.79388  0.22581  0.95632  1.0000
  C   C2327     1.0  0.57691  0.17958  0.83335  1.0000
  H   H1844     1.0  0.86542  0.28529  0.94145  1.0000
  C   C2328     1.0  0.49583  0.37904  0.91057  1.0000
  C   C2329     1.0  0.79608  0.27390  0.90472  1.0000
  H   H1845     1.0  0.89463  0.08885  0.92690  1.0000
  H   H1846     1.0  0.62138  0.36911  0.77765  1.0000
  H   H1847     1.0  0.70246  0.39368  0.80447  1.0000
  H   H1848     1.0  0.72967  0.32885  0.80739  1.0000
  Fe  Fe155     1.0  0.64439  0.22338  0.73680  1.0000
  H   H1849     1.0  0.50494  0.12723  0.80221  1.0000
  C   C2330     1.0  0.84639  0.21981  0.92301  1.0000
  C   C2331     1.0  0.90248  0.04466  0.94990  1.0000
  H   H1850     1.0  0.59483  0.28268  0.74999  1.0000
  H   H1851     1.0  0.69096  0.17391  0.76475  1.0000
  H   H1852     1.0  0.58696  0.35714  0.79385  1.0000
  H   H1853     1.0  0.53693  0.26930  0.94058  1.0000
  C   C2332     1.0  0.71804  0.36193  0.80414  1.0000
  C   C2333     1.0  0.59744  0.34499  0.82407  1.0000
  H   H1854     1.0  0.75614  0.31496  0.90223  1.0000
  C   C2334     1.0  0.61041  0.19300  0.82833  1.0000
  H   H1855     1.0  0.96882  0.18081  0.92207  1.0000
  C   C2335     1.0  0.92104  0.04936  0.95543  1.0000
  C   C2336     1.0  0.82582  0.22904  0.91930  1.0000
  C   C2337     1.0  0.76616  0.30135  0.90895  1.0000
  C   C2338     1.0  0.63211  0.26618  0.77527  1.0000
  S   S317      1.0  0.85725  0.17079  0.96414  1.0000
  H   H1856     1.0  0.74972  0.30208  0.94077  1.0000
  H   H1857     1.0  0.73994  0.16478  0.95332  1.0000
  C   C2339     1.0  0.76349  0.33763  0.95812  1.0000
  C   C2340     1.0  0.60098  0.20870  0.84060  1.0000
  Fe  Fe156     1.0  0.83899  0.14486  0.97944  1.0000
  H   H1858     1.0  0.50282  0.46241  0.90697  1.0000
  H   H1859     1.0  0.73293  0.36641  0.79566  1.0000
  C   C2341     1.0  0.53196  0.41539  0.83406  1.0000
  H   H1860     1.0  0.92849  0.25181  0.75609  1.0000
  H   H1861     1.0  0.79184  0.34149  0.90857  1.0000
  C   C2342     1.0  0.84073  0.26722  0.94029  1.0000
  C   C2343     1.0  0.64258  0.30468  0.78008  1.0000
  C   C2344     1.0  0.63613  0.35854  0.80599  1.0000
  H   H1862     1.0  0.55079  0.19647  0.85195  1.0000
  H   H1863     1.0  0.66170  0.17181  0.74499  1.0000
  H   H1864     1.0  0.65095  0.36381  0.79868  1.0000
  H   H1865     1.0  0.93670  0.16974  0.94571  1.0000
  C   C2345     1.0  0.65383  0.29399  0.76360  1.0000
  C   C2346     1.0  0.52759  0.21857  0.75919  1.0000
  C   C2347     1.0  0.75654  0.16649  0.94877  1.0000
  Fe  Fe157     1.0  0.90149  0.21757  0.73950  1.0000
  C   C2348     1.0  0.94772  0.10984  0.97828  1.0000
  H   H1866     1.0  0.81702  0.31488  0.92751  1.0000
  H   H1867     1.0  0.74427  0.21173  0.96850  1.0000
  H   H1868     1.0  0.64615  0.31972  0.78205  1.0000
  C   C2349     1.0  0.79717  0.31478  0.95787  1.0000
  H   H1869     1.0  0.65712  0.26606  0.74887  1.0000
  C   C2350     1.0  0.80422  0.21029  0.97039  1.0000
  H   H1870     1.0  0.56571  0.18704  0.75455  1.0000
  C   C2351     1.0  0.93485  0.14479  0.92853  1.0000
  C   C2352     1.0  0.94384  0.16152  0.93250  1.0000
  H   H1871     1.0  0.95119  0.14191  0.97846  1.0000
  H   H1872     1.0  0.96431  0.24280  0.80318  1.0000
  H   H1873     1.0  0.59621  0.12128  0.79585  1.0000
  C   C2353     1.0  0.96029  0.24156  0.76351  1.0000
  C   C2354     1.0  0.61938  0.36158  0.79399  1.0000
  Fe  Fe158     1.0  0.88649  0.14780  0.97041  1.0000
  H   H1874     1.0  0.56735  0.16850  0.83059  1.0000
  H   H1875     1.0  0.57448  0.12005  0.76815  1.0000
  C   C2355     1.0  0.88262  0.05408  0.95871  1.0000
  Fe  Fe159     1.0  0.62864  0.36342  0.96888  1.0000
  H   H1876     1.0  0.60048  0.10939  0.87824  1.0000
  C   C2356     1.0  0.53061  0.16317  0.81126  1.0000
  P   P75       1.0  0.80895  0.24397  0.93838  1.0000
  H   H1877     1.0  0.98424  0.21634  0.86334  1.0000
  C   C2357     1.0  0.82502  0.25583  0.95207  1.0000
  H   H1878     1.0  0.68879  0.33131  0.77105  1.0000
  H   H1879     1.0  0.54447  0.13101  0.81871  1.0000
  H   H1880     1.0  0.52782  0.47109  0.92811  1.0000
  C   C2358     1.0  0.57673  0.13499  0.77184  1.0000
  C   C2359     1.0  0.55420  0.27221  0.96555  1.0000
  H   H1881     1.0  0.50507  0.19424  0.84780  1.0000
  S   S318      1.0  0.86972  0.20936  0.73738  1.0000
  C   C2360     1.0  0.53236  0.21645  0.73764  1.0000
  C   C2361     1.0  0.67109  0.33299  0.74483  1.0000
  H   H1882     1.0  0.75124  0.30460  0.74557  1.0000
  P   P76       1.0  0.67467  0.30497  0.74510  1.0000
  C   C2362     1.0  0.50934  0.42893  0.91675  1.0000
  H   H1883     1.0  0.54014  0.27378  0.97729  1.0000
  C   C2363     1.0  0.94480  0.25489  0.75295  1.0000
  H   H1884     1.0  0.96923  0.13251  0.88461  1.0000
  C   C2364     1.0  0.57162  0.17277  0.76422  1.0000
  H   H1885     1.0  0.76719  0.13946  0.97034  1.0000
  C   C2365     1.0  0.52610  0.45489  0.92832  1.0000
  H   H1886     1.0  0.54098  0.41386  0.81853  1.0000
  H   H1887     1.0  0.77762  0.11650  0.73463  1.0000
  S   S319      1.0  0.64857  0.33244  0.97868  1.0000
  C   C2366     1.0  0.88135  0.06830  0.97291  1.0000
  C   C2367     1.0  0.50195  0.40775  0.86058  1.0000
  C   C2368     1.0  0.89990  0.07317  0.97827  1.0000
  H   H1888     1.0  0.95570  0.11007  0.96217  1.0000
  H   H1889     1.0  0.85940  0.28242  0.98083  1.0000
  C   C2369     1.0  0.53864  0.42665  0.84768  1.0000
  H   H1890     1.0  0.54659  0.40565  0.94862  1.0000
  H   H1891     1.0  0.50825  0.39748  0.82986  1.0000
  H   H1892     1.0  0.52134  0.39671  0.92836  1.0000
  C   C2370     1.0  0.52213  0.41304  0.92836  1.0000
  P   P77       1.0  0.94371  0.06767  0.97868  1.0000
  C   C2371     1.0  0.51355  0.40609  0.84047  1.0000
  H   H1893     1.0  0.49913  0.34573  0.92059  1.0000
  C   C2372     1.0  0.95030  0.27205  0.73831  1.0000
  C   C2373     1.0  0.51174  0.44991  0.91655  1.0000
  C   C2374     1.0  0.73529  0.14753  0.74179  1.0000
  C   C2375     1.0  0.66583  0.37647  0.74458  1.0000
  H   H1894     1.0  0.86597  0.07554  0.97986  1.0000
  H   H1895     1.0  0.80945  0.24606  0.98377  1.0000
  S   S320      1.0  0.86790  0.12125  0.98403  1.0000
  C   C2376     1.0  0.77116  0.19678  0.98398  1.0000
  H   H1896     1.0  0.62823  0.47843  0.98164  1.0000
  P   P78       1.0  0.49251  0.42244  0.89967  1.0000
  H   H1897     1.0  0.71474  0.27805  0.98340  1.0000
  C   C2377     1.0  0.97129  0.27600  0.73435  1.0000
  Fe  Fe160     1.0  0.49162  0.35292  0.85063  1.0000
  Fe  Fe161     1.0  0.52313  0.64236  0.08299  1.0000
  S   S321      1.0  0.51218  0.61743  0.10874  1.0000
  C   C2378     1.0  0.50150  0.59236  0.19231  1.0000
  Fe  Fe162     1.0  0.55721  0.65053  0.10817  1.0000
  S   S322      1.0  0.54840  0.62583  0.13535  1.0000
  S   S323      1.0  0.58564  0.66700  0.10871  1.0000
  Fe  Fe163     1.0  0.54693  0.60638  0.11034  1.0000
  S   S324      1.0  0.55892  0.57156  0.11482  1.0000
  Fe  Fe164     1.0  0.51469  0.63932  0.13130  1.0000
  C   C2379     1.0  0.72079  0.64387  0.13395  1.0000
  S   S325      1.0  0.55800  0.62996  0.08304  1.0000
  S   S326      1.0  0.52343  0.66527  0.10558  1.0000
  H   H1898     1.0  0.77198  0.49754  0.18016  1.0000
  S   S327      1.0  0.65280  0.72279  0.18860  1.0000
  C   C2380     1.0  0.55196  0.78518  0.22019  1.0000
  H   H1899     1.0  0.77895  0.48617  0.14054  1.0000
  S   S328      1.0  0.62014  0.76427  0.20160  1.0000
  S   S329      1.0  0.92229  0.93985  0.15890  1.0000
  Fe  Fe165     1.0  0.61742  0.73232  0.19408  1.0000
  S   S330      1.0  0.59115  0.72483  0.17768  1.0000
  Fe  Fe166     1.0  0.65541  0.75305  0.19981  1.0000
  S   S331      1.0  0.67918  0.77499  0.18416  1.0000
  H   H1900     1.0  0.56074  0.56465  0.00085  1.0000
  C   C2381     1.0  0.49418  0.68239  0.16357  1.0000
  Fe  Fe167     1.0  0.67557  0.50861  0.10045  1.0000
  S   S332      1.0  0.70626  0.50177  0.07879  1.0000
  S   S333      1.0  0.65717  0.54048  0.09084  1.0000
  C   C2382     1.0  0.51372  0.59106  0.99885  1.0000
  Fe  Fe168     1.0  0.72138  0.49518  0.10858  1.0000
  S   S334      1.0  0.75229  0.50758  0.10873  1.0000
  H   H1901     1.0  0.55458  0.48681  0.00917  1.0000
  S   S335      1.0  0.69117  0.50383  0.12986  1.0000
  C   C2383     1.0  0.98977  0.75357  0.05727  1.0000
  Fe  Fe169     1.0  0.77803  0.61406  0.21684  1.0000
  S   S336      1.0  0.78514  0.61287  0.18189  1.0000
  H   H1902     1.0  0.66176  0.86168  0.20649  1.0000
  H   H1903     1.0  0.51492  0.58526  0.01534  1.0000
  S   S337      1.0  0.81418  0.56679  0.19292  1.0000
  C   C2384     1.0  0.67607  0.52587  0.03561  1.0000
  Fe  Fe170     1.0  0.81863  0.60092  0.18845  1.0000
  S   S338      1.0  0.84555  0.61696  0.16922  1.0000
  Fe  Fe171     1.0  0.77984  0.57909  0.18975  1.0000
  S   S339      1.0  0.75447  0.56447  0.17902  1.0000
  H   H1904     1.0  0.96116  0.77433  0.05002  1.0000
  C   C2385     1.0  0.50857  0.57839  0.98547  1.0000
  S   S340      1.0  0.83292  0.94480  0.11352  1.0000
  H   H1905     1.0  0.64414  0.62389  0.22890  1.0000
  H   H1906     1.0  0.77299  0.90653  0.12444  1.0000
  H   H1907     1.0  0.69240  0.52863  0.03387  1.0000
  Fe  Fe172     1.0  0.77165  0.86716  0.19880  1.0000
  C   C2386     1.0  0.90027  0.80038  0.15780  1.0000
  S   S341      1.0  0.77036  0.88334  0.16537  1.0000
  H   H1908     1.0  0.98068  0.78962  0.13791  1.0000
  C   C2387     1.0  0.64406  0.63061  0.08121  1.0000
  H   H1909     1.0  0.76039  0.52272  0.20550  1.0000
  S   S342      1.0  0.78599  0.83381  0.20784  1.0000
  C   C2388     1.0  0.73546  0.59365  0.08070  1.0000
  C   C2389     1.0  0.98197  0.76779  0.02166  1.0000
  S   S343      1.0  0.88847  0.71089  0.20807  1.0000
  C   C2390     1.0  0.60553  0.67451  0.21516  1.0000
  C   C2391     1.0  0.80563  0.84177  0.14312  1.0000
  S   S344      1.0  0.93939  0.69300  0.20903  1.0000
  Fe  Fe173     1.0  0.91965  0.72316  0.19763  1.0000
  S   S345      1.0  0.92671  0.74351  0.16628  1.0000
  H   H1910     1.0  0.51271  0.56981  0.13905  1.0000
  H   H1911     1.0  0.80053  0.77545  0.22293  1.0000
  S   S346      1.0  0.86217  0.96053  0.15814  1.0000
  C   C2392     1.0  0.95805  0.72613  0.11572  1.0000
  C   C2393     1.0  0.82462  0.51246  0.14093  1.0000
  C   C2394     1.0  0.96690  0.73980  0.17614  1.0000
  C   C2395     1.0  0.95170  0.75158  0.16418  1.0000
  H   H1912     1.0  0.95550  0.73868  0.12518  1.0000
  H   H1913     1.0  0.96323  0.72596  0.18685  1.0000
  C   C2396     1.0  0.68242  0.89917  0.22737  1.0000
  C   C2397     1.0  0.75796  0.72705  0.21941  1.0000
  H   H1914     1.0  0.79739  0.93033  0.10427  1.0000
  H   H1915     1.0  0.98436  0.88484  0.15174  1.0000
  C   C2398     1.0  0.95721  0.90925  0.15469  1.0000
  C   C2399     1.0  0.95671  0.76949  0.15020  1.0000
  C   C2400     1.0  0.58050  0.54206  0.02030  1.0000
  H   H1916     1.0  0.94504  0.77858  0.14082  1.0000
  H   H1917     1.0  0.66911  0.56933  0.11242  1.0000
  H   H1918     1.0  0.63261  0.64164  0.11113  1.0000
  C   C2401     1.0  0.93965  0.92066  0.14548  1.0000
  H   H1919     1.0  0.83004  0.97807  0.07317  1.0000
  C   C2402     1.0  0.93599  0.91622  0.12606  1.0000
  H   H1920     1.0  0.92256  0.92474  0.11882  1.0000
  C   C2403     1.0  0.81583  0.92831  0.12963  1.0000
  C   C2404     1.0  0.81844  0.91928  0.15055  1.0000
  C   C2405     1.0  0.80468  0.90527  0.16197  1.0000
  C   C2406     1.0  0.78817  0.90071  0.15254  1.0000
  C   C2407     1.0  0.78560  0.91004  0.13184  1.0000
  C   C2408     1.0  0.79941  0.92357  0.12043  1.0000
  H   H1921     1.0  0.83120  0.92276  0.15775  1.0000
  H   H1922     1.0  0.80678  0.89807  0.17796  1.0000
  H   H1923     1.0  0.98333  0.71216  0.06835  1.0000
  C   C2409     1.0  0.86181  0.62583  0.18434  1.0000
  C   C2410     1.0  0.87144  0.61202  0.20015  1.0000
  C   C2411     1.0  0.88501  0.61896  0.21158  1.0000
  C   C2412     1.0  0.88851  0.63987  0.20787  1.0000
  C   C2413     1.0  0.87911  0.65372  0.19192  1.0000
  C   C2414     1.0  0.86599  0.64662  0.18000  1.0000
  H   H1924     1.0  0.86867  0.59588  0.20331  1.0000
  H   H1925     1.0  0.74793  0.97385  0.21508  1.0000
  H   H1926     1.0  0.88183  0.66986  0.18880  1.0000
  H   H1927     1.0  0.85876  0.65733  0.16766  1.0000
  H   H1928     1.0  0.73743  0.68455  0.22952  1.0000
  Fe  Fe174     1.0  0.89621  0.96169  0.14288  1.0000
  C   C2415     1.0  0.90216  0.89647  0.09212  1.0000
  H   H1929     1.0  0.71577  0.66048  0.13408  1.0000
  H   H1930     1.0  0.89039  0.89466  0.15920  1.0000
  H   H1931     1.0  0.86960  0.96359  0.22279  1.0000
  C   C2416     1.0  0.75353  0.52283  0.12864  1.0000
  C   C2417     1.0  0.73816  0.52319  0.14663  1.0000
  C   C2418     1.0  0.73940  0.53532  0.16226  1.0000
  C   C2419     1.0  0.75588  0.54735  0.16014  1.0000
  C   C2420     1.0  0.77173  0.54651  0.14251  1.0000
  C   C2421     1.0  0.77054  0.53425  0.12682  1.0000
  H   H1932     1.0  0.72538  0.51399  0.14864  1.0000
  H   H1933     1.0  0.72747  0.53541  0.17613  1.0000
  H   H1934     1.0  0.78454  0.55570  0.14069  1.0000
  H   H1935     1.0  0.78263  0.53387  0.11306  1.0000
  C   C2422     1.0  0.49526  0.54921  0.02379  1.0000
  S   S347      1.0  0.66259  0.67601  0.23318  1.0000
  C   C2423     1.0  0.92778  0.79202  0.09781  1.0000
  C   C2424     1.0  0.93535  0.81027  0.09978  1.0000
  H   H1936     1.0  0.82723  0.49211  0.08732  1.0000
  C   C2425     1.0  0.81925  0.49693  0.19764  1.0000
  H   H1937     1.0  0.62574  0.50757  0.00222  1.0000
  H   H1938     1.0  0.57180  0.80952  0.21265  1.0000
  C   C2426     1.0  0.51649  0.61185  0.99128  1.0000
  C   C2427     1.0  0.71976  0.63889  0.22792  1.0000
  C   C2428     1.0  0.69552  0.78302  0.19996  1.0000
  C   C2429     1.0  0.70577  0.80068  0.19226  1.0000
  C   C2430     1.0  0.71940  0.80692  0.20425  1.0000
  C   C2431     1.0  0.96422  0.69331  0.09175  1.0000
  H   H1939     1.0  0.83592  0.49057  0.19510  1.0000
  C   C2432     1.0  0.69914  0.77161  0.21970  1.0000
  H   H1940     1.0  0.70315  0.80956  0.17697  1.0000
  H   H1941     1.0  0.72717  0.82056  0.19821  1.0000
  C   C2433     1.0  0.56926  0.56990  0.05018  1.0000
  H   H1942     1.0  0.87664  0.92173  0.09740  1.0000
  C   C2434     1.0  0.63368  0.51843  0.04164  1.0000
  C   C2435     1.0  0.58642  0.56321  0.10913  1.0000
  C   C2436     1.0  0.59449  0.54201  0.11441  1.0000
  C   C2437     1.0  0.61628  0.53481  0.10938  1.0000
  C   C2438     1.0  0.63001  0.54877  0.09875  1.0000
  C   C2439     1.0  0.62198  0.57001  0.09377  1.0000
  C   C2440     1.0  0.60028  0.57725  0.09904  1.0000
  H   H1943     1.0  0.58384  0.53113  0.12239  1.0000
  H   H1944     1.0  0.62240  0.51845  0.11337  1.0000
  H   H1945     1.0  0.63258  0.58091  0.08564  1.0000
  H   H1946     1.0  0.59425  0.59362  0.09493  1.0000
  C   C2441     1.0  0.70461  0.68142  0.22975  1.0000
  H   H1947     1.0  0.50678  0.68131  0.15032  1.0000
  H   H1948     1.0  0.83773  0.86308  0.19151  1.0000
  H   H1949     1.0  0.55896  0.72347  0.21559  1.0000
  H   H1950     1.0  0.69883  0.69778  0.23064  1.0000
  C   C2442     1.0  0.58710  0.68235  0.12858  1.0000
  C   C2443     1.0  0.56922  0.68887  0.14268  1.0000
  C   C2444     1.0  0.57085  0.70170  0.15768  1.0000
  C   C2445     1.0  0.59045  0.70768  0.15922  1.0000
  C   C2446     1.0  0.60845  0.70069  0.14550  1.0000
  C   C2447     1.0  0.60670  0.68832  0.13010  1.0000
  H   H1951     1.0  0.55401  0.68454  0.14163  1.0000
  H   H1952     1.0  0.55676  0.70723  0.16800  1.0000
  H   H1953     1.0  0.62355  0.70541  0.14632  1.0000
  H   H1954     1.0  0.62054  0.68356  0.11911  1.0000
  C   C2448     1.0  0.67157  0.50589  0.03493  1.0000
  H   H1955     1.0  0.85814  0.78630  0.18177  1.0000
  C   C2449     1.0  0.49643  0.72079  0.11761  1.0000
  H   H1956     1.0  0.93588  0.76022  0.09193  1.0000
  H   H1957     1.0  0.82359  0.51869  0.15563  1.0000
  H   H1958     1.0  0.63137  0.48599  0.07682  1.0000
  C   C2450     1.0  0.54489  0.76893  0.21282  1.0000
  H   H1959     1.0  0.69186  0.75775  0.22563  1.0000
  P   P79       1.0  0.96973  0.82612  0.21574  1.0000
  S   S348      1.0  0.98290  0.86891  0.11203  1.0000
  C   C2451     1.0  0.78340  0.50083  0.18925  1.0000
  C   C2452     1.0  0.55225  0.76488  0.19199  1.0000
  C   C2453     1.0  0.56704  0.77644  0.17895  1.0000
  C   C2454     1.0  0.57408  0.79253  0.18639  1.0000
  C   C2455     1.0  0.60956  0.47994  0.10520  1.0000
  H   H1960     1.0  0.55075  0.58926  0.02747  1.0000
  H   H1961     1.0  0.66299  0.55745  0.04043  1.0000
  C   C2456     1.0  0.70914  0.63226  0.12499  1.0000
  H   H1962     1.0  0.94421  0.67789  0.11780  1.0000
  H   H1963     1.0  0.95589  0.58775  0.18281  1.0000
  H   H1964     1.0  0.54669  0.75274  0.18578  1.0000
  H   H1965     1.0  0.57321  0.77268  0.16316  1.0000
  H   H1966     1.0  0.58564  0.80138  0.17632  1.0000
  H   H1967     1.0  0.97149  0.77751  0.01125  1.0000
  H   H1968     1.0  0.84163  0.71005  0.23262  1.0000
  C   C2457     1.0  0.56123  0.57470  0.03085  1.0000
  H   H1969     1.0  0.85904  0.90259  0.12975  1.0000
  C   C2458     1.0  0.65049  0.50223  0.03778  1.0000
  H   H1970     1.0  0.83331  0.88442  0.22017  1.0000
  C   C2459     1.0  0.52597  0.57482  0.16594  1.0000
  C   C2460     1.0  0.52218  0.58328  0.18507  1.0000
  C   C2461     1.0  0.97370  0.71130  0.08379  1.0000
  P   P80       1.0  0.54343  0.58317  0.20022  1.0000
  C   C2462     1.0  0.60513  0.49390  0.02913  1.0000
  C   C2463     1.0  0.56661  0.56533  0.19144  1.0000
  C   C2464     1.0  0.57331  0.54668  0.20438  1.0000
  C   C2465     1.0  0.59119  0.53307  0.19710  1.0000
  C   C2466     1.0  0.60249  0.53796  0.17692  1.0000
  C   C2467     1.0  0.59606  0.55657  0.16409  1.0000
  C   C2468     1.0  0.57833  0.57029  0.17137  1.0000
  H   H1971     1.0  0.49369  0.77364  0.10587  1.0000
  H   H1972     1.0  0.55961  0.68694  0.21073  1.0000
  H   H1973     1.0  0.67769  0.56859  0.22208  1.0000
  C   C2469     1.0  0.84395  0.85347  0.14905  1.0000
  C   C2470     1.0  0.57860  0.50548  0.08325  1.0000
  C   C2471     1.0  0.55150  0.60877  0.19677  1.0000
  C   C2472     1.0  0.53900  0.62662  0.18767  1.0000
  C   C2473     1.0  0.54605  0.64613  0.18425  1.0000
  C   C2474     1.0  0.56532  0.64804  0.19040  1.0000
  C   C2475     1.0  0.95165  0.69176  0.11166  1.0000
  C   C2476     1.0  0.52882  0.53453  0.99029  1.0000
  C   C2477     1.0  0.83244  0.86481  0.13310  1.0000
  C   C2478     1.0  0.50026  0.77220  0.22220  1.0000
  H   H1974     1.0  0.58062  0.59736  0.21023  1.0000
  H   H1975     1.0  0.54159  0.56765  0.15982  1.0000
  H   H1976     1.0  0.64733  0.48668  0.03717  1.0000
  H   H1977     1.0  0.52677  0.54695  0.03224  1.0000
  C   C2479     1.0  0.97060  0.72791  0.09572  1.0000
  H   H1978     1.0  0.61614  0.52728  0.17111  1.0000
  H   H1979     1.0  0.60461  0.56022  0.14833  1.0000
  H   H1980     1.0  0.57336  0.58453  0.16109  1.0000
  C   C2480     1.0  0.87768  0.89237  0.17225  1.0000
  C   C2481     1.0  0.87328  0.89483  0.12126  1.0000
  H   H1981     1.0  0.93840  0.61885  0.19958  1.0000
  P   P81       1.0  0.86891  0.86044  0.15282  1.0000
  H   H1982     1.0  0.52410  0.62558  0.18261  1.0000
  H   H1983     1.0  0.53663  0.65974  0.17657  1.0000
  H   H1984     1.0  0.57105  0.66303  0.18718  1.0000
  C   C2482     1.0  0.82930  0.52547  0.12176  1.0000
  H   H1985     1.0  0.81319  0.96389  0.20881  1.0000
  H   H1986     1.0  0.69115  0.55158  0.18400  1.0000
  C   C2483     1.0  0.77335  0.93421  0.22562  1.0000
  C   C2484     1.0  0.55166  0.50171  0.99911  1.0000
  H   H1987     1.0  0.52015  0.54910  0.22091  1.0000
  P   P82       1.0  0.50410  0.55174  0.99549  1.0000
  C   C2485     1.0  0.66038  0.61852  0.06959  1.0000
  C   C2486     1.0  0.71556  0.61068  0.12494  1.0000
  H   H1988     1.0  0.59620  0.51862  0.20704  1.0000
  C   C2487     1.0  0.88166  0.87417  0.12863  1.0000
  C   C2488     1.0  0.81243  0.51114  0.21216  1.0000
  H   H1989     1.0  0.55699  0.49940  0.11209  1.0000
  C   C2489     1.0  0.63308  0.63758  0.22454  1.0000
  C   C2490     1.0  0.81701  0.83030  0.15891  1.0000
  H   H1990     1.0  0.79049  0.83772  0.14127  1.0000
  H   H1991     1.0  0.79222  0.48162  0.07243  1.0000
  C   C2491     1.0  0.94972  0.90066  0.11595  1.0000
  H   H1992     1.0  0.73574  0.60983  0.08218  1.0000
  C   C2492     1.0  0.95899  0.58934  0.19843  1.0000
  C   C2493     1.0  0.90650  0.81522  0.18769  1.0000
  H   H1993     1.0  0.65321  0.83555  0.18657  1.0000
  H   H1994     1.0  0.91352  0.81346  0.20209  1.0000
  C   C2494     1.0  0.56646  0.79696  0.20695  1.0000
  Fe  Fe175     1.0  0.64960  0.71004  0.22332  1.0000
  C   C2495     1.0  0.97628  0.57559  0.22971  1.0000
  H   H1995     1.0  0.69499  0.89622  0.21434  1.0000
  C   C2496     1.0  0.79490  0.95418  0.18874  1.0000
  C   C2497     1.0  0.50325  0.74032  0.11144  1.0000
  C   C2498     1.0  0.70335  0.58519  0.20645  1.0000
  C   C2499     1.0  0.57075  0.61089  0.20312  1.0000
  C   C2500     1.0  0.97147  0.79266  0.09388  1.0000
  C   C2501     1.0  0.50326  0.54547  0.05991  1.0000
  H   H1996     1.0  0.65911  0.61688  0.05344  1.0000
  H   H1997     1.0  0.98520  0.86287  0.18796  1.0000
  H   H1998     1.0  0.75494  0.92474  0.20485  1.0000
  H   H1999     1.0  0.73483  0.53599  0.07433  1.0000
  H   H2000     1.0  0.85947  0.67355  0.23345  1.0000
  H   H2001     1.0  0.85739  0.91068  0.21873  1.0000
  C   C2502     1.0  0.66620  0.59798  0.20413  1.0000
  H   H2002     1.0  0.68678  0.63551  0.22954  1.0000
  H   H2003     1.0  0.74791  0.64303  0.14987  1.0000
  C   C2503     1.0  0.77852  0.94321  0.18740  1.0000
  C   C2504     1.0  0.65770  0.84681  0.21486  1.0000
  C   C2505     1.0  0.75794  0.75167  0.17959  1.0000
  C   C2506     1.0  0.73956  0.74361  0.18978  1.0000
  H   H2004     1.0  0.90775  0.84936  0.12336  1.0000
  H   H2005     1.0  0.68442  0.49312  0.03252  1.0000
  C   C2507     1.0  0.77649  0.73520  0.20934  1.0000
  C   C2508     1.0  0.77640  0.74740  0.18924  1.0000
  C   C2509     1.0  0.71306  0.77757  0.23144  1.0000
  C   C2510     1.0  0.81807  0.74841  0.20932  1.0000
  S   S349      1.0  0.50672  0.65336  0.05335  1.0000
  C   C2511     1.0  0.52478  0.72937  0.22371  1.0000
  Fe  Fe176     1.0  0.80486  0.57104  0.22720  1.0000
  C   C2512     1.0  0.87503  0.90452  0.18859  1.0000
  C   C2513     1.0  0.95315  0.60900  0.22789  1.0000
  H   H2006     1.0  0.84418  0.82752  0.17484  1.0000
  C   C2514     1.0  0.83590  0.74146  0.19519  1.0000
  C   C2515     1.0  0.85033  0.75508  0.18535  1.0000
  C   C2516     1.0  0.84677  0.77587  0.18905  1.0000
  C   C2517     1.0  0.82862  0.78313  0.20235  1.0000
  C   C2518     1.0  0.81432  0.76950  0.21247  1.0000
  C   C2519     1.0  0.79039  0.94442  0.22718  1.0000
  H   H2007     1.0  0.91084  0.79179  0.09926  1.0000
  C   C2520     1.0  0.83596  0.83624  0.16206  1.0000
  H   H2008     1.0  0.91848  0.78363  0.18210  1.0000
  P   P83       1.0  0.79970  0.73074  0.22278  1.0000
  H   H2009     1.0  0.92325  0.83217  0.22709  1.0000
  H   H2010     1.0  0.75772  0.76151  0.16434  1.0000
  H   H2011     1.0  0.72513  0.74725  0.18247  1.0000
  H   H2012     1.0  0.77445  0.94206  0.17203  1.0000
  H   H2013     1.0  0.64972  0.59562  0.20827  1.0000
  H   H2014     1.0  0.79037  0.75396  0.18112  1.0000
  C   C2521     1.0  0.76760  0.93340  0.20585  1.0000
  C   C2522     1.0  0.86423  0.87736  0.17299  1.0000
  H   H2015     1.0  0.70920  0.55206  0.10157  1.0000
  H   H2016     1.0  0.76173  0.59306  0.05527  1.0000
  C   C2523     1.0  0.90056  0.86491  0.11764  1.0000
  H   H2017     1.0  0.83885  0.72549  0.19187  1.0000
  H   H2018     1.0  0.82584  0.79923  0.20530  1.0000
  C   C2524     1.0  0.80472  0.49149  0.18622  1.0000
  H   H2019     1.0  0.51953  0.62178  0.00199  1.0000
  C   C2525     1.0  0.88336  0.90583  0.10297  1.0000
  C   C2526     1.0  0.65281  0.83217  0.20364  1.0000
  C   C2527     1.0  0.57742  0.63052  0.20027  1.0000
  C   C2528     1.0  0.72318  0.79526  0.22385  1.0000
  C   C2529     1.0  0.52583  0.68740  0.21902  1.0000
  C   C2530     1.0  0.60291  0.62911  0.15034  1.0000
  C   C2531     1.0  0.60914  0.60924  0.14452  1.0000
  C   C2532     1.0  0.62783  0.59730  0.15037  1.0000
  C   C2533     1.0  0.64041  0.60526  0.16193  1.0000
  C   C2534     1.0  0.63443  0.62547  0.16756  1.0000
  C   C2535     1.0  0.61562  0.63736  0.16143  1.0000
  P   P84       1.0  0.65097  0.63652  0.18169  1.0000
  C   C2536     1.0  0.67163  0.61640  0.19126  1.0000
  C   C2537     1.0  0.66233  0.65818  0.16514  1.0000
  C   C2538     1.0  0.65831  0.66460  0.14413  1.0000
  C   C2539     1.0  0.66673  0.68183  0.13189  1.0000
  C   C2540     1.0  0.67918  0.69281  0.14055  1.0000
  C   C2541     1.0  0.68325  0.68653  0.16144  1.0000
  C   C2542     1.0  0.67456  0.66954  0.17379  1.0000
  C   C2543     1.0  0.69322  0.61865  0.18562  1.0000
  C   C2544     1.0  0.70895  0.60315  0.19323  1.0000
  H   H2020     1.0  0.92570  0.86900  0.09135  1.0000
  C   C2545     1.0  0.83030  0.51811  0.10246  1.0000
  H   H2021     1.0  0.71570  0.57325  0.21226  1.0000
  C   C2546     1.0  0.63368  0.64754  0.20341  1.0000
  C   C2547     1.0  0.62024  0.66648  0.19907  1.0000
  C   C2548     1.0  0.61509  0.48912  0.08423  1.0000
  H   H2022     1.0  0.96654  0.68058  0.08245  1.0000
  H   H2023     1.0  0.64395  0.80157  0.20569  1.0000
  H   H2024     1.0  0.51471  0.54424  0.07077  1.0000
  H   H2025     1.0  0.58829  0.63832  0.14601  1.0000
  H   H2026     1.0  0.59960  0.60325  0.13521  1.0000
  H   H2027     1.0  0.63268  0.58201  0.14558  1.0000
  H   H2028     1.0  0.65507  0.59584  0.16573  1.0000
  H   H2029     1.0  0.61065  0.65314  0.16491  1.0000
  H   H2030     1.0  0.64826  0.65678  0.13727  1.0000
  H   H2031     1.0  0.66316  0.68699  0.11584  1.0000
  H   H2032     1.0  0.68538  0.70642  0.13124  1.0000
  H   H2033     1.0  0.69260  0.69520  0.16837  1.0000
  H   H2034     1.0  0.67728  0.66530  0.19018  1.0000
  H   H2035     1.0  0.69818  0.63229  0.17542  1.0000
  H   H2036     1.0  0.72557  0.60506  0.18893  1.0000
  C   C2549     1.0  0.80070  0.95496  0.20851  1.0000
  H   H2037     1.0  0.83774  0.87842  0.12308  1.0000
  C   C2550     1.0  0.94206  0.77407  0.09381  1.0000
  H   H2038     1.0  0.62126  0.67537  0.18330  1.0000
  Fe  Fe177     1.0  0.75631  0.83114  0.23111  1.0000
  C   C2551     1.0  0.68198  0.58259  0.21190  1.0000
  H   H2039     1.0  0.72525  0.72520  0.21757  1.0000
  C   C2552     1.0  0.58867  0.48369  0.11526  1.0000
  C   C2553     1.0  0.64548  0.63244  0.10214  1.0000
  H   H2040     1.0  0.66441  0.53306  0.17436  1.0000
  C   C2554     1.0  0.79119  0.52025  0.21514  1.0000
  C   C2555     1.0  0.77672  0.51514  0.20366  1.0000
  C   C2556     1.0  0.81250  0.70380  0.22390  1.0000
  H   H2041     1.0  0.58936  0.54802  0.06946  1.0000
  H   H2042     1.0  0.63017  0.63845  0.07411  1.0000
  H   H2043     1.0  0.83181  0.54139  0.12194  1.0000
  S   S350      1.0  0.88984  0.96017  0.11005  1.0000
  H   H2044     1.0  0.80421  0.86817  0.11834  1.0000
  S   S351      1.0  0.61416  0.71853  0.22850  1.0000
  C   C2557     1.0  0.95718  0.81061  0.09782  1.0000
  H   H2045     1.0  0.86443  0.74942  0.17504  1.0000
  H   H2046     1.0  0.94681  0.89751  0.10085  1.0000
  H   H2047     1.0  0.66322  0.92252  0.20827  1.0000
  C   C2558     1.0  0.84562  0.88681  0.20672  1.0000
  C   C2559     1.0  0.57318  0.49642  0.10427  1.0000
  C   C2560     1.0  0.68619  0.55566  0.16844  1.0000
  H   H2048     1.0  0.70730  0.57837  0.15821  1.0000
  C   C2561     1.0  0.69545  0.57088  0.15358  1.0000
  C   C2562     1.0  0.67110  0.54525  0.16304  1.0000
  C   C2563     1.0  0.67813  0.60823  0.07892  1.0000
  H   H2049     1.0  0.73985  0.58466  0.13281  1.0000
  H   H2050     1.0  0.75993  0.60512  0.14885  1.0000
  H   H2051     1.0  0.69026  0.59850  0.06979  1.0000
  H   H2052     1.0  0.93883  0.70712  0.13910  1.0000
  H   H2053     1.0  0.72548  0.62246  0.22744  1.0000
  C   C2564     1.0  0.68953  0.57587  0.13312  1.0000
  C   C2565     1.0  0.66498  0.55029  0.14283  1.0000
  C   C2566     1.0  0.66320  0.62213  0.11150  1.0000
  P   P85       1.0  0.70130  0.59509  0.11314  1.0000
  C   C2567     1.0  0.73424  0.60117  0.13318  1.0000
  C   C2568     1.0  0.74576  0.61278  0.14219  1.0000
  C   C2569     1.0  0.67974  0.61010  0.09996  1.0000
  H   H2054     1.0  0.85295  0.54792  0.22833  1.0000
  C   C2570     1.0  0.95697  0.83518  0.19233  1.0000
  P   P86       1.0  0.98260  0.75135  0.08574  1.0000
  C   C2571     1.0  0.94917  0.60688  0.20780  1.0000
  C   C2572     1.0  0.88531  0.83638  0.16186  1.0000
  Fe  Fe178     1.0  0.90812  0.68185  0.22218  1.0000
  C   C2573     1.0  0.91080  0.87603  0.09948  1.0000
  H   H2055     1.0  0.96018  0.91255  0.16971  1.0000
  H   H2056     1.0  0.65349  0.54209  0.13840  1.0000
  H   H2057     1.0  0.66402  0.62331  0.12780  1.0000
  H   H2058     1.0  0.50803  0.70678  0.11829  1.0000
  C   C2574     1.0  0.95388  0.83213  0.15600  1.0000
  C   C2575     1.0  0.67401  0.56565  0.12803  1.0000
  H   H2059     1.0  0.93618  0.85855  0.13895  1.0000
  C   C2576     1.0  0.50944  0.57578  0.15412  1.0000
  C   C2577     1.0  0.97540  0.79788  0.21897  1.0000
  C   C2578     1.0  0.69023  0.66755  0.23020  1.0000
  C   C2579     1.0  0.72039  0.56137  0.09159  1.0000
  H   H2060     1.0  0.95820  0.82373  0.14247  1.0000
  C   C2580     1.0  0.53274  0.51523  0.00334  1.0000
  H   H2061     1.0  0.90245  0.78712  0.14919  1.0000
  C   C2581     1.0  0.59968  0.50213  0.07314  1.0000
  C   C2582     1.0  0.73898  0.63409  0.14274  1.0000
  H   H2062     1.0  0.62591  0.55117  0.04581  1.0000
  C   C2583     1.0  0.54418  0.71704  0.21795  1.0000
  C   C2584     1.0  0.85912  0.90162  0.20590  1.0000
  C   C2585     1.0  0.94124  0.85167  0.15406  1.0000
  C   C2586     1.0  0.69786  0.64630  0.22916  1.0000
  C   C2587     1.0  0.61680  0.49477  0.00865  1.0000
  H   H2063     1.0  0.97223  0.80907  0.17590  1.0000
  C   C2588     1.0  0.72062  0.58222  0.09410  1.0000
  C   C2589     1.0  0.97097  0.89358  0.14454  1.0000
  C   C2590     1.0  0.97262  0.57384  0.20924  1.0000
  H   H2064     1.0  0.56483  0.54252  0.22003  1.0000
  C   C2591     1.0  0.75014  0.58425  0.06535  1.0000
  C   C2592     1.0  0.96180  0.82389  0.17504  1.0000
  H   H2065     1.0  0.59541  0.68920  0.21152  1.0000
  C   C2593     1.0  0.66458  0.91400  0.22401  1.0000
  H   H2066     1.0  0.52008  0.74133  0.10733  1.0000
  H   H2067     1.0  0.58473  0.53154  0.00854  1.0000
  H   H2068     1.0  0.69544  0.64034  0.11791  1.0000
  C   C2594     1.0  0.82672  0.49769  0.10229  1.0000
  H   H2069     1.0  0.83363  0.52834  0.08765  1.0000
  C   C2595     1.0  0.65947  0.54215  0.03915  1.0000
  C   C2596     1.0  0.63836  0.53845  0.04234  1.0000
  C   C2597     1.0  0.96717  0.88917  0.12513  1.0000
  H   H2070     1.0  0.59225  0.63209  0.20520  1.0000
  C   C2598     1.0  0.82212  0.48459  0.12143  1.0000
  C   C2599     1.0  0.94861  0.70817  0.12365  1.0000
  C   C2600     1.0  0.97680  0.77575  0.14853  1.0000
  H   H2071     1.0  0.96312  0.82482  0.09921  1.0000
  H   H2072     1.0  0.98910  0.69921  0.21304  1.0000
  C   C2601     1.0  0.81338  0.85895  0.13019  1.0000
  C   C2602     1.0  0.88824  0.81930  0.15057  1.0000
  C   C2603     1.0  0.73406  0.65264  0.22830  1.0000
  S   S352      1.0  0.78532  0.88004  0.22252  1.0000
  C   C2604     1.0  0.64764  0.81295  0.21441  1.0000
  H   H2073     1.0  0.80339  0.96180  0.17436  1.0000
  C   C2605     1.0  0.96406  0.77413  0.09217  1.0000
  S   S353      1.0  0.91897  0.73741  0.22700  1.0000
  C   C2606     1.0  0.97618  0.76597  0.04369  1.0000
  H   H2074     1.0  0.74458  0.97247  0.15042  1.0000
  C   C2607     1.0  0.93622  0.86292  0.17121  1.0000
  Fe  Fe179     1.0  0.85578  0.96136  0.12502  1.0000
  H   H2075     1.0  0.56629  0.51506  0.07497  1.0000
  C   C2608     1.0  0.96455  0.76387  0.23302  1.0000
  P   P87       1.0  0.60649  0.51322  0.04570  1.0000
  C   C2609     1.0  0.56688  0.56081  0.01589  1.0000
  H   H2076     1.0  0.92431  0.82419  0.10257  1.0000
  C   C2610     1.0  0.90933  0.79835  0.17638  1.0000
  S   S354      1.0  0.77030  0.58138  0.22454  1.0000
  C   C2611     1.0  0.58867  0.53719  0.03969  1.0000
  H   H2077     1.0  0.88546  0.91612  0.18777  1.0000
  C   C2612     1.0  0.74990  0.56347  0.06305  1.0000
  C   C2613     1.0  0.73494  0.55213  0.07604  1.0000
  H   H2078     1.0  0.92702  0.87841  0.16936  1.0000
  C   C2614     1.0  0.94420  0.85483  0.19023  1.0000
  C   C2615     1.0  0.58302  0.55132  0.05452  1.0000
  H   H2079     1.0  0.94109  0.86432  0.20293  1.0000
  C   C2616     1.0  0.82094  0.49192  0.14091  1.0000
  C   C2617     1.0  0.54464  0.69619  0.21543  1.0000
  C   C2618     1.0  0.89455  0.83420  0.18051  1.0000
  S   S355      1.0  0.81177  0.60399  0.22301  1.0000
  H   H2080     1.0  0.56498  0.58065  0.06184  1.0000
  H   H2081     1.0  0.89247  0.84698  0.18966  1.0000
  H   H2082     1.0  0.91020  0.90522  0.07823  1.0000
  H   H2083     1.0  0.88102  0.82058  0.13631  1.0000
  H   H2084     1.0  0.52613  0.67129  0.21698  1.0000
  H   H2085     1.0  0.82365  0.51539  0.22093  1.0000
  C   C2619     1.0  0.49208  0.78954  0.23269  1.0000
  C   C2620     1.0  0.84816  0.87469  0.19035  1.0000
  C   C2621     1.0  0.72642  0.67390  0.22913  1.0000
  H   H2086     1.0  0.76133  0.55608  0.05127  1.0000
  H   H2087     1.0  0.81084  0.81710  0.16902  1.0000
  S   S356      1.0  0.74070  0.86324  0.21964  1.0000
  H   H2088     1.0  0.80422  0.65559  0.21639  1.0000
  C   C2622     1.0  0.81227  0.66751  0.22011  1.0000
  H   H2089     1.0  0.72107  0.49992  0.21906  1.0000
  C   C2623     1.0  0.50656  0.69943  0.22545  1.0000
  C   C2624     1.0  0.50603  0.72030  0.22794  1.0000
  C   C2625     1.0  0.53347  0.57506  0.22771  1.0000
  P   P88       1.0  0.52417  0.75565  0.22878  1.0000
  H   H2090     1.0  0.98827  0.79337  0.09215  1.0000
  C   C2626     1.0  0.51004  0.54707  0.03804  1.0000
  C   C2627     1.0  0.98423  0.75403  0.22448  1.0000
  H   H2091     1.0  0.49824  0.59943  0.20675  1.0000
  C   C2628     1.0  0.96004  0.78570  0.23012  1.0000
  H   H2092     1.0  0.84010  0.94348  0.22513  1.0000
  H   H2093     1.0  0.96046  0.53725  0.22783  1.0000
  Fe  Fe180     1.0  0.79763  0.84636  0.23334  1.0000
  H   H2094     1.0  0.78610  0.53165  0.22597  1.0000
  H   H2095     1.0  0.49979  0.60947  0.06083  1.0000
  H   H2096     1.0  0.89268  0.60814  0.22353  1.0000
  S   S357      1.0  0.76126  0.64365  0.22944  1.0000
  C   C2629     1.0  0.83283  0.66221  0.22534  1.0000
  H   H2097     1.0  0.84074  0.64623  0.22552  1.0000
  C   C2630     1.0  0.98703  0.74579  0.17408  1.0000
  S   S358      1.0  0.90450  0.64785  0.22386  1.0000
  H   H2098     1.0  0.88204  0.77160  0.23179  1.0000
  H   H2099     1.0  0.78624  0.69174  0.21513  1.0000
  H   H2100     1.0  0.87146  0.81016  0.22518  1.0000
  H   H2101     1.0  0.52105  0.51050  0.01662  1.0000
  H   H2102     1.0  0.49733  0.75608  0.19633  1.0000
  C   C2631     1.0  0.83321  0.69828  0.22919  1.0000
  H   H2103     1.0  0.49662  0.71432  0.16609  1.0000
  C   C2632     1.0  0.73961  0.73122  0.20963  1.0000
  C   C2633     1.0  0.84333  0.67760  0.22983  1.0000
  C   C2634     1.0  0.80211  0.68818  0.21938  1.0000
  H   H2104     1.0  0.98017  0.56038  0.20168  1.0000
  H   H2105     1.0  0.98755  0.73710  0.22651  1.0000
  H   H2106     1.0  0.77944  0.97835  0.12928  1.0000
  H   H2107     1.0  0.49192  0.69271  0.22836  1.0000
  C   C2635     1.0  0.52247  0.55771  0.23311  1.0000
  H   H2108     1.0  0.49766  0.51166  0.98410  1.0000
  C   C2636     1.0  0.82741  0.90621  0.26171  1.0000
  S   S359      1.0  0.50550  0.83962  0.36614  1.0000
  Fe  Fe181     1.0  0.52664  0.85121  0.30617  1.0000
  S   S360      1.0  0.54215  0.82602  0.32892  1.0000
  S   S361      1.0  0.54374  0.85173  0.27236  1.0000
  Fe  Fe182     1.0  0.50890  0.81908  0.34059  1.0000
  H   H2109     1.0  0.73108  0.50865  0.32170  1.0000
  Fe  Fe183     1.0  0.53670  0.85063  0.35055  1.0000
  S   S362      1.0  0.56400  0.85783  0.36574  1.0000
  C   C2637     1.0  0.60469  0.90704  0.28090  1.0000
  S   S363      1.0  0.52220  0.87617  0.32741  1.0000
  S   S364      1.0  0.87957  0.50402  0.32762  1.0000
  S   S365      1.0  0.90429  0.50206  0.27076  1.0000
  Fe  Fe184     1.0  0.90409  0.49801  0.34982  1.0000
  S   S366      1.0  0.90978  0.52537  0.36521  1.0000
  C   C2638     1.0  0.64785  0.80808  0.23631  1.0000
  H   H2110     1.0  0.82089  0.85522  0.27837  1.0000
  Fe  Fe185     1.0  0.62526  0.95993  0.35725  1.0000
  S   S367      1.0  0.64769  0.95107  0.38172  1.0000
  S   S368      1.0  0.59395  0.94811  0.35574  1.0000
  S   S369      1.0  0.92991  0.48340  0.32675  1.0000
  C   C2639     1.0  0.50013  0.86447  0.44260  1.0000
  Fe  Fe186     1.0  0.67358  0.95355  0.35336  1.0000
  S   S370      1.0  0.70284  0.92906  0.34871  1.0000
  Fe  Fe187     1.0  0.90467  0.48778  0.30532  1.0000
  S   S371      1.0  0.65111  0.96061  0.32924  1.0000
  S   S372      1.0  0.73299  0.90131  0.25733  1.0000
  C   C2640     1.0  0.77349  0.75266  0.25313  1.0000
  S   S373      1.0  0.96700  0.65963  0.35032  1.0000
  C   C2641     1.0  0.87553  0.52679  0.24618  1.0000
  C   C2642     1.0  0.68434  0.88840  0.24769  1.0000
  C   C2643     1.0  0.80601  0.91535  0.26223  1.0000
  C   C2644     1.0  0.96684  0.67048  0.32344  1.0000
  H   H2111     1.0  0.76438  0.56357  0.27090  1.0000
  C   C2645     1.0  0.77865  0.48172  0.26913  1.0000
  C   C2646     1.0  0.96583  0.68988  0.28113  1.0000
  C   C2647     1.0  0.94693  0.68615  0.29432  1.0000
  C   C2648     1.0  0.94742  0.67683  0.31554  1.0000
  H   H2112     1.0  0.98795  0.52210  0.34808  1.0000
  H   H2113     1.0  0.93191  0.69084  0.28837  1.0000
  H   H2114     1.0  0.93274  0.67444  0.32585  1.0000
  H   H2115     1.0  0.54611  0.78895  0.23605  1.0000
  H   H2116     1.0  0.84012  0.91549  0.25668  1.0000
  C   C2649     1.0  0.63871  0.89936  0.30812  1.0000
  C   C2650     1.0  0.87268  0.57716  0.25851  1.0000
  C   C2651     1.0  0.98530  0.51836  0.27136  1.0000
  C   C2652     1.0  0.51035  0.74621  0.29338  1.0000
  C   C2653     1.0  0.71102  0.92096  0.32340  1.0000
  C   C2654     1.0  0.70235  0.93189  0.30556  1.0000
  C   C2655     1.0  0.70901  0.92523  0.28564  1.0000
  C   C2656     1.0  0.72471  0.90786  0.28317  1.0000
  C   C2657     1.0  0.73354  0.89688  0.30093  1.0000
  C   C2658     1.0  0.72669  0.90345  0.32100  1.0000
  H   H2117     1.0  0.69068  0.94562  0.30702  1.0000
  H   H2118     1.0  0.70197  0.93362  0.27202  1.0000
  H   H2119     1.0  0.74564  0.88346  0.29922  1.0000
  H   H2120     1.0  0.73354  0.89495  0.33472  1.0000
  C   C2659     1.0  0.93467  0.53465  0.36325  1.0000
  C   C2660     1.0  0.95383  0.52356  0.35480  1.0000
  C   C2661     1.0  0.97323  0.53108  0.35422  1.0000
  C   C2662     1.0  0.97382  0.54999  0.36163  1.0000
  C   C2663     1.0  0.95460  0.56139  0.36954  1.0000
  C   C2664     1.0  0.93524  0.55358  0.37062  1.0000
  H   H2121     1.0  0.95379  0.50896  0.34913  1.0000
  C   C2665     1.0  0.74188  0.97317  0.29661  1.0000
  H   H2122     1.0  0.95472  0.57591  0.37537  1.0000
  H   H2123     1.0  0.92060  0.56215  0.37739  1.0000
  C   C2666     1.0  0.87844  0.51312  0.26510  1.0000
  C   C2667     1.0  0.86067  0.50928  0.27998  1.0000
  H   H2124     1.0  0.86234  0.49798  0.29399  1.0000
  H   H2125     1.0  0.82702  0.51690  0.28869  1.0000
  C   C2668     1.0  0.57247  0.88297  0.36236  1.0000
  C   C2669     1.0  0.59201  0.88473  0.36846  1.0000
  C   C2670     1.0  0.59916  0.90438  0.36616  1.0000
  C   C2671     1.0  0.58661  0.92263  0.35811  1.0000
  C   C2672     1.0  0.56700  0.92086  0.35227  1.0000
  C   C2673     1.0  0.55999  0.90125  0.35429  1.0000
  H   H2126     1.0  0.60173  0.87080  0.37497  1.0000
  H   H2127     1.0  0.61424  0.90544  0.37085  1.0000
  H   H2128     1.0  0.55722  0.93483  0.34600  1.0000
  H   H2129     1.0  0.54478  0.90037  0.34983  1.0000
  C   C2674     1.0  0.55842  0.82685  0.26837  1.0000
  C   C2675     1.0  0.57613  0.82481  0.25246  1.0000
  C   C2676     1.0  0.98170  0.62409  0.28521  1.0000
  C   C2677     1.0  0.58321  0.78725  0.26448  1.0000
  C   C2678     1.0  0.56553  0.78948  0.28022  1.0000
  C   C2679     1.0  0.55286  0.80891  0.28167  1.0000
  C   C2680     1.0  0.60033  0.90309  0.26141  1.0000
  H   H2130     1.0  0.50576  0.53806  0.25832  1.0000
  H   H2131     1.0  0.56149  0.77611  0.29148  1.0000
  H   H2132     1.0  0.53868  0.80990  0.29319  1.0000
  P   P89       1.0  0.75363  0.48946  0.28478  1.0000
  C   C2681     1.0  0.63133  0.88048  0.31747  1.0000
  C   C2682     1.0  0.83752  0.53391  0.25827  1.0000
  H   H2133     1.0  0.49949  0.79259  0.24553  1.0000
  H   H2134     1.0  0.95279  0.75446  0.24177  1.0000
  H   H2135     1.0  0.88510  0.57554  0.24513  1.0000
  H   H2136     1.0  0.61874  0.63863  0.25706  1.0000
  C   C2683     1.0  0.65141  0.87821  0.34656  1.0000
  C   C2684     1.0  0.94896  0.81311  0.33377  1.0000
  H   H2137     1.0  0.49275  0.85869  0.45834  1.0000
  H   H2138     1.0  0.76888  0.48510  0.32587  1.0000
  C   C2685     1.0  0.96495  0.52725  0.24191  1.0000
  H   H2139     1.0  0.53104  0.84703  0.39931  1.0000
  H   H2140     1.0  0.63523  0.93003  0.23830  1.0000
  C   C2686     1.0  0.85507  0.53717  0.24274  1.0000
  Fe  Fe188     1.0  0.75522  0.87418  0.24437  1.0000
  C   C2687     1.0  0.65764  0.84211  0.23682  1.0000
  H   H2141     1.0  0.95962  0.65982  0.24745  1.0000
  C   C2688     1.0  0.80799  0.51299  0.33929  1.0000
  P   P90       1.0  0.50391  0.92138  0.40558  1.0000
  C   C2689     1.0  0.73501  0.49568  0.24782  1.0000
  C   C2690     1.0  0.96772  0.81931  0.33707  1.0000
  H   H2142     1.0  0.98859  0.69580  0.40408  1.0000
  C   C2691     1.0  0.72178  0.97065  0.24011  1.0000
  Fe  Fe189     1.0  0.61923  0.74952  0.23556  1.0000
  H   H2143     1.0  0.92681  0.56415  0.25262  1.0000
  C   C2692     1.0  0.96084  0.83631  0.25701  1.0000
  C   C2693     1.0  0.50404  0.92758  0.37712  1.0000
  C   C2694     1.0  0.76693  0.75814  0.27347  1.0000
  C   C2695     1.0  0.75109  0.51539  0.29167  1.0000
  C   C2696     1.0  0.76000  0.53118  0.27725  1.0000
  C   C2697     1.0  0.75712  0.55159  0.28202  1.0000
  C   C2698     1.0  0.74520  0.55645  0.30114  1.0000
  C   C2699     1.0  0.73598  0.54087  0.31547  1.0000
  C   C2700     1.0  0.73873  0.52043  0.31068  1.0000
  H   H2144     1.0  0.71619  0.76826  0.24637  1.0000
  C   C2701     1.0  0.66842  0.89227  0.26469  1.0000
  C   C2702     1.0  0.92537  0.84271  0.27636  1.0000
  H   H2145     1.0  0.53197  0.73763  0.31652  1.0000
  C   C2703     1.0  0.96016  0.49617  0.26744  1.0000
  H   H2146     1.0  0.91494  0.84646  0.29063  1.0000
  C   C2704     1.0  0.94738  0.84104  0.27547  1.0000
  H   H2147     1.0  0.74312  0.57230  0.30479  1.0000
  H   H2148     1.0  0.57676  0.89614  0.24444  1.0000
  Fe  Fe190     1.0  0.49118  0.86470  0.34242  1.0000
  H   H2149     1.0  0.83264  0.51234  0.35823  1.0000
  H   H2150     1.0  0.79676  0.50055  0.28189  1.0000
  H   H2151     1.0  0.52965  0.58850  0.27719  1.0000
  C   C2705     1.0  0.58857  0.90642  0.29846  1.0000
  H   H2152     1.0  0.95405  0.84348  0.28906  1.0000
  C   C2706     1.0  0.96331  0.61659  0.29631  1.0000
  C   C2707     1.0  0.94341  0.62483  0.29004  1.0000
  C   C2708     1.0  0.94226  0.64021  0.27208  1.0000
  P   P91       1.0  0.91995  0.61418  0.30370  1.0000
  C   C2709     1.0  0.92249  0.58827  0.29644  1.0000
  C   C2710     1.0  0.91723  0.61331  0.33214  1.0000
  C   C2711     1.0  0.90100  0.60344  0.34516  1.0000
  C   C2712     1.0  0.89854  0.60260  0.36721  1.0000
  C   C2713     1.0  0.91216  0.61174  0.37642  1.0000
  C   C2714     1.0  0.92799  0.62204  0.36355  1.0000
  C   C2715     1.0  0.93042  0.62303  0.34148  1.0000
  C   C2716     1.0  0.92350  0.58588  0.27506  1.0000
  C   C2717     1.0  0.92633  0.56591  0.26910  1.0000
  C   C2718     1.0  0.92805  0.54817  0.28448  1.0000
  C   C2719     1.0  0.92748  0.55037  0.30571  1.0000
  C   C2720     1.0  0.92508  0.57029  0.31165  1.0000
  C   C2721     1.0  0.89683  0.63160  0.29580  1.0000
  C   C2722     1.0  0.89263  0.65175  0.30169  1.0000
  C   C2723     1.0  0.87546  0.66600  0.29508  1.0000
  C   C2724     1.0  0.86249  0.66035  0.28231  1.0000
  C   C2725     1.0  0.86650  0.64033  0.27642  1.0000
  C   C2726     1.0  0.88343  0.62587  0.28335  1.0000
  C   C2727     1.0  0.54859  0.74128  0.28458  1.0000
  H   H2153     1.0  0.51050  0.55766  0.28653  1.0000
  C   C2728     1.0  0.91651  0.78054  0.27433  1.0000
  H   H2154     1.0  0.96457  0.60456  0.30997  1.0000
  H   H2155     1.0  0.92726  0.64646  0.26640  1.0000
  H   H2156     1.0  0.89055  0.59597  0.33827  1.0000
  H   H2157     1.0  0.88643  0.59436  0.37718  1.0000
  H   H2158     1.0  0.91059  0.61071  0.39353  1.0000
  H   H2159     1.0  0.93856  0.62918  0.37066  1.0000
  H   H2160     1.0  0.94261  0.63141  0.33194  1.0000
  H   H2161     1.0  0.92197  0.59949  0.26300  1.0000
  C   C2729     1.0  0.79110  0.73726  0.24933  1.0000
  H   H2162     1.0  0.92958  0.53269  0.28006  1.0000
  H   H2163     1.0  0.92891  0.53659  0.31763  1.0000
  H   H2164     1.0  0.92544  0.57138  0.32811  1.0000
  H   H2165     1.0  0.90295  0.65660  0.31103  1.0000
  H   H2166     1.0  0.87258  0.68168  0.29928  1.0000
  H   H2167     1.0  0.84955  0.67161  0.27670  1.0000
  H   H2168     1.0  0.85669  0.63615  0.26616  1.0000
  H   H2169     1.0  0.88600  0.61046  0.27872  1.0000
  C   C2730     1.0  0.52147  0.85789  0.40925  1.0000
  C   C2731     1.0  0.60832  0.97228  0.29879  1.0000
  C   C2732     1.0  0.98037  0.63967  0.26764  1.0000
  S   S374      1.0  0.59853  0.76211  0.26402  1.0000
  C   C2733     1.0  0.50642  0.89353  0.41452  1.0000
  C   C2734     1.0  0.51864  0.87933  0.40168  1.0000
  C   C2735     1.0  0.98735  0.80815  0.33005  1.0000
  H   H2170     1.0  0.94891  0.70792  0.36087  1.0000
  C   C2736     1.0  0.96657  0.59342  0.23891  1.0000
  C   C2737     1.0  0.60471  0.66431  0.23601  1.0000
  H   H2171     1.0  0.55601  0.90253  0.30998  1.0000
  C   C2738     1.0  0.79721  0.48917  0.27141  1.0000
  C   C2739     1.0  0.64519  0.75484  0.29003  1.0000
  C   C2740     1.0  0.66596  0.74428  0.28879  1.0000
  C   C2741     1.0  0.68309  0.75559  0.28454  1.0000
  C   C2742     1.0  0.67948  0.77749  0.28142  1.0000
  C   C2743     1.0  0.65864  0.78822  0.28272  1.0000
  C   C2744     1.0  0.64152  0.77671  0.28693  1.0000
  P   P92       1.0  0.65382  0.81631  0.27591  1.0000
  C   C2745     1.0  0.62879  0.82630  0.29034  1.0000
  C   C2746     1.0  0.67492  0.82812  0.28244  1.0000
  C   C2747     1.0  0.67230  0.83784  0.30074  1.0000
  C   C2748     1.0  0.68856  0.84758  0.30496  1.0000
  C   C2749     1.0  0.70755  0.84770  0.29099  1.0000
  C   C2750     1.0  0.71032  0.83787  0.27293  1.0000
  C   C2751     1.0  0.69413  0.82821  0.26861  1.0000
  C   C2752     1.0  0.61379  0.84051  0.27982  1.0000
  C   C2753     1.0  0.59491  0.84891  0.29127  1.0000
  C   C2754     1.0  0.59099  0.84360  0.31325  1.0000
  C   C2755     1.0  0.60551  0.82901  0.32381  1.0000
  C   C2756     1.0  0.62425  0.82011  0.31235  1.0000
  H   H2172     1.0  0.69660  0.82088  0.25437  1.0000
  P   P93       1.0  0.97079  0.76261  0.30218  1.0000
  C   C2757     1.0  0.79550  0.88097  0.27544  1.0000
  H   H2173     1.0  0.93998  0.49083  0.42533  1.0000
  H   H2174     1.0  0.93789  0.48807  0.38795  1.0000
  C   C2758     1.0  0.54651  0.91901  0.41018  1.0000
  H   H2175     1.0  0.63187  0.74614  0.29267  1.0000
  H   H2176     1.0  0.54834  0.89639  0.27530  1.0000
  H   H2177     1.0  0.69920  0.74742  0.28311  1.0000
  H   H2178     1.0  0.69300  0.78589  0.27746  1.0000
  H   H2179     1.0  0.62529  0.78456  0.28704  1.0000
  H   H2180     1.0  0.65777  0.83817  0.31172  1.0000
  H   H2181     1.0  0.68636  0.85531  0.31892  1.0000
  H   H2182     1.0  0.78519  0.61358  0.33192  1.0000
  C   C2759     1.0  0.53599  0.58614  0.24375  1.0000
  H   H2183     1.0  0.80624  0.49669  0.34455  1.0000
  H   H2184     1.0  0.61637  0.84499  0.26278  1.0000
  H   H2185     1.0  0.58310  0.85928  0.28304  1.0000
  H   H2186     1.0  0.57653  0.85063  0.32202  1.0000
  H   H2187     1.0  0.60207  0.82458  0.34085  1.0000
  H   H2188     1.0  0.63536  0.80871  0.32067  1.0000
  H   H2189     1.0  0.81608  0.71609  0.26381  1.0000
  C   C2760     1.0  0.98523  0.68359  0.28906  1.0000
  H   H2190     1.0  0.77346  0.90884  0.27017  1.0000
  H   H2191     1.0  0.75017  0.49947  0.23950  1.0000
  H   H2192     1.0  0.56090  0.74648  0.25147  1.0000
  C   C2761     1.0  0.94017  0.74314  0.29027  1.0000
  C   C2762     1.0  0.77789  0.74831  0.29022  1.0000
  C   C2763     1.0  0.79606  0.52488  0.32414  1.0000
  H   H2193     1.0  0.97781  0.83508  0.25668  1.0000
  C   C2764     1.0  0.95521  0.50934  0.24900  1.0000
  H   H2194     1.0  0.81820  0.59583  0.38703  1.0000
  C   C2765     1.0  0.50830  0.75159  0.27184  1.0000
  H   H2195     1.0  0.96703  0.83249  0.34544  1.0000
  C   C2766     1.0  0.75271  0.95362  0.30378  1.0000
  C   C2767     1.0  0.77022  0.94446  0.29087  1.0000
  C   C2768     1.0  0.77645  0.95443  0.27024  1.0000
  H   H2196     1.0  0.72495  0.83787  0.26205  1.0000
  P   P94       1.0  0.79890  0.94302  0.25294  1.0000
  C   C2769     1.0  0.82115  0.95709  0.25174  1.0000
  H   H2197     1.0  0.67053  0.88396  0.28031  1.0000
  H   H2198     1.0  0.66138  0.85363  0.24530  1.0000
  C   C2770     1.0  0.85200  0.76568  0.25010  1.0000
  Fe  Fe191     1.0  0.88924  0.72302  0.23843  1.0000
  H   H2199     1.0  0.85499  0.60476  0.24302  1.0000
  C   C2771     1.0  0.56260  0.94809  0.41587  1.0000
  C   C2772     1.0  0.92141  0.74279  0.28223  1.0000
  H   H2200     1.0  0.76920  0.52779  0.26229  1.0000
  H   H2201     1.0  0.72657  0.54468  0.33022  1.0000
  H   H2202     1.0  0.52126  0.95410  0.37329  1.0000
  C   C2773     1.0  0.82529  0.79651  0.25346  1.0000
  C   C2774     1.0  0.69884  0.49096  0.24659  1.0000
  C   C2775     1.0  0.62790  0.94106  0.28513  1.0000
  H   H2203     1.0  0.84922  0.87755  0.26645  1.0000
  C   C2776     1.0  0.52648  0.75232  0.25655  1.0000
  H   H2204     1.0  0.74736  0.94547  0.31934  1.0000
  H   H2205     1.0  0.77861  0.92959  0.29711  1.0000
  C   C2777     1.0  0.58844  0.80501  0.25042  1.0000
  C   C2778     1.0  0.61863  0.64595  0.24073  1.0000
  C   C2779     1.0  0.64374  0.95294  0.27436  1.0000
  C   C2780     1.0  0.73217  0.48986  0.26993  1.0000
  H   H2206     1.0  0.91618  0.72800  0.28183  1.0000
  C   C2781     1.0  0.81678  0.87201  0.27428  1.0000
  C   C2782     1.0  0.64871  0.91810  0.24101  1.0000
  C   C2783     1.0  0.93539  0.78093  0.28223  1.0000
  C   C2784     1.0  0.80210  0.72753  0.26625  1.0000
  H   H2207     1.0  0.65945  0.92132  0.31061  1.0000
  C   C2785     1.0  0.65042  0.90714  0.26149  1.0000
  C   C2786     1.0  0.82281  0.52189  0.34708  1.0000
  H   H2208     1.0  0.54862  0.90324  0.40640  1.0000
  C   C2787     1.0  0.90944  0.76148  0.27452  1.0000
  C   C2788     1.0  0.79886  0.54568  0.31681  1.0000
  C   C2789     1.0  0.81329  0.55497  0.32492  1.0000
  C   C2790     1.0  0.82553  0.54277  0.33990  1.0000
  P   P95       1.0  0.81800  0.58138  0.31414  1.0000
  C   C2791     1.0  0.83947  0.57991  0.29241  1.0000
  C   C2792     1.0  0.85575  0.59348  0.25725  1.0000
  C   C2793     1.0  0.83942  0.59511  0.27427  1.0000
  C   C2794     1.0  0.79426  0.59663  0.30491  1.0000
  C   C2795     1.0  0.78883  0.59434  0.28529  1.0000
  C   C2796     1.0  0.77139  0.60705  0.27737  1.0000
  C   C2797     1.0  0.75904  0.62200  0.28902  1.0000
  C   C2798     1.0  0.76397  0.62409  0.30879  1.0000
  C   C2799     1.0  0.78150  0.61145  0.31674  1.0000
  H   H2209     1.0  0.77293  0.75277  0.30591  1.0000
  H   H2210     1.0  0.78310  0.87123  0.28078  1.0000
  H   H2211     1.0  0.89480  0.76109  0.26849  1.0000
  H   H2212     1.0  0.79025  0.55417  0.30433  1.0000
  H   H2213     1.0  0.83763  0.54912  0.34559  1.0000
  H   H2214     1.0  0.97895  0.49048  0.29298  1.0000
  H   H2215     1.0  0.82671  0.60813  0.27299  1.0000
  H   H2216     1.0  0.79843  0.58310  0.27579  1.0000
  H   H2217     1.0  0.76770  0.60569  0.26192  1.0000
  C   C2800     1.0  0.96211  0.71475  0.35114  1.0000
  H   H2218     1.0  0.75439  0.63578  0.31775  1.0000
  C   C2801     1.0  0.91679  0.83957  0.25883  1.0000
  C   C2802     1.0  0.84046  0.51988  0.27678  1.0000
  H   H2219     1.0  0.65801  0.94570  0.26548  1.0000
  C   C2803     1.0  0.51695  0.56246  0.27015  1.0000
  H   H2220     1.0  0.95205  0.48264  0.27321  1.0000
  H   H2221     1.0  0.98994  0.72788  0.27954  1.0000
  C   C2804     1.0  0.54664  0.74675  0.26304  1.0000
  H   H2222     1.0  0.94932  0.72846  0.29592  1.0000
  H   H2223     1.0  0.59165  0.90853  0.31390  1.0000
  C   C2805     1.0  0.94697  0.76224  0.29095  1.0000
  H   H2224     1.0  0.64405  0.79294  0.24415  1.0000
  C   C2806     1.0  0.97521  0.50067  0.27861  1.0000
  C   C2807     1.0  0.86633  0.77847  0.23806  1.0000
  H   H2225     1.0  0.61245  0.90255  0.24774  1.0000
  C   C2808     1.0  0.82068  0.97098  0.26629  1.0000
  H   H2226     1.0  0.80680  0.57849  0.36055  1.0000
  S   S375      1.0  0.76890  0.84153  0.25769  1.0000
  H   H2227     1.0  0.65597  0.87034  0.36163  1.0000
  H   H2228     1.0  0.72006  0.85550  0.29402  1.0000
  H   H2229     1.0  0.50344  0.94187  0.31610  1.0000
  C   C2809     1.0  0.65934  0.89664  0.33700  1.0000
  C   C2810     1.0  0.49737  0.88593  0.43515  1.0000
  C   C2811     1.0  0.82598  0.59408  0.33372  1.0000
  C   C2812     1.0  0.81793  0.58962  0.35531  1.0000
  H   H2230     1.0  0.90735  0.79495  0.26792  1.0000
  H   H2231     1.0  0.75350  0.77029  0.27605  1.0000
  H   H2232     1.0  0.62066  0.87385  0.31006  1.0000
  C   C2813     1.0  0.97546  0.74025  0.32233  1.0000
  C   C2814     1.0  0.52639  0.93133  0.41168  1.0000
  C   C2815     1.0  0.65307  0.82256  0.24766  1.0000
  C   C2816     1.0  0.61042  0.95089  0.29773  1.0000
  C   C2817     1.0  0.85673  0.56380  0.29374  1.0000
  H   H2233     1.0  0.93510  0.79096  0.32151  1.0000
  C   C2818     1.0  0.96952  0.78519  0.31529  1.0000
  C   C2819     1.0  0.52235  0.92689  0.47194  1.0000
  H   H2234     1.0  0.98212  0.56647  0.31868  1.0000
  C   C2820     1.0  0.87330  0.56256  0.27691  1.0000
  C   C2821     1.0  0.96068  0.64763  0.26101  1.0000
  S   S376      1.0  0.83234  0.83664  0.23697  1.0000
  S   S377      1.0  0.96576  0.70330  0.25504  1.0000
  C   C2822     1.0  0.52467  0.95223  0.41508  1.0000
  S   S378      1.0  0.81153  0.54654  0.25531  1.0000
  H   H2235     1.0  0.84331  0.62178  0.37553  1.0000
  H   H2236     1.0  0.51419  0.83380  0.43525  1.0000
  H   H2237     1.0  0.94331  0.50587  0.24054  1.0000
  S   S379      1.0  0.85928  0.73839  0.25638  1.0000
  H   H2238     1.0  0.58006  0.91805  0.41024  1.0000
  H   H2239     1.0  0.89971  0.84082  0.25949  1.0000
  C   C2823     1.0  0.83273  0.88462  0.26750  1.0000
  H   H2240     1.0  0.53703  0.92543  0.46094  1.0000
  C   C2824     1.0  0.56395  0.89960  0.27680  1.0000
  H   H2241     1.0  0.97058  0.55940  0.28635  1.0000
  H   H2242     1.0  0.85698  0.63039  0.33729  1.0000
  H   H2243     1.0  0.59857  0.94216  0.30726  1.0000
  C   C2825     1.0  0.83995  0.60897  0.32734  1.0000
  H   H2244     1.0  0.84604  0.61295  0.31076  1.0000
  C   C2826     1.0  0.83154  0.77482  0.25785  1.0000
  H   H2245     1.0  0.52089  0.96282  0.33494  1.0000
  H   H2246     1.0  0.82038  0.76510  0.26713  1.0000
  C   C2827     1.0  0.63750  0.87008  0.33673  1.0000
  C   C2828     1.0  0.56830  0.90291  0.29635  1.0000
  C   C2829     1.0  0.50355  0.93800  0.33309  1.0000
  C   C2830     1.0  0.56448  0.92737  0.41231  1.0000
  H   H2247     1.0  0.66874  0.72733  0.29064  1.0000
  H   H2248     1.0  0.80936  0.80332  0.25930  1.0000
  C   C2831     1.0  0.98638  0.56334  0.28547  1.0000
  C   C2832     1.0  0.79012  0.90244  0.26927  1.0000
  S   S380      1.0  0.49355  0.84395  0.31758  1.0000
  H   H2249     1.0  0.85740  0.55190  0.30752  1.0000
  H   H2250     1.0  0.76495  0.76075  0.24032  1.0000
  C   C2833     1.0  0.82426  0.59951  0.37034  1.0000
  C   C2834     1.0  0.51211  0.85044  0.42960  1.0000
  C   C2835     1.0  0.51347  0.94470  0.36560  1.0000
  H   H2251     1.0  0.60212  0.80356  0.23829  1.0000
  H   H2252     1.0  0.56426  0.73741  0.28942  1.0000
  H   H2253     1.0  0.49255  0.75489  0.26717  1.0000
  C   C2836     1.0  0.76587  0.97435  0.26345  1.0000
  H   H2254     1.0  0.93372  0.82138  0.33977  1.0000
  H   H2255     1.0  0.58055  0.83857  0.24196  1.0000
  P   P96       1.0  0.63037  0.91335  0.28359  1.0000
  H   H2256     1.0  0.80721  0.97337  0.27852  1.0000
  H   H2257     1.0  0.88619  0.54967  0.27787  1.0000
  C   C2837     1.0  0.65309  0.90712  0.31782  1.0000
  H   H2258     1.0  0.52620  0.88478  0.38592  1.0000
  H   H2259     1.0  0.68032  0.48218  0.27680  1.0000
  H   H2260     1.0  0.69849  0.87738  0.25034  1.0000
  C   C2838     1.0  0.79546  0.73300  0.28662  1.0000
  H   H2261     1.0  0.80427  0.72567  0.29947  1.0000
  C   C2839     1.0  0.83840  0.61413  0.36388  1.0000
  C   C2840     1.0  0.84613  0.61895  0.34236  1.0000
  C   C2841     1.0  0.52777  0.57982  0.26489  1.0000
  C   C2842     1.0  0.53046  0.74135  0.29979  1.0000
  H   H2262     1.0  0.78523  0.51778  0.31745  1.0000
  H   H2263     1.0  0.94215  0.73935  0.33443  1.0000
  H   H2264     1.0  0.76451  0.92665  0.23961  1.0000
  C   C2843     1.0  0.95837  0.73233  0.33591  1.0000
  H   H2265     1.0  0.57672  0.95471  0.41671  1.0000
  C   C2844     1.0  0.58002  0.89947  0.25939  1.0000
  H   H2266     1.0  0.96915  0.59537  0.25457  1.0000
  H   H2267     1.0  0.67018  0.90297  0.34456  1.0000
  S   S381      1.0  0.90635  0.69291  0.25363  1.0000
  H   H2268     1.0  0.69542  0.97224  0.26545  1.0000
  C   C2845     1.0  0.71214  0.48564  0.28040  1.0000
  C   C2846     1.0  0.94983  0.79598  0.32315  1.0000
  H   H2269     1.0  0.63119  0.85588  0.34419  1.0000
  C   C2847     1.0  0.51429  0.55142  0.25426  1.0000
  H   H2270     1.0  0.94091  0.79576  0.28152  1.0000
  C   C2848     1.0  0.98579  0.67361  0.31005  1.0000
  H   H2271     1.0  0.74585  0.63217  0.28248  1.0000
  H   H2272     1.0  0.59391  0.67114  0.24859  1.0000
  C   C2849     1.0  0.51329  0.94981  0.34370  1.0000
  H   H2273     1.0  0.83119  0.48678  0.26249  1.0000
  C   C2850     1.0  0.54269  0.96049  0.41736  1.0000
  H   H2274     1.0  0.49682  0.80899  0.29944  1.0000
  H   H2275     1.0  0.70939  0.48185  0.29753  1.0000
  C   C2851     1.0  0.69560  0.48596  0.26872  1.0000
  H   H2276     1.0  0.54403  0.59980  0.24008  1.0000
  C   C2852     1.0  0.98825  0.79098  0.31947  1.0000
  C   C2853     1.0  0.95236  0.83325  0.23926  1.0000
  H   H2277     1.0  0.52064  0.96015  0.47078  1.0000
  C   C2854     1.0  0.85522  0.97954  0.24937  1.0000
  H   H2278     1.0  0.54143  0.97675  0.41943  1.0000
  H   H2279     1.0  0.72474  0.95367  0.24236  1.0000
  Fe  Fe192     1.0  0.93617  0.70620  0.23954  1.0000
  C   C2855     1.0  0.64149  0.97440  0.27535  1.0000
  C   C2856     1.0  0.81677  0.48144  0.26047  1.0000
  C   C2857     1.0  0.93021  0.83478  0.24039  1.0000
  C   C2858     1.0  0.51307  0.94646  0.47745  1.0000
  H   H2280     1.0  0.88914  0.52980  0.23448  1.0000
  S   S382      1.0  0.74043  0.80194  0.23946  1.0000
  C   C2859     1.0  0.83974  0.80934  0.24191  1.0000
  H   H2281     1.0  0.50965  0.96247  0.41496  1.0000
  H   H2282     1.0  0.49257  0.79804  0.39659  1.0000
  C   C2860     1.0  0.49397  0.92112  0.34439  1.0000
  C   C2861     1.0  0.71847  0.49606  0.23619  1.0000
  C   C2862     1.0  0.98003  0.53202  0.25309  1.0000
  H   H2283     1.0  0.49839  0.76493  0.42119  1.0000
  H   H2284     1.0  0.52002  0.89400  0.47647  1.0000
  S   S383      1.0  0.49616  0.78813  0.34314  1.0000
  H   H2285     1.0  0.49635  0.74570  0.30512  1.0000
  C   C2863     1.0  0.51274  0.90920  0.48066  1.0000
  C   C2864     1.0  0.49435  0.91577  0.36627  1.0000
  C   C2865     1.0  0.98289  0.70536  0.35332  1.0000
  H   H2286     1.0  0.94451  0.79295  0.23639  1.0000
  H   H2287     1.0  0.59505  0.97955  0.30900  1.0000
  H   H2288     1.0  0.98567  0.69130  0.36463  1.0000
  H   H2289     1.0  0.68623  0.49080  0.23746  1.0000
  S   S384      1.0  0.65449  0.73950  0.23428  1.0000
  C   C2866     1.0  0.85601  0.96553  0.23507  1.0000
  C   C2867     1.0  0.83917  0.95423  0.23638  1.0000
  H   H2290     1.0  0.75763  0.71769  0.23496  1.0000
  H   H2291     1.0  0.94546  0.62270  0.23495  1.0000
  C   C2868     1.0  0.86032  0.80030  0.23432  1.0000
  C   C2869     1.0  0.97261  0.51171  0.69615  1.0000
  C   C2870     1.0  0.97043  0.53310  0.68844  1.0000
  H   H2292     1.0  0.54947  0.96892  0.56775  1.0000
  H   H2293     1.0  0.51075  0.97005  0.58020  1.0000
  H   H2294     1.0  0.95632  0.54338  0.69397  1.0000
  C   C2871     1.0  0.98646  0.54124  0.67363  1.0000
  H   H2295     1.0  0.98479  0.55783  0.66769  1.0000
  C   C2872     1.0  0.99080  0.49844  0.68904  1.0000
  H   H2296     1.0  0.96020  0.50540  0.70766  1.0000
  H   H2297     1.0  0.49651  0.88210  0.57146  1.0000
  C   C2873     1.0  0.49389  0.91105  0.49495  1.0000
  H   H2298     1.0  0.49547  0.90793  0.53893  1.0000
  C   C2874     1.0  0.49410  0.94841  0.49157  1.0000
  H   H2299     1.0  0.50796  0.61399  0.94032  1.0000
  H   H2300     1.0  0.54139  0.55460  0.96242  1.0000
  H   H2301     1.0  0.50319  0.57725  0.95344  1.0000
  C   C2875     1.0  0.56296  0.52640  0.96870  1.0000
  C   C2876     1.0  0.50697  0.58671  0.96415  1.0000
  H   H2302     1.0  0.51603  0.63638  0.96456  1.0000
  C   C2877     1.0  0.51439  0.62011  0.97021  1.0000
  C   C2878     1.0  0.50978  0.60751  0.95661  1.0000
  H   H2303     1.0  0.57463  0.53064  0.95519  1.0000
  C   C2879     1.0  0.54406  0.53998  0.97289  1.0000
  H   H2304     1.0  0.58124  0.49664  0.97832  1.0000
  C   C2880     1.0  0.56673  0.50725  0.98176  1.0000
