data_image0
_chemical_formula_structural       H2CHS2C3PHC2H2FeCHCHC5H2CH2CH3C2HCHC2FeHCH2CHC6HCHCH2CH3C2H3CH2CHC2H3C3HCHCH2CFeS2FeCSFeH2S2H2C2HC3HCH3CSCHC2HCHCHCH2C4FeCHCHC2HC2SCHC2HCH2CHSPH2C5HSC3HCH3CHC2HCH3FeS2CSCFeSHS2FeS2FeS2FeSFeS3C7H4C4H2FeC4HCH2CHC6H4CHC3H2C3H2C4HPHC7HCH2CH3C9H4CH2CHC2HC2HC4HC6PC18H12CH7SH2CHC3H2CH3PCH2PHC2HC2HC3HC4HC3SHC2H2CH2CHC5PH2C3HCH5CHCFeC3H3C2HC4HPH2CSH2CHC2HPC2H3CSHCSC3H3C3H2CH2CH2C2H2C3H3C2HFeHSC3S2HFeSHFeS2FeCFeS4C6H5CHC3H6CHCPC3HC5HCFeC5H5CS2C3PC18SH5PH10C3HC2H7C2HC2H5C2H5CHC6HCH3CHC4PC21H17C6S2H2CH2C3HC5HSHCHC5HCH3CHCH2C3HC2HCPCHCHC3H2CH2CHCHSCH3SHFeHC3FeCH3C4HC3H4C2HCH2CSHFeS2FeSCSPFeCHFeSCSFeS2FeS2FeSCS2FeSCFeS2FeSFeS3C3H2C4H2C5H3C6H4C5H3CH2C7H4C7H3C7H5C4H4CHFeHCHCHCHCHCH2CH3C4HC3H2C2HC3H2C5FeC3HC3HCH5SC2H2FeCHC3PC18H2CH3CH7C6PC4HC4HC8H8CH3CSH7C2HCHCH2CH3CHC2H2C4HC2HC2HCSH4C2H2CHSH2CHC2SPHCHCHC2HC3H2CHCFeCHCH2CPH2C2H9C2HC2HCHC2H2CHCFeH6C3H3CHSFe2S2FeS2FeSFeCS4CSFeS2FeS2FeSFeS3FeS2FeSHCFeSCSPC6H4CH2C2HC11H4C7H4C5H3CH2C3HSHC2HC7PC2SHCHC12H7CH14C2HCH2C3PC3HC3H3C6H2C2H2C2H2C2HCH3C3HC2H2CHC4HC3H3CHC2H2C2H2C3H2CH3C2HC2PHC2HCH5CSH2C3HC3HC2HCH2FeHCHC5H2C2H2CHCH2C7PC18H17C2HCSHSHCH3CHC2SC2HCH3CH3SC2HFeC2HSHCH3CHCS2HSCFeSCSFeCHSHFeHFeSPSFeS2FeSCFeSFeS3H2C3H4C7H5C4HCH2C7H5CH3CH5CHFeHC6HCHC3HCHCH2CPHCHCHC2HCH2SC2SHC3H2C4HCHC3H2CH4C4H2CH3C6PC15H7CH8C2HC2HC2H2C2H2C6HC3H3CHCHCH2CH4CH2C4PCH5CHC2H2CHC3H2CH2C2H3CHFeC2H2C3HFeCHC3HCHCFeC2SCSH5PC8H2FeSHC2SCFeH2CFeS2FeS2FeSFeS3FeS2FeSCFeSFeS3FeS2HC2FeSCSHC6H4C6H4CH2C3HCH2C6H2C2HCH2PC3HCPSCHCHC6H5CHCHC2HC3HC7FeH7CHCH2CHC3HC3H7C3H2CH4C4H2CH3C10H2C2HC4H2CHC3H4CPC2H2C5H2C2SCH4C2PCHCFeH4C4H2CHCH2C2HCH2C2H2CHCH2CSCPH2C3H2C4SH2C3HCHCH3CHCHC2HC4H3C2HSH2CH3CHPHCHCH2CHC3SHSH2C6H2C4SC3SC5HCHC2HC2HC2H2FeS2FeS2FeSFeS3C6H3FeHC4H3C6HCH2C2HC4HC8PC18H16PH3C2H6C3PC8HCHPC3SCH2C2H3CH3CHC3H2P2H2C3HC2HC2H2C2H2SHC7H3CHPCHSH3CH3C7HC2HCH3CH3C2HC2HC2HC3HC3HCHCH4SCHC4HC3H2C4H3C2HC5HCHCHCHC3HC2H2CH3CFeS2FeS2FeSFeS4FeS2FeS2FeSFeS3C6H4CH2C3H2CHC3H2C6H4C6H3C4H4C2HC6PC3H2C11H6CH9CH2CHC3H2C2HCH2C4H3C2H3C3HCH2CPHCH2CHCHC4HC2PCH3SCHC11H3CH3C3H10C2H4C2H2CHCH2C2H3C3H2CHC6PC2H2C2HC11HCH2C3H5C3H2CHCH2CHC2H2C3H3CSCFeCHC5H2CH3CFeH2PCH2CH2C3HC2SHC3HCFeC2S2CHC2H4CHC4H2CHCH3CHCHCHFeSC2HC4HCH4SCHC3SHCH2C2HFeC2H2PH2C2H3C3
_chemical_formula_sum              "H1152 C1440 S192 P48 Fe96"
_cell_length_a       59.1457
_cell_length_b       59.0088
_cell_length_c       41.522
_cell_angle_alpha    91.4747
_cell_angle_beta     91.2528
_cell_angle_gamma    118.848

_space_group_name_H-M_alt    "P 1"
_space_group_IT_number       1

loop_
  _space_group_symop_operation_xyz
  'x, y, z'

loop_
  _atom_site_type_symbol
  _atom_site_label
  _atom_site_symmetry_multiplicity
  _atom_site_fract_x
  _atom_site_fract_y
  _atom_site_fract_z
  _atom_site_occupancy
  H   H1        1.0  0.21722  0.33575  0.48172  1.0000
  H   H2        1.0  0.06489  0.45878  0.44541  1.0000
  C   C1        1.0  0.23698  0.43671  0.37674  1.0000
  H   H3        1.0  0.31334  0.44977  0.37571  1.0000
  S   S1        1.0  0.29721  0.48876  0.36427  1.0000
  S   S2        1.0  0.29556  0.45240  0.44525  1.0000
  C   C2        1.0  0.19726  0.35062  0.45177  1.0000
  C   C3        1.0  0.19791  0.47811  0.49385  1.0000
  C   C4        1.0  0.21587  0.47720  0.07386  1.0000
  P   P1        1.0  0.21838  0.38416  0.46342  1.0000
  H   H4        1.0  0.28525  0.50056  0.30168  1.0000
  C   C5        1.0  0.23125  0.43051  0.43400  1.0000
  C   C6        1.0  0.31541  0.41460  0.36798  1.0000
  H   H5        1.0  0.08911  0.49616  0.05889  1.0000
  H   H6        1.0  0.11667  0.48500  0.46896  1.0000
  Fe  Fe1       1.0  0.28907  0.47653  0.48363  1.0000
  C   C7        1.0  0.18875  0.49762  0.07079  1.0000
  H   H7        1.0  0.26384  0.46154  0.01327  1.0000
  C   C8        1.0  0.26224  0.37840  0.45885  1.0000
  H   H8        1.0  0.14226  0.46835  0.44133  1.0000
  C   C9        1.0  0.18514  0.40182  0.48587  1.0000
  C   C10       1.0  0.17023  0.47761  0.08867  1.0000
  C   C11       1.0  0.11017  0.50217  0.42654  1.0000
  C   C12       1.0  0.22898  0.49372  0.22425  1.0000
  C   C13       1.0  0.23742  0.44662  0.40781  1.0000
  H   H9        1.0  0.23103  0.40337  0.34786  1.0000
  H   H10       1.0  0.15016  0.27822  0.42836  1.0000
  C   C14       1.0  0.23063  0.41077  0.37187  1.0000
  H   H11       1.0  0.21626  0.49187  0.14424  1.0000
  H   H12       1.0  0.29677  0.37496  0.45409  1.0000
  C   C15       1.0  0.24510  0.45984  0.00759  1.0000
  H   H13       1.0  0.22647  0.47821  0.20753  1.0000
  H   H14       1.0  0.25279  0.36625  0.43749  1.0000
  H   H15       1.0  0.03154  0.42716  0.47969  1.0000
  C   C16       1.0  0.32580  0.44146  0.37089  1.0000
  C   C17       1.0  0.15883  0.31776  0.42249  1.0000
  H   H16       1.0  0.32337  0.38309  0.35856  1.0000
  C   C18       1.0  0.03933  0.44775  0.48476  1.0000
  H   H17       1.0  0.06159  0.49338  0.38876  1.0000
  C   C19       1.0  0.06952  0.49242  0.47339  1.0000
  C   C20       1.0  0.17567  0.34379  0.43104  1.0000
  Fe  Fe2       1.0  0.31055  0.48844  0.41594  1.0000
  H   H18       1.0  0.12741  0.50030  0.03198  1.0000
  C   C21       1.0  0.13977  0.48340  0.39524  1.0000
  H   H19       1.0  0.24234  0.44938  0.35657  1.0000
  H   H20       1.0  0.24335  0.46698  0.41171  1.0000
  C   C22       1.0  0.20126  0.33103  0.46474  1.0000
  H   H21       1.0  0.20100  0.44221  0.10011  1.0000
  C   C23       1.0  0.16326  0.29839  0.43492  1.0000
  C   C24       1.0  0.22413  0.40425  0.42922  1.0000
  C   C25       1.0  0.22091  0.47640  0.49327  1.0000
  C   C26       1.0  0.19737  0.45739  0.09156  1.0000
  C   C27       1.0  0.18440  0.30502  0.45612  1.0000
  C   C28       1.0  0.20123  0.39128  0.49408  1.0000
  H   H22       1.0  0.18134  0.41530  0.00835  1.0000
  C   C29       1.0  0.33140  0.40392  0.36095  1.0000
  H   H23       1.0  0.22033  0.37478  0.39394  1.0000
  C   C30       1.0  0.05856  0.46576  0.46578  1.0000
  H   H24       1.0  0.16035  0.44246  0.11310  1.0000
  H   H25       1.0  0.23264  0.43868  0.45808  1.0000
  C   C31       1.0  0.17454  0.45758  0.09894  1.0000
  H   H26       1.0  0.18765  0.28998  0.46607  1.0000
  H   H27       1.0  0.18341  0.40671  0.46135  1.0000
  H   H28       1.0  0.14224  0.31259  0.40640  1.0000
  C   C32       1.0  0.22445  0.39461  0.39804  1.0000
  C   C33       1.0  0.06040  0.50077  0.49951  1.0000
  H   H29       1.0  0.29496  0.40213  0.37101  1.0000
  H   H30       1.0  0.17178  0.35858  0.42164  1.0000
  H   H31       1.0  0.15244  0.47736  0.09486  1.0000
  C   C34       1.0  0.21144  0.49703  0.06302  1.0000
  H   H32       1.0  0.23373  0.47723  0.06880  1.0000
  H   H33       1.0  0.23174  0.48053  0.47155  1.0000
  C   C35       1.0  0.11997  0.48826  0.44346  1.0000
  H   H34       1.0  0.22463  0.42030  0.02190  1.0000
  C   C36       1.0  0.28717  0.38336  0.46803  1.0000
  C   C37       1.0  0.24982  0.38935  0.47689  1.0000
  H   H35       1.0  0.19123  0.48352  0.47243  1.0000
  H   H36       1.0  0.15169  0.47407  0.01703  1.0000
  H   H37       1.0  0.18838  0.48181  0.22488  1.0000
  C   C38       1.0  0.22291  0.43635  0.01237  1.0000
  C   C39       1.0  0.13463  0.47886  0.42783  1.0000
  C   C40       1.0  0.20756  0.49578  0.23401  1.0000
  H   H38       1.0  0.15122  0.47615  0.38322  1.0000
  C   C41       1.0  0.19855  0.43352  0.00471  1.0000
  H   H39       1.0  0.17903  0.49639  0.16268  1.0000
  C   C42       1.0  0.13048  0.49763  0.37836  1.0000
  H   H40       1.0  0.13481  0.50144  0.35321  1.0000
  H   H41       1.0  0.31957  0.40389  0.50166  1.0000
  C   C43       1.0  0.30005  0.39965  0.49491  1.0000
  Fe  Fe3       1.0  0.06977  0.43762  0.58382  1.0000
  S   S3        1.0  0.07628  0.46655  0.62381  1.0000
  S   S4        1.0  0.02923  0.40717  0.56538  1.0000
  Fe  Fe4       1.0  0.12683  0.46983  0.56154  1.0000
  C   C44       1.0  0.05477  0.42315  0.68320  1.0000
  S   S5        1.0  0.15379  0.47385  0.52044  1.0000
  Fe  Fe5       1.0  0.11501  0.46879  0.63204  1.0000
  H   H42       1.0  0.27719  0.46402  0.62672  1.0000
  H   H43       1.0  0.01366  0.47465  0.59934  1.0000
  S   S6        1.0  0.10714  0.43683  0.59489  1.0000
  S   S7        1.0  0.08899  0.46781  0.54715  1.0000
  H   H44       1.0  0.18885  0.38343  0.57409  1.0000
  H   H45       1.0  0.22557  0.44454  0.66539  1.0000
  C   C45       1.0  0.03060  0.45623  0.51101  1.0000
  C   C46       1.0  0.03430  0.49663  0.82441  1.0000
  H   H46       1.0  0.01627  0.44225  0.52629  1.0000
  C   C47       1.0  0.18339  0.47274  0.52180  1.0000
  C   C48       1.0  0.19235  0.46588  0.54937  1.0000
  C   C49       1.0  0.21518  0.46381  0.54865  1.0000
  H   H47       1.0  0.19754  0.45243  0.62713  1.0000
  C   C50       1.0  0.03748  0.43273  0.68747  1.0000
  H   H48       1.0  0.05593  0.41524  0.65982  1.0000
  H   H49       1.0  0.18136  0.46158  0.57097  1.0000
  H   H50       1.0  0.22157  0.45787  0.56983  1.0000
  C   C51       1.0  0.04105  0.48270  0.51824  1.0000
  S   S8        1.0  0.32897  0.49094  0.50581  1.0000
  C   C52       1.0  0.17096  0.40615  0.50943  1.0000
  H   H51       1.0  0.25283  0.47801  0.70669  1.0000
  C   C53       1.0  0.07077  0.43596  0.73837  1.0000
  C   C54       1.0  0.05319  0.44513  0.74297  1.0000
  H   H52       1.0  0.06519  0.48916  0.69046  1.0000
  C   C55       1.0  0.19639  0.45417  0.99219  1.0000
  H   H53       1.0  0.14331  0.46376  0.95841  1.0000
  C   C56       1.0  0.20204  0.38417  0.52593  1.0000
  H   H54       1.0  0.29841  0.42435  0.53278  1.0000
  C   C57       1.0  0.22595  0.46308  0.66619  1.0000
  H   H55       1.0  0.31826  0.46861  0.65018  1.0000
  H   H56       1.0  0.01479  0.38724  0.63001  1.0000
  C   C58       1.0  0.31675  0.48571  0.64475  1.0000
  C   C59       1.0  0.05189  0.49555  0.68200  1.0000
  C   C60       1.0  0.20976  0.49096  0.64642  1.0000
  C   C61       1.0  0.24165  0.48229  0.68934  1.0000
  Fe  Fe6       1.0  0.09652  0.49647  0.58762  1.0000
  C   C62       1.0  0.22950  0.46886  0.52055  1.0000
  H   H57       1.0  0.25521  0.46834  0.93820  1.0000
  C   C63       1.0  0.04343  0.49928  0.76763  1.0000
  H   H58       1.0  0.20999  0.50110  0.81834  1.0000
  C   C64       1.0  0.14037  0.49123  0.74265  1.0000
  C   C65       1.0  0.21009  0.46746  0.64467  1.0000
  H   H59       1.0  0.10944  0.50301  0.68081  1.0000
  C   C66       1.0  0.02238  0.47439  0.76151  1.0000
  C   C67       1.0  0.24310  0.48085  0.99545  1.0000
  S   S9        1.0  0.13611  0.50168  0.59914  1.0000
  C   C68       1.0  0.13005  0.48978  0.71142  1.0000
  H   H60       1.0  0.05365  0.45422  0.76610  1.0000
  C   C69       1.0  0.02652  0.48404  0.69261  1.0000
  C   C70       1.0  0.27947  0.48509  0.89838  1.0000
  H   H61       1.0  0.02571  0.43250  0.66695  1.0000
  C   C71       1.0  0.07155  0.42499  0.70852  1.0000
  H   H62       1.0  0.27035  0.46729  0.88368  1.0000
  H   H63       1.0  0.08441  0.43816  0.75765  1.0000
  C   C72       1.0  0.01359  0.47168  0.81864  1.0000
  H   H64       1.0  0.16162  0.40337  0.55945  1.0000
  S   S10       1.0  0.13350  0.47040  0.68095  1.0000
  P   P2        1.0  0.01641  0.45901  0.72173  1.0000
  H   H65       1.0  0.16375  0.49858  0.91951  1.0000
  H   H66       1.0  0.21359  0.37520  0.53258  1.0000
  C   C73       1.0  0.18786  0.38858  0.54946  1.0000
  C   C74       1.0  0.00982  0.49304  0.68137  1.0000
  C   C75       1.0  0.29359  0.48311  0.63165  1.0000
  C   C76       1.0  0.27093  0.48579  0.92940  1.0000
  C   C77       1.0  0.21854  0.47780  0.98756  1.0000
  H   H67       1.0  0.08578  0.41869  0.70468  1.0000
  S   S11       1.0  0.25716  0.46423  0.52042  1.0000
  C   C78       1.0  0.03633  0.44358  0.71752  1.0000
  C   C79       1.0  0.00779  0.46046  0.78737  1.0000
  C   C80       1.0  0.17240  0.39965  0.54122  1.0000
  H   H68       1.0  0.17751  0.45180  0.98600  1.0000
  C   C81       1.0  0.15599  0.48348  0.96715  1.0000
  H   H69       1.0  0.19673  0.49395  0.63046  1.0000
  H   H70       1.0  0.03482  0.48922  0.53908  1.0000
  H   H71       1.0  0.27370  0.50299  0.61405  1.0000
  C   C82       1.0  0.16072  0.48943  0.00028  1.0000
  H   H72       1.0  0.25442  0.41550  0.51713  1.0000
  C   C83       1.0  0.28805  0.41104  0.51259  1.0000
  C   C84       1.0  0.16739  0.50304  0.94520  1.0000
  H   H73       1.0  0.21632  0.49349  0.97784  1.0000
  C   C85       1.0  0.26304  0.40593  0.50364  1.0000
  H   H74       1.0  0.24101  0.50175  0.77906  1.0000
  H   H75       1.0  0.15060  0.48063  0.74779  1.0000
  H   H76       1.0  0.15909  0.41492  0.50317  1.0000
  Fe  Fe7       1.0  0.10192  0.64676  0.46337  1.0000
  S   S12       1.0  0.12367  0.62420  0.46621  1.0000
  S   S13       1.0  0.05883  0.61686  0.45274  1.0000
  C   C86       1.0  0.29458  0.55831  0.37360  1.0000
  S   S14       1.0  0.17738  0.67850  0.47686  1.0000
  C   C87       1.0  0.24754  0.58498  0.09398  1.0000
  Fe  Fe8       1.0  0.15282  0.65352  0.43473  1.0000
  S   S15       1.0  0.17203  0.63972  0.39795  1.0000
  H   H77       1.0  0.09002  0.55504  0.31449  1.0000
  S   S16       1.0  0.13050  0.67512  0.42923  1.0000
  S   S17       1.0  0.26992  0.52709  0.14246  1.0000
  Fe  Fe9       1.0  0.17184  0.62199  0.20934  1.0000
  S   S18       1.0  0.19382  0.64799  0.16938  1.0000
  S   S19       1.0  0.15129  0.63429  0.24606  1.0000
  Fe  Fe10      1.0  0.18076  0.57878  0.18405  1.0000
  S   S20       1.0  0.20288  0.60048  0.14218  1.0000
  S   S21       1.0  0.17544  0.53902  0.19121  1.0000
  Fe  Fe11      1.0  0.22228  0.63380  0.17794  1.0000
  S   S22       1.0  0.26521  0.65558  0.17267  1.0000
  Fe  Fe12      1.0  0.17288  0.61281  0.13592  1.0000
  S   S23       1.0  0.16232  0.62080  0.08612  1.0000
  S   S24       1.0  0.20256  0.61098  0.22086  1.0000
  S   S25       1.0  0.14834  0.58783  0.17505  1.0000
  C   C88       1.0  0.28107  0.68870  0.18338  1.0000
  C   C89       1.0  0.30781  0.70305  0.18018  1.0000
  C   C90       1.0  0.07445  0.60038  0.34267  1.0000
  C   C91       1.0  0.30760  0.74171  0.20098  1.0000
  C   C92       1.0  0.28076  0.72742  0.20379  1.0000
  C   C93       1.0  0.26749  0.70092  0.19493  1.0000
  C   C94       1.0  0.15574  0.52941  0.10479  1.0000
  H   H78       1.0  0.23962  0.51890  0.32964  1.0000
  H   H79       1.0  0.27018  0.73676  0.21282  1.0000
  H   H80       1.0  0.24681  0.68996  0.19701  1.0000
  H   H81       1.0  0.08103  0.55854  0.45472  1.0000
  C   C95       1.0  0.13997  0.57454  0.05047  1.0000
  C   C96       1.0  0.15774  0.60097  0.05123  1.0000
  C   C97       1.0  0.16959  0.61238  0.02259  1.0000
  C   C98       1.0  0.15378  0.51968  0.07306  1.0000
  H   H82       1.0  0.13016  0.56575  0.07209  1.0000
  H   H83       1.0  0.18278  0.63296  0.02276  1.0000
  Fe  Fe13      1.0  0.30936  0.55794  0.16032  1.0000
  C   C99       1.0  0.20201  0.53673  0.17671  1.0000
  C   C100      1.0  0.22690  0.55817  0.17814  1.0000
  C   C101      1.0  0.24808  0.55547  0.16797  1.0000
  C   C102      1.0  0.24419  0.53149  0.15562  1.0000
  H   H84       1.0  0.21940  0.61705  0.05877  1.0000
  C   C103      1.0  0.07099  0.64590  0.22879  1.0000
  H   H85       1.0  0.22990  0.57671  0.18760  1.0000
  H   H86       1.0  0.26732  0.57195  0.16945  1.0000
  C   C104      1.0  0.08895  0.66503  0.35465  1.0000
  H   H87       1.0  0.19403  0.51794  0.26087  1.0000
  C   C105      1.0  0.16694  0.63940  0.35572  1.0000
  C   C106      1.0  0.15223  0.64978  0.34226  1.0000
  C   C107      1.0  0.14805  0.64854  0.30859  1.0000
  C   C108      1.0  0.15841  0.63684  0.28810  1.0000
  C   C109      1.0  0.17355  0.62692  0.30155  1.0000
  C   C110      1.0  0.17778  0.62820  0.33522  1.0000
  H   H88       1.0  0.14398  0.65863  0.35780  1.0000
  H   H89       1.0  0.13679  0.65675  0.29836  1.0000
  H   H90       1.0  0.18176  0.61802  0.28604  1.0000
  H   H91       1.0  0.18931  0.62027  0.34544  1.0000
  C   C111      1.0  0.13357  0.55987  0.02119  1.0000
  H   H92       1.0  0.20949  0.79775  0.48742  1.0000
  C   C112      1.0  0.31407  0.80335  0.42712  1.0000
  C   C113      1.0  0.28302  0.58332  0.33789  1.0000
  C   C114      1.0  0.13274  0.56671  0.45672  1.0000
  H   H93       1.0  0.31777  0.61541  0.27034  1.0000
  H   H94       1.0  0.25754  0.62519  0.09317  1.0000
  C   C115      1.0  0.06388  0.64406  0.35627  1.0000
  C   C116      1.0  0.07134  0.54709  0.43292  1.0000
  C   C117      1.0  0.02179  0.59055  0.33580  1.0000
  H   H95       1.0  0.16470  0.60555  0.46235  1.0000
  H   H96       1.0  0.01762  0.50760  0.44861  1.0000
  C   C118      1.0  0.04621  0.64646  0.37627  1.0000
  C   C119      1.0  0.31936  0.51484  0.01002  1.0000
  C   C120      1.0  0.22930  0.55958  0.08439  1.0000
  C   C121      1.0  0.10544  0.59723  0.37894  1.0000
  H   H97       1.0  0.30300  0.80990  0.47424  1.0000
  P   P3        1.0  0.24060  0.56106  0.29369  1.0000
  H   H98       1.0  0.03386  0.50558  0.35640  1.0000
  C   C122      1.0  0.21062  0.55758  0.30831  1.0000
  C   C123      1.0  0.19381  0.56104  0.28709  1.0000
  C   C124      1.0  0.17207  0.56165  0.29859  1.0000
  C   C125      1.0  0.16700  0.55891  0.33138  1.0000
  C   C126      1.0  0.18347  0.55518  0.35264  1.0000
  C   C127      1.0  0.20524  0.55450  0.34119  1.0000
  C   C128      1.0  0.11601  0.50732  0.39405  1.0000
  H   H99       1.0  0.00941  0.57096  0.44648  1.0000
  C   C129      1.0  0.07449  0.52584  0.42312  1.0000
  H   H100      1.0  0.02591  0.58950  0.38759  1.0000
  H   H101      1.0  0.19782  0.56384  0.26166  1.0000
  C   C130      1.0  0.25558  0.59199  0.27501  1.0000
  H   H102      1.0  0.29662  0.66225  0.11891  1.0000
  H   H103      1.0  0.02661  0.63101  0.37777  1.0000
  H   H104      1.0  0.26667  0.74827  0.12319  1.0000
  C   C131      1.0  0.26594  0.63722  0.27598  1.0000
  C   C132      1.0  0.25492  0.61322  0.29025  1.0000
  C   C133      1.0  0.19821  0.51294  0.16401  1.0000
  C   C134      1.0  0.00313  0.51171  0.45850  1.0000
  C   C135      1.0  0.08988  0.60829  0.37121  1.0000
  C   C136      1.0  0.30541  0.76914  0.03796  1.0000
  C   C137      1.0  0.28431  0.76631  0.12776  1.0000
  C   C138      1.0  0.04444  0.51722  0.37769  1.0000
  C   C139      1.0  0.30755  0.80665  0.15929  1.0000
  H   H105      1.0  0.15055  0.56011  0.34033  1.0000
  H   H106      1.0  0.17966  0.55335  0.37813  1.0000
  H   H107      1.0  0.21811  0.55229  0.35817  1.0000
  H   H108      1.0  0.10286  0.66366  0.33927  1.0000
  C   C140      1.0  0.29125  0.51474  0.05166  1.0000
  H   H109      1.0  0.30852  0.81927  0.17927  1.0000
  H   H110      1.0  0.28644  0.62146  0.20745  1.0000
  C   C141      1.0  0.00501  0.57906  0.30866  1.0000
  H   H111      1.0  0.30596  0.51860  0.10056  1.0000
  C   C142      1.0  0.30629  0.66615  0.06883  1.0000
  C   C143      1.0  0.33122  0.65991  0.11129  1.0000
  H   H112      1.0  0.24556  0.61114  0.31294  1.0000
  C   C144      1.0  0.26697  0.59507  0.24502  1.0000
  C   C145      1.0  0.27407  0.55588  0.01574  1.0000
  H   H113      1.0  0.31946  0.71695  0.10683  1.0000
  C   C146      1.0  0.07393  0.58047  0.32283  1.0000
  C   C147      1.0  0.30260  0.80340  0.00989  1.0000
  C   C148      1.0  0.26132  0.56054  0.32597  1.0000
  C   C149      1.0  0.05514  0.55351  0.41491  1.0000
  H   H114      1.0  0.15952  0.56485  0.28206  1.0000
  C   C150      1.0  0.25901  0.73210  0.41585  1.0000
  C   C151      1.0  0.23224  0.71912  0.41875  1.0000
  C   C152      1.0  0.21594  0.71023  0.39114  1.0000
  C   C153      1.0  0.22633  0.71476  0.36055  1.0000
  C   C154      1.0  0.25325  0.72823  0.35738  1.0000
  C   C155      1.0  0.26951  0.73648  0.38530  1.0000
  P   P4        1.0  0.26707  0.73516  0.31803  1.0000
  C   C156      1.0  0.28860  0.72160  0.31294  1.0000
  C   C157      1.0  0.24169  0.72006  0.28720  1.0000
  C   C158      1.0  0.23457  0.69513  0.27455  1.0000
  C   C159      1.0  0.21483  0.68349  0.25082  1.0000
  C   C160      1.0  0.20199  0.69650  0.23958  1.0000
  C   C161      1.0  0.20872  0.72117  0.25234  1.0000
  C   C162      1.0  0.22842  0.73290  0.27621  1.0000
  C   C163      1.0  0.30359  0.72704  0.28557  1.0000
  C   C164      1.0  0.31856  0.71503  0.27976  1.0000
  C   C165      1.0  0.31876  0.69737  0.30130  1.0000
  C   C166      1.0  0.30399  0.69178  0.32875  1.0000
  C   C167      1.0  0.28872  0.70357  0.33438  1.0000
  C   C168      1.0  0.28365  0.76971  0.31175  1.0000
  C   C169      1.0  0.28892  0.78787  0.33730  1.0000
  C   C170      1.0  0.30248  0.81446  0.33214  1.0000
  C   C171      1.0  0.31047  0.82315  0.30131  1.0000
  C   C172      1.0  0.30427  0.80527  0.27551  1.0000
  C   C173      1.0  0.29067  0.77874  0.28064  1.0000
  H   H115      1.0  0.27155  0.73884  0.43737  1.0000
  H   H116      1.0  0.22405  0.71589  0.44239  1.0000
  H   H117      1.0  0.19515  0.69970  0.39350  1.0000
  H   H118      1.0  0.21317  0.70759  0.33963  1.0000
  H   H119      1.0  0.29030  0.74657  0.38339  1.0000
  H   H120      1.0  0.24403  0.68451  0.28296  1.0000
  H   H121      1.0  0.20926  0.66419  0.24131  1.0000
  H   H122      1.0  0.18652  0.68721  0.22133  1.0000
  H   H123      1.0  0.19851  0.73108  0.24385  1.0000
  H   H124      1.0  0.23319  0.75191  0.28612  1.0000
  H   H125      1.0  0.30329  0.74002  0.26806  1.0000
  H   H126      1.0  0.04027  0.67073  0.41089  1.0000
  C   C174      1.0  0.29962  0.58216  0.36157  1.0000
  H   H127      1.0  0.30366  0.67760  0.34507  1.0000
  H   H128      1.0  0.27645  0.69792  0.35489  1.0000
  H   H129      1.0  0.28235  0.78178  0.36112  1.0000
  H   H130      1.0  0.30670  0.82836  0.35202  1.0000
  H   H131      1.0  0.27041  0.51104  0.22671  1.0000
  H   H132      1.0  0.12767  0.56972  0.43260  1.0000
  H   H133      1.0  0.28545  0.76535  0.26009  1.0000
  S   S26       1.0  0.33008  0.59677  0.13825  1.0000
  H   H134      1.0  0.26531  0.63511  0.01827  1.0000
  H   H135      1.0  0.32995  0.68768  0.29623  1.0000
  C   C175      1.0  0.30113  0.79059  0.03829  1.0000
  H   H136      1.0  0.32951  0.71906  0.25800  1.0000
  C   C176      1.0  0.31067  0.76050  0.00871  1.0000
  C   C177      1.0  0.06095  0.62626  0.29087  1.0000
  C   C178      1.0  0.08146  0.62683  0.27375  1.0000
  H   H137      1.0  0.21302  0.65598  0.07720  1.0000
  H   H138      1.0  0.10983  0.51912  0.38097  1.0000
  C   C179      1.0  0.32103  0.72953  0.18884  1.0000
  H   H139      1.0  0.26242  0.72342  0.02653  1.0000
  H   H140      1.0  0.11824  0.57027  0.36437  1.0000
  H   H141      1.0  0.23182  0.54392  0.09343  1.0000
  P   P5        1.0  0.30509  0.75315  0.07473  1.0000
  C   C180      1.0  0.25894  0.71240  0.04799  1.0000
  H   H142      1.0  0.24317  0.67214  0.12461  1.0000
  H   H143      1.0  0.09298  0.51347  0.11507  1.0000
  P   P6        1.0  0.05500  0.61510  0.33157  1.0000
  H   H144      1.0  0.29428  0.79204  0.41802  1.0000
  C   C181      1.0  0.23072  0.67415  0.07638  1.0000
  C   C182      1.0  0.24785  0.68325  0.10309  1.0000
  H   H145      1.0  0.26899  0.77697  0.16852  1.0000
  C   C183      1.0  0.21921  0.51041  0.15333  1.0000
  C   C184      1.0  0.33466  0.80833  0.40717  1.0000
  H   H146      1.0  0.28280  0.71433  0.12409  1.0000
  C   C185      1.0  0.27048  0.70701  0.10246  1.0000
  C   C186      1.0  0.33418  0.61898  0.28588  1.0000
  C   C187      1.0  0.23605  0.68887  0.04905  1.0000
  H   H147      1.0  0.22218  0.68214  0.02886  1.0000
  C   C188      1.0  0.05381  0.66921  0.39499  1.0000
  C   C189      1.0  0.09636  0.68786  0.37308  1.0000
  C   C190      1.0  0.08978  0.56970  0.33049  1.0000
  C   C191      1.0  0.11837  0.54286  0.47117  1.0000
  H   H148      1.0  0.26726  0.57906  0.23219  1.0000
  C   C192      1.0  0.02676  0.61200  0.45738  1.0000
  C   C193      1.0  0.31891  0.81341  0.45888  1.0000
  C   C194      1.0  0.26920  0.57684  0.01550  1.0000
  S   S27       1.0  0.31781  0.57353  0.21153  1.0000
  H   H149      1.0  0.13561  0.53470  0.14433  1.0000
  C   C195      1.0  0.27647  0.72168  0.07472  1.0000
  C   C196      1.0  0.29616  0.51404  0.01879  1.0000
  H   H150      1.0  0.03927  0.65361  0.23518  1.0000
  H   H151      1.0  0.26896  0.51718  0.37146  1.0000
  C   C197      1.0  0.24418  0.60571  0.08435  1.0000
  H   H152      1.0  0.27654  0.54682  0.26424  1.0000
  H   H153      1.0  0.06182  0.57383  0.30096  1.0000
  C   C198      1.0  0.04185  0.53872  0.38719  1.0000
  H   H154      1.0  0.33043  0.80076  0.38262  1.0000
  C   C199      1.0  0.21090  0.51653  0.25431  1.0000
  C   C200      1.0  0.31004  0.66264  0.10130  1.0000
  C   C201      1.0  0.06046  0.51060  0.39579  1.0000
  C   C202      1.0  0.32371  0.66672  0.04591  1.0000
  C   C203      1.0  0.27274  0.53568  0.36230  1.0000
  P   P7        1.0  0.09318  0.51587  0.44809  1.0000
  H   H155      1.0  0.26476  0.65333  0.28724  1.0000
  H   H156      1.0  0.29002  0.66885  0.06214  1.0000
  C   C204      1.0  0.20766  0.55479  0.06475  1.0000
  C   C205      1.0  0.07889  0.68985  0.39351  1.0000
  C   C206      1.0  0.32785  0.79745  0.11464  1.0000
  H   H157      1.0  0.18724  0.57248  0.04174  1.0000
  C   C207      1.0  0.32141  0.52624  0.28063  1.0000
  H   H158      1.0  0.03736  0.65167  0.46912  1.0000
  H   H159      1.0  0.05298  0.57007  0.42248  1.0000
  H   H160      1.0  0.10228  0.63688  0.22985  1.0000
  H   H161      1.0  0.26384  0.58853  0.10983  1.0000
  H   H162      1.0  0.31252  0.52710  0.25801  1.0000
  C   C208      1.0  0.25717  0.53274  0.25587  1.0000
  H   H163      1.0  0.17422  0.53889  0.11796  1.0000
  C   C209      1.0  0.23577  0.53518  0.26543  1.0000
  Fe  Fe14      1.0  0.15343  0.69833  0.47435  1.0000
  C   C210      1.0  0.10566  0.57822  0.35847  1.0000
  C   C211      1.0  0.12952  0.50741  0.05671  1.0000
  C   C212      1.0  0.28533  0.78280  0.15324  1.0000
  H   H164      1.0  0.11768  0.60372  0.40062  1.0000
  H   H165      1.0  0.02953  0.54390  0.37312  1.0000
  H   H166      1.0  0.11585  0.70384  0.37207  1.0000
  C   C213      1.0  0.27791  0.64029  0.24663  1.0000
  C   C214      1.0  0.13384  0.52700  0.11989  1.0000
  H   H167      1.0  0.27581  0.59079  0.03571  1.0000
  C   C215      1.0  0.27799  0.61914  0.23090  1.0000
  C   C216      1.0  0.25616  0.53674  0.33862  1.0000
  C   C217      1.0  0.02153  0.63222  0.46495  1.0000
  C   C218      1.0  0.05090  0.64592  0.24588  1.0000
  H   H168      1.0  0.31838  0.69366  0.17117  1.0000
  P   P8        1.0  0.18226  0.52217  0.05473  1.0000
  H   H169      1.0  0.28667  0.65893  0.23558  1.0000
  H   H170      1.0  0.09416  0.62035  0.28415  1.0000
  C   C219      1.0  0.33298  0.51896  0.06635  1.0000
  S   S28       1.0  0.17548  0.74263  0.47883  1.0000
  H   H171      1.0  0.07493  0.65345  0.20483  1.0000
  H   H172      1.0  0.09008  0.62299  0.38757  1.0000
  C   C220      1.0  0.26549  0.65057  0.00465  1.0000
  H   H173      1.0  0.08485  0.70734  0.40834  1.0000
  C   C221      1.0  0.20437  0.57578  0.05556  1.0000
  C   C222      1.0  0.04601  0.63634  0.27690  1.0000
  H   H174      1.0  0.28759  0.60189  0.32845  1.0000
  P   P9        1.0  0.31865  0.67019  0.00353  1.0000
  C   C223      1.0  0.30584  0.77336  0.10861  1.0000
  C   C224      1.0  0.22264  0.60111  0.06505  1.0000
  H   H175      1.0  0.11874  0.53984  0.02033  1.0000
  H   H176      1.0  0.30764  0.55721  0.39145  1.0000
  H   H177      1.0  0.03070  0.63693  0.29013  1.0000
  C   C225      1.0  0.30963  0.51732  0.07528  1.0000
  S   S29       1.0  0.32446  0.77426  0.21473  1.0000
  H   H178      1.0  0.29699  0.79774  0.06039  1.0000
  C   C226      1.0  0.08633  0.63647  0.24281  1.0000
  S   S30       1.0  0.30114  0.51086  0.45286  1.0000
  C   C227      1.0  0.10981  0.51488  0.10346  1.0000
  C   C228      1.0  0.15399  0.58698  0.47332  1.0000
  C   C229      1.0  0.32871  0.81406  0.13977  1.0000
  H   H179      1.0  0.28472  0.55437  0.03625  1.0000
  H   H180      1.0  0.31018  0.81186  0.25142  1.0000
  H   H181      1.0  0.31668  0.59968  0.37010  1.0000
  C   C230      1.0  0.31734  0.50938  0.33471  1.0000
  C   C231      1.0  0.33446  0.75059  0.07717  1.0000
  C   C232      1.0  0.33586  0.73123  0.09480  1.0000
  H   H182      1.0  0.32119  0.84372  0.29730  1.0000
  H   H183      1.0  0.22576  0.51203  0.04882  1.0000
  C   C233      1.0  0.00548  0.52013  0.49079  1.0000
  H   H184      1.0  0.32306  0.57857  0.28903  1.0000
  H   H185      1.0  0.29983  0.82026  0.01038  1.0000
  C   C234      1.0  0.17659  0.51512  0.01175  1.0000
  H   H186      1.0  0.27350  0.51395  0.05920  1.0000
  H   H187      1.0  0.31384  0.74398  0.00783  1.0000
  C   C235      1.0  0.30602  0.51118  0.30542  1.0000
  C   C236      1.0  0.10764  0.50504  0.07191  1.0000
  H   H188      1.0  0.31532  0.63595  0.49455  1.0000
  H   H189      1.0  0.33373  0.65682  0.13643  1.0000
  C   C237      1.0  0.01301  0.58145  0.36644  1.0000
  C   C238      1.0  0.33578  0.64419  0.50059  1.0000
  C   C239      1.0  0.25379  0.51228  0.23502  1.0000
  H   H190      1.0  0.33624  0.63061  0.00895  1.0000
  H   H191      1.0  0.33521  0.56603  0.00403  1.0000
  H   H192      1.0  0.01150  0.58480  0.28459  1.0000
  C   C240      1.0  0.00572  0.58685  0.45213  1.0000
  C   C241      1.0  0.12636  0.53917  0.50173  1.0000
  H   H193      1.0  0.17752  0.59928  0.51725  1.0000
  Fe  Fe15      1.0  0.30388  0.85157  0.58530  1.0000
  H   H194      1.0  0.15595  0.71060  0.62807  1.0000
  S   S31       1.0  0.26898  0.81039  0.58067  1.0000
  C   C242      1.0  0.28020  0.64719  0.74206  1.0000
  C   C243      1.0  0.17337  0.72553  0.64034  1.0000
  C   C244      1.0  0.30872  0.61231  0.68105  1.0000
  S   S32       1.0  0.31418  0.87679  0.63122  1.0000
  S   S33       1.0  0.15975  0.63920  0.55247  1.0000
  H   H195      1.0  0.28647  0.61313  0.90508  1.0000
  Fe  Fe16      1.0  0.19533  0.56094  0.87004  1.0000
  S   S34       1.0  0.18848  0.57885  0.82639  1.0000
  H   H196      1.0  0.01926  0.55358  0.60706  1.0000
  Fe  Fe17      1.0  0.15492  0.56511  0.90885  1.0000
  S   S35       1.0  0.14371  0.58298  0.86857  1.0000
  S   S36       1.0  0.13570  0.55168  0.95651  1.0000
  Fe  Fe18      1.0  0.14647  0.55396  0.83502  1.0000
  C   C245      1.0  0.18322  0.52857  0.95636  1.0000
  Fe  Fe19      1.0  0.18636  0.60680  0.86216  1.0000
  S   S37       1.0  0.20137  0.64811  0.84822  1.0000
  S   S38       1.0  0.15333  0.53349  0.87571  1.0000
  S   S39       1.0  0.19748  0.59146  0.90531  1.0000
  S   S40       1.0  0.31081  0.72770  0.90889  1.0000
  C   C246      1.0  0.23228  0.67012  0.86406  1.0000
  C   C247      1.0  0.24821  0.66141  0.87811  1.0000
  C   C248      1.0  0.27290  0.67938  0.89043  1.0000
  C   C249      1.0  0.28176  0.70600  0.88862  1.0000
  C   C250      1.0  0.26611  0.71474  0.87384  1.0000
  C   C251      1.0  0.24125  0.69677  0.86192  1.0000
  H   H197      1.0  0.24152  0.64090  0.87961  1.0000
  H   H198      1.0  0.28515  0.67274  0.90167  1.0000
  H   H199      1.0  0.27275  0.73530  0.87292  1.0000
  H   H200      1.0  0.22872  0.70348  0.85161  1.0000
  H   H201      1.0  0.28602  0.74626  0.75718  1.0000
  C   C252      1.0  0.02079  0.56103  0.55624  1.0000
  H   H202      1.0  0.29182  0.64929  0.94104  1.0000
  C   C253      1.0  0.27762  0.59164  0.81775  1.0000
  C   C254      1.0  0.25420  0.57848  0.83323  1.0000
  C   C255      1.0  0.25174  0.56185  0.85789  1.0000
  H   H203      1.0  0.26522  0.70460  0.95381  1.0000
  H   H204      1.0  0.05050  0.53952  0.63205  1.0000
  H   H205      1.0  0.27920  0.60409  0.79829  1.0000
  H   H206      1.0  0.23797  0.58091  0.82569  1.0000
  H   H207      1.0  0.32632  0.64332  0.87537  1.0000
  H   H208      1.0  0.29959  0.59307  0.63396  1.0000
  C   C256      1.0  0.30094  0.51791  0.72288  1.0000
  H   H209      1.0  0.20006  0.55462  0.99717  1.0000
  C   C257      1.0  0.18784  0.53466  0.98945  1.0000
  P   P10       1.0  0.26142  0.53109  0.72094  1.0000
  C   C258      1.0  0.24473  0.79220  0.55000  1.0000
  C   C259      1.0  0.32672  0.84648  0.75328  1.0000
  C   C260      1.0  0.26301  0.70048  0.62285  1.0000
  H   H210      1.0  0.24335  0.72112  0.60689  1.0000
  C   C261      1.0  0.21108  0.74958  0.52863  1.0000
  C   C262      1.0  0.23191  0.76496  0.55051  1.0000
  C   C263      1.0  0.27290  0.55873  0.86739  1.0000
  C   C264      1.0  0.30019  0.63746  0.94855  1.0000
  C   C265      1.0  0.26581  0.53785  0.98942  1.0000
  H   H211      1.0  0.23808  0.75567  0.56806  1.0000
  C   C266      1.0  0.10290  0.55584  0.57383  1.0000
  Fe  Fe20      1.0  0.33553  0.76612  0.88756  1.0000
  C   C267      1.0  0.26882  0.86787  0.68927  1.0000
  C   C268      1.0  0.13780  0.60733  0.56135  1.0000
  C   C269      1.0  0.14454  0.59412  0.58391  1.0000
  C   C270      1.0  0.12714  0.56818  0.58993  1.0000
  C   C271      1.0  0.33028  0.68663  0.82015  1.0000
  H   H212      1.0  0.10310  0.52866  0.72472  1.0000
  H   H213      1.0  0.16333  0.60374  0.59618  1.0000
  H   H214      1.0  0.13237  0.55779  0.60701  1.0000
  H   H215      1.0  0.30741  0.58694  0.91996  1.0000
  H   H216      1.0  0.27980  0.88501  0.70478  1.0000
  C   C272      1.0  0.23890  0.53065  0.74983  1.0000
  S   S41       1.0  0.33154  0.94843  0.60965  1.0000
  S   S42       1.0  0.11848  0.53758  0.79173  1.0000
  C   C273      1.0  0.21866  0.75742  0.63924  1.0000
  C   C274      1.0  0.21853  0.76472  0.67169  1.0000
  C   C275      1.0  0.19546  0.75216  0.68825  1.0000
  P   P11       1.0  0.24771  0.79078  0.69068  1.0000
  C   C276      1.0  0.24685  0.79098  0.73427  1.0000
  C   C277      1.0  0.27403  0.78561  0.67856  1.0000
  C   C278      1.0  0.27244  0.76130  0.68247  1.0000
  C   C279      1.0  0.29340  0.75749  0.67536  1.0000
  C   C280      1.0  0.31590  0.77781  0.66387  1.0000
  C   C281      1.0  0.31735  0.80183  0.65924  1.0000
  C   C282      1.0  0.29650  0.80577  0.66652  1.0000
  C   C283      1.0  0.26469  0.78716  0.75312  1.0000
  C   C284      1.0  0.26416  0.78802  0.78675  1.0000
  C   C285      1.0  0.24630  0.79329  0.80194  1.0000
  C   C286      1.0  0.22896  0.79784  0.78349  1.0000
  C   C287      1.0  0.22938  0.79693  0.74981  1.0000
  C   C288      1.0  0.25198  0.82171  0.67818  1.0000
  C   C289      1.0  0.26586  0.84396  0.69840  1.0000
  C   C290      1.0  0.11343  0.51815  0.72982  1.0000
  C   C291      1.0  0.25826  0.86985  0.65972  1.0000
  C   C292      1.0  0.24485  0.84792  0.63922  1.0000
  C   C293      1.0  0.24166  0.82394  0.64839  1.0000
  S   S43       1.0  0.22234  0.54452  0.87679  1.0000
  H   H217      1.0  0.23610  0.76719  0.62576  1.0000
  H   H218      1.0  0.19455  0.75722  0.71315  1.0000
  H   H219      1.0  0.25523  0.74551  0.69176  1.0000
  H   H220      1.0  0.29233  0.73893  0.67918  1.0000
  H   H221      1.0  0.30959  0.80495  0.95908  1.0000
  P   P12       1.0  0.32146  0.68701  0.77835  1.0000
  H   H222      1.0  0.29817  0.82461  0.66296  1.0000
  H   H223      1.0  0.27965  0.78437  0.74229  1.0000
  H   H224      1.0  0.27826  0.78548  0.80115  1.0000
  H   H225      1.0  0.24643  0.79454  0.82806  1.0000
  H   H226      1.0  0.21556  0.80259  0.79535  1.0000
  H   H227      1.0  0.21635  0.80129  0.73585  1.0000
  H   H228      1.0  0.27922  0.71070  0.60755  1.0000
  H   H229      1.0  0.31318  0.57082  0.86067  1.0000
  H   H230      1.0  0.23740  0.84956  0.61581  1.0000
  H   H231      1.0  0.23156  0.80745  0.63175  1.0000
  C   C294      1.0  0.24580  0.63486  0.79207  1.0000
  C   C295      1.0  0.23791  0.62019  0.76306  1.0000
  C   C296      1.0  0.25499  0.62653  0.73790  1.0000
  H   H232      1.0  0.28854  0.58244  0.75172  1.0000
  C   C297      1.0  0.06043  0.51554  0.66043  1.0000
  C   C298      1.0  0.27092  0.65541  0.79631  1.0000
  H   H233      1.0  0.33217  0.59623  0.97132  1.0000
  H   H234      1.0  0.29314  0.65191  0.72237  1.0000
  H   H235      1.0  0.20132  0.72870  0.52966  1.0000
  H   H236      1.0  0.27462  0.84296  0.72111  1.0000
  H   H237      1.0  0.17282  0.60643  0.97151  1.0000
  H   H238      1.0  0.19787  0.55501  0.76331  1.0000
  H   H239      1.0  0.26117  0.88851  0.65223  1.0000
  C   C299      1.0  0.22558  0.51026  0.66936  1.0000
  C   C300      1.0  0.28873  0.69123  0.97841  1.0000
  H   H240      1.0  0.08001  0.52408  0.65210  1.0000
  C   C301      1.0  0.31521  0.53435  0.78747  1.0000
  C   C302      1.0  0.17304  0.73254  0.67264  1.0000
  H   H241      1.0  0.18865  0.52768  0.81074  1.0000
  H   H242      1.0  0.31202  0.64491  0.82008  1.0000
  H   H243      1.0  0.27837  0.67758  0.64406  1.0000
  H   H244      1.0  0.31539  0.62556  0.73110  1.0000
  H   H245      1.0  0.06864  0.61433  0.52281  1.0000
  C   C303      1.0  0.14544  0.57114  0.99264  1.0000
  C   C304      1.0  0.31387  0.64254  0.97841  1.0000
  H   H246      1.0  0.23248  0.63034  0.81146  1.0000
  H   H247      1.0  0.21846  0.60413  0.76011  1.0000
  H   H248      1.0  0.24871  0.61528  0.71531  1.0000
  H   H249      1.0  0.02286  0.51604  0.57612  1.0000
  H   H250      1.0  0.27662  0.66654  0.81906  1.0000
  C   C305      1.0  0.31297  0.52976  0.62996  1.0000
  H   H251      1.0  0.08594  0.62267  0.57924  1.0000
  C   C306      1.0  0.26525  0.68963  0.96841  1.0000
  C   C307      1.0  0.24893  0.56292  0.96228  1.0000
  C   C308      1.0  0.03027  0.56630  0.58838  1.0000
  C   C309      1.0  0.03476  0.57858  0.53270  1.0000
  C   C310      1.0  0.28908  0.67173  0.99666  1.0000
  C   C311      1.0  0.29464  0.53602  0.77270  1.0000
  H   H252      1.0  0.28270  0.70449  0.77122  1.0000
  C   C312      1.0  0.30892  0.60228  0.93617  1.0000
  H   H253      1.0  0.19623  0.73292  0.59837  1.0000
  H   H254      1.0  0.15378  0.55641  0.54173  1.0000
  H   H255      1.0  0.23984  0.56609  0.94122  1.0000
  C   C313      1.0  0.24277  0.70633  0.62241  1.0000
  H   H256      1.0  0.32134  0.54173  0.81212  1.0000
  C   C314      1.0  0.26247  0.68179  0.64334  1.0000
  C   C315      1.0  0.24152  0.66872  0.66312  1.0000
  C   C316      1.0  0.22072  0.67390  0.66200  1.0000
  C   C317      1.0  0.22184  0.69330  0.64214  1.0000
  P   P13       1.0  0.19510  0.65913  0.68990  1.0000
  C   C318      1.0  0.18667  0.62591  0.69677  1.0000
  C   C319      1.0  0.20741  0.67987  0.72578  1.0000
  C   C320      1.0  0.22005  0.67417  0.75064  1.0000
  C   C321      1.0  0.23055  0.69097  0.77771  1.0000
  C   C322      1.0  0.22908  0.71388  0.77985  1.0000
  C   C323      1.0  0.21702  0.71998  0.75485  1.0000
  C   C324      1.0  0.20641  0.70314  0.72775  1.0000
  C   C325      1.0  0.17577  0.61464  0.72584  1.0000
  C   C326      1.0  0.16816  0.58858  0.73057  1.0000
  C   C327      1.0  0.17105  0.57350  0.70621  1.0000
  C   C328      1.0  0.18116  0.58435  0.67687  1.0000
  C   C329      1.0  0.18880  0.61042  0.67205  1.0000
  C   C330      1.0  0.16567  0.65762  0.67433  1.0000
  C   C331      1.0  0.15894  0.65266  0.64128  1.0000
  C   C332      1.0  0.13597  0.65117  0.62928  1.0000
  C   C333      1.0  0.11929  0.65408  0.65022  1.0000
  C   C334      1.0  0.12552  0.65832  0.68329  1.0000
  C   C335      1.0  0.14855  0.65993  0.69537  1.0000
  C   C336      1.0  0.20224  0.52816  0.79332  1.0000
  C   C337      1.0  0.32139  0.51603  0.73781  1.0000
  C   C338      1.0  0.23223  0.51395  0.77564  1.0000
  H   H257      1.0  0.24164  0.65477  0.67950  1.0000
  H   H258      1.0  0.20664  0.69850  0.64200  1.0000
  H   H259      1.0  0.22184  0.65681  0.74928  1.0000
  H   H260      1.0  0.23972  0.68606  0.79714  1.0000
  H   H261      1.0  0.23725  0.72686  0.80095  1.0000
  H   H262      1.0  0.21579  0.73769  0.75663  1.0000
  H   H263      1.0  0.19750  0.70823  0.70830  1.0000
  H   H264      1.0  0.17276  0.62580  0.74477  1.0000
  H   H265      1.0  0.15955  0.57991  0.75299  1.0000
  H   H266      1.0  0.16486  0.55322  0.70981  1.0000
  H   H267      1.0  0.18243  0.57231  0.65760  1.0000
  H   H268      1.0  0.19577  0.61827  0.64879  1.0000
  H   H269      1.0  0.17133  0.64985  0.62464  1.0000
  H   H270      1.0  0.13113  0.64761  0.60364  1.0000
  H   H271      1.0  0.10144  0.65277  0.64083  1.0000
  H   H272      1.0  0.11237  0.66009  0.69964  1.0000
  H   H273      1.0  0.15281  0.66266  0.72114  1.0000
  C   C339      1.0  0.29732  0.61712  0.92784  1.0000
  C   C340      1.0  0.06766  0.60563  0.57302  1.0000
  C   C341      1.0  0.19614  0.73805  0.62362  1.0000
  C   C342      1.0  0.29901  0.58918  0.82799  1.0000
  C   C343      1.0  0.30137  0.72040  0.76620  1.0000
  C   C344      1.0  0.22618  0.54526  0.74520  1.0000
  S   S44       1.0  0.32918  0.82924  0.81368  1.0000
  S   S45       1.0  0.32068  0.88623  0.55371  1.0000
  H   H274      1.0  0.27366  0.54943  0.65456  1.0000
  H   H275      1.0  0.15529  0.72294  0.68550  1.0000
  C   C345      1.0  0.32284  0.60742  0.96541  1.0000
  H   H276      1.0  0.32067  0.63141  0.67208  1.0000
  H   H277      1.0  0.28526  0.54479  0.78634  1.0000
  C   C346      1.0  0.32309  0.66278  0.83402  1.0000
  C   C347      1.0  0.28858  0.66124  0.77169  1.0000
  C   C348      1.0  0.33114  0.66180  0.86547  1.0000
  H   H278      1.0  0.22451  0.52807  0.67092  1.0000
  C   C349      1.0  0.24193  0.66811  0.97553  1.0000
  C   C350      1.0  0.23678  0.80386  0.52667  1.0000
  C   C351      1.0  0.12361  0.51949  0.76108  1.0000
  C   C352      1.0  0.09596  0.56935  0.55215  1.0000
  C   C353      1.0  0.30316  0.74408  0.75810  1.0000
  H   H279      1.0  0.06140  0.59206  0.62134  1.0000
  S   S46       1.0  0.32836  0.60610  0.80895  1.0000
  H   H280      1.0  0.23025  0.55752  0.72482  1.0000
  C   C354      1.0  0.30812  0.79480  0.98097  1.0000
  H   H281      1.0  0.27102  0.54581  0.88640  1.0000
  C   C355      1.0  0.32521  0.62725  0.98665  1.0000
  C   C356      1.0  0.29033  0.58456  0.72590  1.0000
  C   C357      1.0  0.21434  0.51314  0.79764  1.0000
  C   C358      1.0  0.25647  0.58022  0.98887  1.0000
  C   C359      1.0  0.05386  0.58831  0.59664  1.0000
  H   H282      1.0  0.07707  0.55997  0.54010  1.0000
  C   C360      1.0  0.11353  0.59493  0.54560  1.0000
  H   H283      1.0  0.32387  0.51436  0.98499  1.0000
  H   H284      1.0  0.22380  0.66645  0.96659  1.0000
  H   H285      1.0  0.33222  0.50891  0.72414  1.0000
  C   C361      1.0  0.27839  0.56280  0.70465  1.0000
  H   H286      1.0  0.33233  0.77511  0.65868  1.0000
  C   C362      1.0  0.29669  0.57280  0.85287  1.0000
  H   H287      1.0  0.10815  0.60516  0.52859  1.0000
  H   H288      1.0  0.14457  0.50660  0.79161  1.0000
  C   C363      1.0  0.25344  0.54177  0.96253  1.0000
  C   C364      1.0  0.05803  0.60082  0.54112  1.0000
  C   C365      1.0  0.31160  0.53026  0.90534  1.0000
  H   H289      1.0  0.30641  0.70703  0.97035  1.0000
  C   C366      1.0  0.28193  0.56598  0.67139  1.0000
  C   C367      1.0  0.32363  0.71764  0.76846  1.0000
  H   H290      1.0  0.30904  0.84574  0.76095  1.0000
  C   C368      1.0  0.29684  0.59073  0.65963  1.0000
  P   P14       1.0  0.27213  0.51070  0.98850  1.0000
  C   C369      1.0  0.30286  0.53112  0.93608  1.0000
  H   H291      1.0  0.24627  0.82475  0.52598  1.0000
  C   C370      1.0  0.30560  0.60915  0.71418  1.0000
  H   H292      1.0  0.19158  0.54375  0.93925  1.0000
  C   C371      1.0  0.04374  0.52430  0.64922  1.0000
  C   C372      1.0  0.24203  0.64868  0.99395  1.0000
  C   C373      1.0  0.20784  0.54392  0.76687  1.0000
  H   H293      1.0  0.31105  0.54653  0.62419  1.0000
  H   H294      1.0  0.32772  0.54745  0.89646  1.0000
  C   C374      1.0  0.31207  0.77330  0.98037  1.0000
  H   H295      1.0  0.31209  0.54911  0.95038  1.0000
  H   H296      1.0  0.24743  0.52868  0.94146  1.0000
  C   C375      1.0  0.32841  0.52409  0.77016  1.0000
  H   H297      1.0  0.32126  0.98761  0.63340  1.0000
  C   C376      1.0  0.28687  0.52717  0.74050  1.0000
  H   H298      1.0  0.22393  0.63196  0.99938  1.0000
  S   S47       1.0  0.12310  0.67178  0.50800  1.0000
  C   C377      1.0  0.16385  0.59743  0.99349  1.0000
  H   H299      1.0  0.05589  0.51000  0.74856  1.0000
  H   H300      1.0  0.06581  0.52939  0.80356  1.0000
  H   H301      1.0  0.31657  0.76673  0.95799  1.0000
  S   S48       1.0  0.08052  0.52376  0.58074  1.0000
  H   H302      1.0  0.32519  0.86132  0.70652  1.0000
  Fe  Fe21      1.0  0.33438  0.91140  0.59970  1.0000
  H   H303      1.0  0.25288  0.59652  0.98837  1.0000
  C   C378      1.0  0.14783  0.55936  0.51806  1.0000
  C   C379      1.0  0.33581  0.85526  0.72243  1.0000
  C   C380      1.0  0.16140  0.58338  0.50410  1.0000
  Fe  Fe22      1.0  0.14641  0.65098  0.50780  1.0000
  C   C381      1.0  0.32722  0.76521  0.75234  1.0000
  H   H304      1.0  0.33479  0.81762  0.65036  1.0000
  H   H305      1.0  0.32876  0.78383  0.74713  1.0000
  H   H306      1.0  0.29640  0.51251  0.69753  1.0000
  C   C382      1.0  0.20262  0.76123  0.50587  1.0000
  C   C383      1.0  0.21580  0.78846  0.50488  1.0000
  C   C384      1.0  0.28264  0.50890  0.94847  1.0000
  C   C385      1.0  0.04923  0.51035  0.79893  1.0000
  H   H307      1.0  0.03914  0.50520  0.84869  1.0000
  C   C386      1.0  0.29985  0.50731  0.88639  1.0000
  C   C387      1.0  0.01845  0.51314  0.65978  1.0000
  C   C388      1.0  0.13719  0.50609  0.76741  1.0000
  H   H308      1.0  0.06852  0.52121  0.50579  1.0000
  H   H309      1.0  0.11622  0.52068  0.51295  1.0000
  H   H310      1.0  0.33587  0.69754  0.71126  1.0000
  H   H311      1.0  0.00544  0.51985  0.65098  1.0000
  C   C389      1.0  0.24212  0.50632  0.69051  1.0000
  C   C390      1.0  0.29165  0.50512  0.62445  1.0000
  H   H312      1.0  0.30666  0.50678  0.86252  1.0000
  C   C391      1.0  0.11692  0.50360  0.70498  1.0000
  H   H313      1.0  0.02192  0.52261  0.50555  1.0000
  H   H314      1.0  0.02754  0.57554  0.50792  1.0000
  C   C392      1.0  0.54488  0.29856  0.49051  1.0000
  S   S49       1.0  0.48155  0.34600  0.47708  1.0000
  H   H315      1.0  0.63109  0.29448  0.14149  1.0000
  Fe  Fe23      1.0  0.42355  0.35702  0.45093  1.0000
  S   S50       1.0  0.46492  0.38634  0.44280  1.0000
  S   S51       1.0  0.39034  0.36447  0.43422  1.0000
  Fe  Fe24      1.0  0.47042  0.35253  0.42724  1.0000
  S   S52       1.0  0.49448  0.34825  0.38787  1.0000
  C   C393      1.0  0.51142  0.21356  0.36869  1.0000
  S   S53       1.0  0.42840  0.32338  0.43125  1.0000
  P   P15       1.0  0.40230  0.46838  0.35458  1.0000
  Fe  Fe25      1.0  0.64357  0.14690  0.42844  1.0000
  C   C394      1.0  0.50842  0.34108  0.06384  1.0000
  H   H316      1.0  0.57996  0.48535  0.45432  1.0000
  Fe  Fe26      1.0  0.63239  0.09352  0.45212  1.0000
  S   S54       1.0  0.61369  0.05203  0.42939  1.0000
  C   C395      1.0  0.62919  0.45907  0.29676  1.0000
  S   S55       1.0  0.60878  0.11422  0.44906  1.0000
  Fe  Fe27      1.0  0.60331  0.18269  0.21836  1.0000
  S   S56       1.0  0.61792  0.18859  0.16767  1.0000
  S   S57       1.0  0.59575  0.14838  0.24866  1.0000
  Fe  Fe28      1.0  0.60438  0.23430  0.22305  1.0000
  S   S58       1.0  0.61930  0.24520  0.17373  1.0000
  S   S59       1.0  0.59971  0.26186  0.25697  1.0000
  Fe  Fe29      1.0  0.59057  0.20438  0.15799  1.0000
  S   S60       1.0  0.56510  0.20033  0.11370  1.0000
  C   C396      1.0  0.40229  0.48086  0.31534  1.0000
  S   S61       1.0  0.57326  0.19468  0.20719  1.0000
  S   S62       1.0  0.63324  0.22185  0.23728  1.0000
  Fe  Fe30      1.0  0.61713  0.41193  0.22157  1.0000
  S   S63       1.0  0.60887  0.39252  0.17237  1.0000
  C   C397      1.0  0.63765  0.41109  0.01728  1.0000
  Fe  Fe31      1.0  0.56288  0.40512  0.22766  1.0000
  S   S64       1.0  0.55025  0.38627  0.17774  1.0000
  S   S65       1.0  0.53789  0.41346  0.26211  1.0000
  Fe  Fe32      1.0  0.57098  0.36442  0.19231  1.0000
  S   S66       1.0  0.55263  0.32170  0.18109  1.0000
  Fe  Fe33      1.0  0.58929  0.41609  0.16155  1.0000
  S   S67       1.0  0.60202  0.44134  0.11794  1.0000
  S   S68       1.0  0.58114  0.38130  0.24281  1.0000
  S   S69       1.0  0.60002  0.43738  0.21004  1.0000
  C   C398      1.0  0.66407  0.11714  0.17818  1.0000
  C   C399      1.0  0.47076  0.18886  0.43303  1.0000
  C   C400      1.0  0.40047  0.46601  0.28744  1.0000
  H   H317      1.0  0.45861  0.22668  0.45757  1.0000
  H   H318      1.0  0.62377  0.28579  0.08239  1.0000
  C   C401      1.0  0.65473  0.09470  0.34614  1.0000
  C   C402      1.0  0.48368  0.48092  0.48650  1.0000
  C   C403      1.0  0.41587  0.49384  0.38561  1.0000
  C   C404      1.0  0.61883  0.46016  0.42866  1.0000
  H   H319      1.0  0.42873  0.27171  0.41265  1.0000
  H   H320      1.0  0.60511  0.17814  0.02356  1.0000
  C   C405      1.0  0.56633  0.39733  0.03618  1.0000
  C   C406      1.0  0.57344  0.40501  0.06890  1.0000
  C   C407      1.0  0.59324  0.43001  0.07729  1.0000
  C   C408      1.0  0.60617  0.44695  0.05271  1.0000
  C   C409      1.0  0.55084  0.03375  0.48850  1.0000
  H   H321      1.0  0.63730  0.23281  0.39271  1.0000
  H   H322      1.0  0.56333  0.39183  0.08763  1.0000
  H   H323      1.0  0.62122  0.46640  0.05912  1.0000
  C   C410      1.0  0.58726  0.27876  0.23532  1.0000
  C   C411      1.0  0.56700  0.26559  0.21251  1.0000
  C   C412      1.0  0.55631  0.27897  0.19637  1.0000
  C   C413      1.0  0.56626  0.30561  0.20226  1.0000
  C   C414      1.0  0.58703  0.31895  0.22442  1.0000
  C   C415      1.0  0.59739  0.30545  0.24108  1.0000
  H   H324      1.0  0.55923  0.24500  0.20773  1.0000
  H   H325      1.0  0.54032  0.26871  0.17923  1.0000
  H   H326      1.0  0.59508  0.33959  0.22869  1.0000
  H   H327      1.0  0.61363  0.31577  0.25779  1.0000
  C   C416      1.0  0.35783  0.42007  0.35716  1.0000
  C   C417      1.0  0.55380  0.19726  0.04865  1.0000
  C   C418      1.0  0.56985  0.19522  0.07263  1.0000
  C   C419      1.0  0.58857  0.18859  0.06335  1.0000
  C   C420      1.0  0.65509  0.49470  0.47521  1.0000
  H   H328      1.0  0.61085  0.29145  0.01500  1.0000
  H   H329      1.0  0.53896  0.20195  0.05557  1.0000
  H   H330      1.0  0.60081  0.18662  0.08155  1.0000
  C   C421      1.0  0.59875  0.02039  0.44550  1.0000
  H   H331      1.0  0.51855  0.34922  0.11464  1.0000
  H   H332      1.0  0.62327  0.22624  0.44891  1.0000
  C   C422      1.0  0.52542  0.27952  0.47039  1.0000
  C   C423      1.0  0.62987  0.16655  0.35251  1.0000
  C   C424      1.0  0.62695  0.18517  0.33539  1.0000
  C   C425      1.0  0.61688  0.17980  0.30357  1.0000
  C   C426      1.0  0.60913  0.15558  0.28858  1.0000
  C   C427      1.0  0.61176  0.13675  0.30583  1.0000
  C   C428      1.0  0.62260  0.14240  0.33755  1.0000
  H   H333      1.0  0.61430  0.19418  0.29110  1.0000
  H   H334      1.0  0.60545  0.11783  0.29456  1.0000
  H   H335      1.0  0.62516  0.12810  0.35052  1.0000
  H   H336      1.0  0.64620  0.08088  0.36493  1.0000
  C   C429      1.0  0.38322  0.38937  0.44736  1.0000
  C   C430      1.0  0.39793  0.40784  0.47174  1.0000
  C   C431      1.0  0.39159  0.42719  0.48135  1.0000
  C   C432      1.0  0.37060  0.42855  0.46665  1.0000
  C   C433      1.0  0.35608  0.41031  0.44200  1.0000
  C   C434      1.0  0.36228  0.39081  0.43254  1.0000
  C   C435      1.0  0.65156  0.23836  0.41235  1.0000
  H   H337      1.0  0.66229  0.40499  0.30545  1.0000
  H   H338      1.0  0.46673  0.14712  0.49064  1.0000
  H   H339      1.0  0.54208  0.35771  0.46842  1.0000
  C   C436      1.0  0.59095  0.18377  0.03048  1.0000
  C   C437      1.0  0.50609  0.36681  0.35317  1.0000
  C   C438      1.0  0.51956  0.35987  0.33105  1.0000
  C   C439      1.0  0.52925  0.37391  0.30312  1.0000
  C   C440      1.0  0.52570  0.39520  0.29701  1.0000
  C   C441      1.0  0.51254  0.40242  0.31939  1.0000
  C   C442      1.0  0.50278  0.38831  0.34740  1.0000
  H   H340      1.0  0.52223  0.34329  0.33529  1.0000
  H   H341      1.0  0.53911  0.36797  0.28610  1.0000
  H   H342      1.0  0.50980  0.41893  0.31495  1.0000
  H   H343      1.0  0.49264  0.39396  0.36440  1.0000
  H   H344      1.0  0.49104  0.25034  0.03168  1.0000
  C   C443      1.0  0.44293  0.26508  0.41361  1.0000
  C   C444      1.0  0.58064  0.37407  0.48968  1.0000
  C   C445      1.0  0.48189  0.26644  0.39425  1.0000
  C   C446      1.0  0.54391  0.25856  0.33712  1.0000
  H   H345      1.0  0.65248  0.30906  0.26908  1.0000
  H   H346      1.0  0.60332  0.24784  0.02940  1.0000
  H   H347      1.0  0.59045  0.43295  0.27915  1.0000
  H   H348      1.0  0.56237  0.26156  0.42589  1.0000
  C   C447      1.0  0.60919  0.44727  0.35843  1.0000
  H   H349      1.0  0.40318  0.43194  0.40024  1.0000
  Fe  Fe34      1.0  0.33668  0.46967  0.46524  1.0000
  H   H350      1.0  0.61873  0.43021  0.45803  1.0000
  C   C448      1.0  0.65632  0.28599  0.30545  1.0000
  H   H351      1.0  0.50559  0.27491  0.47390  1.0000
  C   C449      1.0  0.57064  0.30483  0.48678  1.0000
  H   H352      1.0  0.53327  0.31686  0.11903  1.0000
  C   C450      1.0  0.66171  0.24024  0.46939  1.0000
  H   H353      1.0  0.62221  0.49458  0.40697  1.0000
  C   C451      1.0  0.51801  0.23787  0.38320  1.0000
  H   H354      1.0  0.54074  0.34350  0.40170  1.0000
  C   C452      1.0  0.56042  0.35935  0.40209  1.0000
  H   H355      1.0  0.46330  0.41783  0.36588  1.0000
  H   H356      1.0  0.57287  0.42179  0.33309  1.0000
  C   C453      1.0  0.62397  0.39535  0.04226  1.0000
  H   H357      1.0  0.39743  0.46324  0.23547  1.0000
  H   H358      1.0  0.52089  0.42866  0.45743  1.0000
  H   H359      1.0  0.62366  0.38928  0.09319  1.0000
  C   C454      1.0  0.60647  0.37485  0.40222  1.0000
  C   C455      1.0  0.58121  0.35433  0.40268  1.0000
  C   C456      1.0  0.40570  0.48946  0.41642  1.0000
  C   C457      1.0  0.61090  0.40037  0.40136  1.0000
  H   H360      1.0  0.62568  0.34664  0.04781  1.0000
  C   C458      1.0  0.59311  0.43562  0.33091  1.0000
  C   C459      1.0  0.43280  0.42319  0.38571  1.0000
  C   C460      1.0  0.45987  0.23944  0.43857  1.0000
  H   H361      1.0  0.63949  0.10840  0.27248  1.0000
  H   H362      1.0  0.59678  0.29609  0.46073  1.0000
  C   C461      1.0  0.52083  0.21186  0.33858  1.0000
  C   C462      1.0  0.63457  0.40108  0.07368  1.0000
  H   H363      1.0  0.65795  0.48149  0.15872  1.0000
  C   C463      1.0  0.64425  0.36353  0.31023  1.0000
  C   C464      1.0  0.47094  0.48751  0.43320  1.0000
  C   C465      1.0  0.64556  0.47001  0.32404  1.0000
  H   H364      1.0  0.56986  0.11010  0.48962  1.0000
  H   H365      1.0  0.46493  0.28883  0.37533  1.0000
  C   C466      1.0  0.64481  0.38757  0.31090  1.0000
  C   C467      1.0  0.62247  0.38920  0.31683  1.0000
  C   C468      1.0  0.59932  0.36685  0.32211  1.0000
  C   C469      1.0  0.59866  0.34285  0.32213  1.0000
  C   C470      1.0  0.62106  0.34116  0.31644  1.0000
  Fe  Fe35      1.0  0.64550  0.22907  0.18646  1.0000
  C   C471      1.0  0.49414  0.21058  0.44334  1.0000
  C   C472      1.0  0.47441  0.16470  0.47728  1.0000
  C   C473      1.0  0.50745  0.20909  0.47100  1.0000
  H   H366      1.0  0.65916  0.32677  0.02972  1.0000
  C   C474      1.0  0.61586  0.25787  0.00998  1.0000
  C   C475      1.0  0.58478  0.18386  0.49072  1.0000
  C   C476      1.0  0.60304  0.44181  0.30025  1.0000
  H   H367      1.0  0.64691  0.37138  0.18751  1.0000
  C   C477      1.0  0.62676  0.45076  0.45486  1.0000
  H   H368      1.0  0.57737  0.41826  0.49942  1.0000
  H   H369      1.0  0.62296  0.40774  0.31591  1.0000
  H   H370      1.0  0.58182  0.36812  0.32561  1.0000
  H   H371      1.0  0.49906  0.19584  0.38035  1.0000
  H   H372      1.0  0.61991  0.32227  0.31553  1.0000
  S   S70       1.0  0.66046  0.16680  0.47657  1.0000
  C   C478      1.0  0.64240  0.29070  0.09350  1.0000
  C   C479      1.0  0.65766  0.36669  0.23572  1.0000
  H   H373      1.0  0.65541  0.23643  0.49393  1.0000
  H   H374      1.0  0.58055  0.32547  0.32544  1.0000
  Fe  Fe36      1.0  0.43944  0.31837  0.48201  1.0000
  C   C480      1.0  0.65114  0.11044  0.29395  1.0000
  H   H375      1.0  0.57215  0.19989  0.28835  1.0000
  C   C481      1.0  0.63567  0.46409  0.35483  1.0000
  C   C482      1.0  0.53167  0.26160  0.03652  1.0000
  C   C483      1.0  0.66212  0.29146  0.07481  1.0000
  P   P16       1.0  0.53715  0.28126  0.07286  1.0000
  C   C484      1.0  0.57114  0.30187  0.08237  1.0000
  C   C485      1.0  0.52485  0.30383  0.06898  1.0000
  C   C486      1.0  0.51623  0.30797  0.03903  1.0000
  C   C487      1.0  0.50786  0.32639  0.03656  1.0000
  C   C488      1.0  0.52587  0.31910  0.09600  1.0000
  C   C489      1.0  0.58086  0.30530  0.11426  1.0000
  C   C490      1.0  0.60652  0.32355  0.12220  1.0000
  C   C491      1.0  0.62284  0.33818  0.09819  1.0000
  C   C492      1.0  0.61332  0.33482  0.06631  1.0000
  C   C493      1.0  0.58750  0.31700  0.05851  1.0000
  C   C494      1.0  0.52214  0.25870  0.10423  1.0000
  C   C495      1.0  0.50083  0.25736  0.12014  1.0000
  C   C496      1.0  0.48902  0.23917  0.14371  1.0000
  C   C497      1.0  0.49816  0.22200  0.15124  1.0000
  C   C498      1.0  0.51917  0.22306  0.13528  1.0000
  C   C499      1.0  0.53112  0.24130  0.11183  1.0000
  C   C500      1.0  0.46099  0.16602  0.44992  1.0000
  C   C501      1.0  0.42134  0.45199  0.35734  1.0000
  H   H376      1.0  0.52515  0.22560  0.48014  1.0000
  H   H377      1.0  0.44803  0.45430  0.46107  1.0000
  C   C502      1.0  0.57937  0.41425  0.01164  1.0000
  H   H378      1.0  0.63245  0.20387  0.34672  1.0000
  H   H379      1.0  0.56843  0.29455  0.13326  1.0000
  H   H380      1.0  0.61347  0.32657  0.14717  1.0000
  C   C503      1.0  0.64359  0.23445  0.44407  1.0000
  H   H381      1.0  0.63683  0.46350  0.27285  1.0000
  H   H382      1.0  0.58009  0.31537  0.03405  1.0000
  H   H383      1.0  0.49320  0.27021  0.11452  1.0000
  H   H384      1.0  0.47285  0.23848  0.15626  1.0000
  H   H385      1.0  0.48913  0.20800  0.16959  1.0000
  H   H386      1.0  0.52632  0.20980  0.14116  1.0000
  H   H387      1.0  0.54737  0.24174  0.09968  1.0000
  C   C504      1.0  0.46619  0.10871  0.43499  1.0000
  C   C505      1.0  0.45095  0.10785  0.40833  1.0000
  C   C506      1.0  0.46228  0.11659  0.37881  1.0000
  C   C507      1.0  0.48884  0.12604  0.37586  1.0000
  C   C508      1.0  0.50435  0.12706  0.40260  1.0000
  C   C509      1.0  0.49271  0.11825  0.43214  1.0000
  P   P17       1.0  0.53850  0.13790  0.39872  1.0000
  C   C510      1.0  0.54993  0.15763  0.36383  1.0000
  C   C511      1.0  0.55697  0.15708  0.43399  1.0000
  C   C512      1.0  0.58154  0.15989  0.44106  1.0000
  C   C513      1.0  0.59529  0.17312  0.46938  1.0000
  H   H388      1.0  0.42550  0.24035  0.45305  1.0000
  C   C514      1.0  0.66390  0.28515  0.33724  1.0000
  C   C515      1.0  0.54709  0.16907  0.45478  1.0000
  C   C516      1.0  0.56251  0.18479  0.36735  1.0000
  C   C517      1.0  0.57055  0.19995  0.34022  1.0000
  H   H389      1.0  0.60793  0.03290  0.49547  1.0000
  C   C518      1.0  0.55340  0.16116  0.30569  1.0000
  C   C519      1.0  0.54553  0.14594  0.33275  1.0000
  C   C520      1.0  0.54369  0.11005  0.39556  1.0000
  C   C521      1.0  0.56393  0.11103  0.37754  1.0000
  C   C522      1.0  0.56934  0.09040  0.37729  1.0000
  C   C523      1.0  0.55498  0.06885  0.39556  1.0000
  C   C524      1.0  0.53480  0.06766  0.41357  1.0000
  C   C525      1.0  0.52903  0.08804  0.41338  1.0000
  H   H390      1.0  0.45753  0.10196  0.45801  1.0000
  H   H391      1.0  0.43035  0.10034  0.41057  1.0000
  H   H392      1.0  0.45042  0.11578  0.35807  1.0000
  H   H393      1.0  0.49703  0.13232  0.35263  1.0000
  H   H394      1.0  0.50412  0.11868  0.45310  1.0000
  H   H395      1.0  0.58997  0.15149  0.42506  1.0000
  H   H396      1.0  0.54001  0.27936  0.37782  1.0000
  H   H397      1.0  0.55640  0.27588  0.32460  1.0000
  C   C526      1.0  0.64653  0.29573  0.12680  1.0000
  H   H398      1.0  0.52855  0.16790  0.44954  1.0000
  H   H399      1.0  0.56611  0.19433  0.39096  1.0000
  H   H400      1.0  0.58996  0.37987  0.46697  1.0000
  C   C527      1.0  0.62855  0.48698  0.42661  1.0000
  S   S71       1.0  0.66641  0.12566  0.42814  1.0000
  H   H401      1.0  0.53601  0.12505  0.32936  1.0000
  H   H402      1.0  0.57598  0.12801  0.36434  1.0000
  H   H403      1.0  0.58515  0.09138  0.36362  1.0000
  H   H404      1.0  0.55984  0.05331  0.39621  1.0000
  H   H405      1.0  0.52395  0.05114  0.42815  1.0000
  H   H406      1.0  0.51349  0.08668  0.42775  1.0000
  H   H407      1.0  0.63118  0.11296  0.14972  1.0000
  C   C528      1.0  0.49752  0.18624  0.48789  1.0000
  C   C529      1.0  0.52280  0.44608  0.41194  1.0000
  H   H408      1.0  0.40296  0.44111  0.50052  1.0000
  C   C530      1.0  0.50691  0.24863  0.02154  1.0000
  H   H409      1.0  0.64268  0.35244  0.10441  1.0000
  C   C531      1.0  0.64510  0.46803  0.47775  1.0000
  H   H410      1.0  0.64767  0.26857  0.28994  1.0000
  H   H411      1.0  0.55047  0.15206  0.28178  1.0000
  C   C532      1.0  0.55331  0.43251  0.43062  1.0000
  H   H412      1.0  0.50139  0.32967  0.01340  1.0000
  H   H413      1.0  0.64421  0.37196  0.24628  1.0000
  H   H414      1.0  0.65890  0.28753  0.04908  1.0000
  C   C533      1.0  0.53649  0.45477  0.38382  1.0000
  H   H415      1.0  0.33989  0.41106  0.43055  1.0000
  C   C534      1.0  0.48035  0.24872  0.41727  1.0000
  C   C535      1.0  0.65906  0.36629  0.20212  1.0000
  H   H416      1.0  0.55966  0.42394  0.44895  1.0000
  H   H417      1.0  0.42955  0.41004  0.40502  1.0000
  C   C536      1.0  0.41767  0.43540  0.38269  1.0000
  C   C537      1.0  0.53449  0.26038  0.36717  1.0000
  C   C538      1.0  0.57523  0.18630  0.00646  1.0000
  C   C539      1.0  0.56707  0.44097  0.40237  1.0000
  H   H418      1.0  0.64570  0.15522  0.24009  1.0000
  C   C540      1.0  0.56082  0.18209  0.48326  1.0000
  C   C541      1.0  0.53151  0.26639  0.44639  1.0000
  H   H419      1.0  0.61376  0.17427  0.47531  1.0000
  C   C542      1.0  0.46330  0.27463  0.39257  1.0000
  C   C543      1.0  0.65925  0.30917  0.29359  1.0000
  H   H420      1.0  0.56912  0.45980  0.35740  1.0000
  C   C544      1.0  0.56577  0.18814  0.30939  1.0000
  S   S72       1.0  0.65513  0.42778  0.24934  1.0000
  H   H421      1.0  0.65260  0.20867  0.02498  1.0000
  H   H422      1.0  0.51631  0.29743  0.01744  1.0000
  H   H423      1.0  0.50556  0.44775  0.41558  1.0000
  H   H424      1.0  0.36974  0.41136  0.35124  1.0000
  C   C545      1.0  0.65112  0.14474  0.22293  1.0000
  C   C546      1.0  0.36851  0.44708  0.36089  1.0000
  H   H425      1.0  0.62051  0.07698  0.31502  1.0000
  H   H426      1.0  0.61964  0.13730  0.18970  1.0000
  C   C547      1.0  0.55734  0.27217  0.44338  1.0000
  H   H427      1.0  0.52983  0.46313  0.36547  1.0000
  S   S73       1.0  0.36317  0.45301  0.48069  1.0000
  H   H428      1.0  0.66668  0.24604  0.06318  1.0000
  H   H429      1.0  0.44274  0.14947  0.44221  1.0000
  C   C548      1.0  0.53133  0.43512  0.43543  1.0000
  H   H430      1.0  0.51560  0.19307  0.32742  1.0000
  C   C549      1.0  0.55870  0.45251  0.37915  1.0000
  C   C550      1.0  0.63629  0.13458  0.19430  1.0000
  S   S74       1.0  0.64296  0.17478  0.39229  1.0000
  P   P18       1.0  0.50597  0.24043  0.42222  1.0000
  H   H431      1.0  0.64884  0.47240  0.37557  1.0000
  C   C551      1.0  0.46587  0.47249  0.46029  1.0000
  H   H432      1.0  0.62258  0.37096  0.40172  1.0000
  C   C552      1.0  0.64027  0.09250  0.31803  1.0000
  H   H433      1.0  0.45985  0.18975  0.41224  1.0000
  C   C553      1.0  0.66830  0.34620  0.02126  1.0000
  C   C554      1.0  0.65865  0.42280  0.08027  1.0000
  H   H434      1.0  0.65113  0.46074  0.49805  1.0000
  C   C555      1.0  0.59857  0.01643  0.47863  1.0000
  C   C556      1.0  0.44123  0.45715  0.33600  1.0000
  C   C557      1.0  0.51754  0.33750  0.09352  1.0000
  H   H435      1.0  0.54835  0.38815  0.40008  1.0000
  H   H436      1.0  0.50236  0.35566  0.06188  1.0000
  C   C558      1.0  0.56481  0.38485  0.40138  1.0000
  H   H437      1.0  0.58043  0.22088  0.34293  1.0000
  C   C559      1.0  0.59011  0.40559  0.40152  1.0000
  Fe  Fe37      1.0  0.47219  0.37710  0.49284  1.0000
  C   C560      1.0  0.53706  0.23433  0.32280  1.0000
  H   H438      1.0  0.45702  0.48106  0.41314  1.0000
  C   C561      1.0  0.55136  0.25745  0.02432  1.0000
  H   H439      1.0  0.52375  0.09783  0.48346  1.0000
  H   H440      1.0  0.55163  0.02368  0.46679  1.0000
  C   C562      1.0  0.55650  0.19286  0.01577  1.0000
  P   P19       1.0  0.59616  0.43847  0.39782  1.0000
  H   H441      1.0  0.35078  0.37670  0.41362  1.0000
  H   H442      1.0  0.44527  0.47072  0.31709  1.0000
  C   C563      1.0  0.59955  0.43903  0.02001  1.0000
  C   C564      1.0  0.64277  0.12083  0.17188  1.0000
  H   H443      1.0  0.55080  0.37817  0.02979  1.0000
  H   H444      1.0  0.63052  0.41605  0.40007  1.0000
  H   H445      1.0  0.57768  0.33454  0.40294  1.0000
  H   H446      1.0  0.41402  0.40702  0.48347  1.0000
  H   H447      1.0  0.60485  0.37910  0.03756  1.0000
  H   H448      1.0  0.49759  0.27451  0.37798  1.0000
  H   H449      1.0  0.38884  0.47134  0.42141  1.0000
  H   H450      1.0  0.39987  0.44744  0.28924  1.0000
  H   H451      1.0  0.35985  0.47844  0.36918  1.0000
  C   C565      1.0  0.39884  0.47477  0.25693  1.0000
  C   C566      1.0  0.55809  0.49867  0.48232  1.0000
  H   H452      1.0  0.47121  0.44836  0.32209  1.0000
  C   C567      1.0  0.55372  0.36171  0.49052  1.0000
  C   C568      1.0  0.35221  0.45766  0.36727  1.0000
  H   H453      1.0  0.66118  0.26701  0.34628  1.0000
  C   C569      1.0  0.44113  0.24737  0.43641  1.0000
  H   H454      1.0  0.56994  0.26548  0.03688  1.0000
  C   C570      1.0  0.45626  0.44481  0.33902  1.0000
  C   C571      1.0  0.45192  0.42769  0.36374  1.0000
  H   H455      1.0  0.54438  0.23303  0.29943  1.0000
  H   H456      1.0  0.66312  0.43355  0.18096  1.0000
  C   C572      1.0  0.57687  0.29157  0.46327  1.0000
  H   H457      1.0  0.66597  0.48285  0.32118  1.0000
  C   C573      1.0  0.57735  0.49172  0.47792  1.0000
  Fe  Fe38      1.0  0.62759  0.13233  0.49729  1.0000
  H   H458      1.0  0.52971  0.39996  0.49288  1.0000
  H   H459      1.0  0.66897  0.10635  0.16081  1.0000
  H   H460      1.0  0.65975  0.46904  0.10240  1.0000
  H   H461      1.0  0.54595  0.49752  0.46180  1.0000
  H   H462      1.0  0.66630  0.42708  0.10490  1.0000
  H   H463      1.0  0.66157  0.47932  0.03439  1.0000
  C   C574      1.0  0.39847  0.49814  0.25408  1.0000
  C   C575      1.0  0.66955  0.22683  0.02021  1.0000
  C   C576      1.0  0.66174  0.43279  0.02375  1.0000
  H   H464      1.0  0.59000  0.06404  0.48451  1.0000
  H   H465      1.0  0.60767  0.48682  0.50097  1.0000
  H   H466      1.0  0.48465  0.03193  0.49758  1.0000
  C   C577      1.0  0.57286  0.05667  0.49858  1.0000
  H   H467      1.0  0.55253  0.19009  0.50008  1.0000
  S   S75       1.0  0.43069  0.34930  0.50190  1.0000
  Fe  Fe39      1.0  0.65299  0.43499  0.91411  1.0000
  Fe  Fe40      1.0  0.45799  0.16551  0.57759  1.0000
  S   S76       1.0  0.49638  0.16624  0.58181  1.0000
  S   S77       1.0  0.46845  0.20583  0.55828  1.0000
  Fe  Fe41      1.0  0.43112  0.10905  0.60273  1.0000
  S   S78       1.0  0.46827  0.10792  0.60870  1.0000
  S   S79       1.0  0.39409  0.07317  0.61705  1.0000
  Fe  Fe42      1.0  0.48458  0.14845  0.62988  1.0000
  S   S80       1.0  0.51680  0.16695  0.66862  1.0000
  Fe  Fe43      1.0  0.47646  0.12596  0.56068  1.0000
  C   C578      1.0  0.62000  0.28235  0.00162  1.0000
  S   S81       1.0  0.44698  0.14921  0.62732  1.0000
  S   S82       1.0  0.43861  0.12547  0.55301  1.0000
  S   S83       1.0  0.61426  0.45110  0.54812  1.0000
  S   S84       1.0  0.61676  0.49290  0.62416  1.0000
  C   C579      1.0  0.40586  0.10102  0.75775  1.0000
  S   S85       1.0  0.60903  0.14130  0.53909  1.0000
  Fe  Fe44      1.0  0.59321  0.22727  0.86298  1.0000
  S   S86       1.0  0.58794  0.23889  0.91281  1.0000
  S   S87       1.0  0.62885  0.25134  0.83584  1.0000
  Fe  Fe45      1.0  0.53840  0.18263  0.85511  1.0000
  S   S88       1.0  0.52851  0.19001  0.90514  1.0000
  S   S89       1.0  0.50757  0.15318  0.82012  1.0000
  Fe  Fe46      1.0  0.54955  0.23191  0.89257  1.0000
  S   S90       1.0  0.53481  0.25993  0.90334  1.0000
  Fe  Fe47      1.0  0.56780  0.19618  0.92138  1.0000
  S   S91       1.0  0.57982  0.18120  0.96527  1.0000
  S   S92       1.0  0.55649  0.22389  0.84197  1.0000
  S   S93       1.0  0.57594  0.18498  0.87208  1.0000
  Fe  Fe48      1.0  0.60853  0.39880  0.86859  1.0000
  S   S94       1.0  0.61838  0.39642  0.92021  1.0000
  S   S95       1.0  0.59558  0.36528  0.83278  1.0000
  Fe  Fe49      1.0  0.62265  0.45535  0.87596  1.0000
  S   S96       1.0  0.63365  0.45815  0.92897  1.0000
  H   H468      1.0  0.55612  0.45343  0.98311  1.0000
  C   C580      1.0  0.66519  0.25263  0.70497  1.0000
  Fe  Fe50      1.0  0.59809  0.41929  0.93146  1.0000
  S   S97       1.0  0.56906  0.40425  0.97094  1.0000
  C   C581      1.0  0.64858  0.32949  0.92209  1.0000
  S   S98       1.0  0.58529  0.41846  0.87968  1.0000
  P   P20       1.0  0.63941  0.32553  0.96355  1.0000
  C   C582      1.0  0.55129  0.28903  0.88304  1.0000
  C   C583      1.0  0.56635  0.29075  0.85675  1.0000
  C   C584      1.0  0.57950  0.31407  0.84098  1.0000
  C   C585      1.0  0.57866  0.33612  0.85234  1.0000
  C   C586      1.0  0.56393  0.33462  0.87884  1.0000
  C   C587      1.0  0.54947  0.31086  0.89337  1.0000
  H   H469      1.0  0.56788  0.27420  0.84835  1.0000
  H   H470      1.0  0.59085  0.31516  0.82043  1.0000
  H   H471      1.0  0.56343  0.35172  0.88783  1.0000
  H   H472      1.0  0.53733  0.30956  0.91305  1.0000
  C   C588      1.0  0.46446  0.04521  0.58624  1.0000
  H   H473      1.0  0.46783  0.46264  0.91531  1.0000
  H   H474      1.0  0.55373  0.23371  0.76594  1.0000
  C   C589      1.0  0.62950  0.48393  0.80498  1.0000
  C   C590      1.0  0.56357  0.48487  0.66190  1.0000
  H   H475      1.0  0.62270  0.30674  0.84642  1.0000
  C   C591      1.0  0.62775  0.24607  0.99303  1.0000
  C   C592      1.0  0.47040  0.01954  0.62705  1.0000
  C   C593      1.0  0.35403  0.02471  0.62557  1.0000
  C   C594      1.0  0.37868  0.03845  0.61317  1.0000
  C   C595      1.0  0.48823  0.08861  0.68165  1.0000
  C   C596      1.0  0.49316  0.06856  0.86106  1.0000
  C   C597      1.0  0.39183  0.01111  0.77475  1.0000
  C   C598      1.0  0.52377  0.11899  0.52642  1.0000
  C   C599      1.0  0.53841  0.13404  0.55337  1.0000
  C   C600      1.0  0.56452  0.14057  0.55724  1.0000
  C   C601      1.0  0.57610  0.13225  0.53407  1.0000
  H   H476      1.0  0.42775  0.38327  0.88016  1.0000
  H   H477      1.0  0.48261  0.02830  0.85471  1.0000
  H   H478      1.0  0.52966  0.14068  0.57124  1.0000
  H   H479      1.0  0.57583  0.15229  0.57806  1.0000
  C   C602      1.0  0.62302  0.45925  0.79251  1.0000
  C   C603      1.0  0.51304  0.16408  0.71076  1.0000
  C   C604      1.0  0.53466  0.17888  0.73152  1.0000
  C   C605      1.0  0.53307  0.17614  0.76510  1.0000
  C   C606      1.0  0.50985  0.15837  0.77822  1.0000
  C   C607      1.0  0.48808  0.14393  0.75755  1.0000
  C   C608      1.0  0.48959  0.14686  0.72394  1.0000
  H   H480      1.0  0.55284  0.19230  0.72153  1.0000
  H   H481      1.0  0.54995  0.18732  0.78078  1.0000
  H   H482      1.0  0.47003  0.13027  0.76755  1.0000
  H   H483      1.0  0.47283  0.13533  0.70820  1.0000
  C   C609      1.0  0.52699  0.41943  0.53590  1.0000
  C   C610      1.0  0.54052  0.43544  0.56278  1.0000
  C   C611      1.0  0.56717  0.44487  0.56701  1.0000
  C   C612      1.0  0.58061  0.43887  0.54406  1.0000
  C   C613      1.0  0.58573  0.34952  0.97742  1.0000
  H   H484      1.0  0.60727  0.20698  0.73150  1.0000
  H   H485      1.0  0.53042  0.44056  0.58043  1.0000
  H   H486      1.0  0.57715  0.45684  0.58795  1.0000
  C   C614      1.0  0.62741  0.22184  0.73223  1.0000
  H   H487      1.0  0.54743  0.46986  0.74506  1.0000
  H   H488      1.0  0.47923  0.46888  0.50713  1.0000
  C   C615      1.0  0.47232  0.24995  0.53120  1.0000
  C   C616      1.0  0.45537  0.22540  0.54285  1.0000
  C   C617      1.0  0.42891  0.21747  0.54216  1.0000
  H   H489      1.0  0.60817  0.49871  0.91101  1.0000
  S   S99       1.0  0.62649  0.48878  0.84644  1.0000
  H   H490      1.0  0.50994  0.03452  0.64499  1.0000
  C   C618      1.0  0.44791  0.05921  0.70541  1.0000
  C   C619      1.0  0.41741  0.02146  0.76503  1.0000
  H   H491      1.0  0.66817  0.33437  0.83279  1.0000
  C   C620      1.0  0.55089  0.06038  0.54516  1.0000
  C   C621      1.0  0.50670  0.27259  0.60767  1.0000
  C   C622      1.0  0.52274  0.26442  0.59311  1.0000
  C   C623      1.0  0.54504  0.28227  0.57842  1.0000
  C   C624      1.0  0.55092  0.30821  0.57741  1.0000
  C   C625      1.0  0.53424  0.31637  0.59062  1.0000
  C   C626      1.0  0.51259  0.29855  0.60688  1.0000
  P   P21       1.0  0.54072  0.34941  0.58665  1.0000
  C   C627      1.0  0.56102  0.36968  0.62020  1.0000
  C   C628      1.0  0.55646  0.36034  0.54892  1.0000
  S   S100      1.0  0.49124  0.11096  0.52060  1.0000
  H   H492      1.0  0.57550  0.47357  0.86852  1.0000
  C   C629      1.0  0.57077  0.46889  0.89328  1.0000
  H   H493      1.0  0.50570  0.07188  0.88212  1.0000
  C   C630      1.0  0.56004  0.45808  0.95803  1.0000
  C   C631      1.0  0.56184  0.35889  0.64969  1.0000
  C   C632      1.0  0.57708  0.37485  0.67581  1.0000
  C   C633      1.0  0.59145  0.40162  0.67270  1.0000
  C   C634      1.0  0.59085  0.41246  0.64341  1.0000
  C   C635      1.0  0.57568  0.39660  0.61728  1.0000
  C   C636      1.0  0.51073  0.35066  0.58486  1.0000
  C   C637      1.0  0.48833  0.33015  0.57002  1.0000
  C   C638      1.0  0.46529  0.33129  0.56816  1.0000
  C   C639      1.0  0.46442  0.35299  0.58078  1.0000
  C   C640      1.0  0.48656  0.37351  0.59546  1.0000
  C   C641      1.0  0.50967  0.37245  0.59738  1.0000
  H   H494      1.0  0.48926  0.25853  0.61871  1.0000
  H   H495      1.0  0.51763  0.24412  0.59274  1.0000
  H   H496      1.0  0.55745  0.27582  0.56729  1.0000
  H   H497      1.0  0.56817  0.32167  0.56569  1.0000
  H   H498      1.0  0.49976  0.30443  0.61806  1.0000
  H   H499      1.0  0.60210  0.50186  0.55485  1.0000
  H   H500      1.0  0.54400  0.28549  0.96476  1.0000
  C   C642      1.0  0.63568  0.29486  0.97585  1.0000
  H   H501      1.0  0.52276  0.35108  0.91326  1.0000
  H   H502      1.0  0.59545  0.37724  0.56970  1.0000
  H   H503      1.0  0.55070  0.33824  0.65264  1.0000
  H   H504      1.0  0.57774  0.36651  0.69852  1.0000
  H   H505      1.0  0.60311  0.41408  0.69293  1.0000
  H   H506      1.0  0.60222  0.43324  0.64095  1.0000
  H   H507      1.0  0.57533  0.40538  0.59483  1.0000
  H   H508      1.0  0.48864  0.31337  0.55941  1.0000
  H   H509      1.0  0.44817  0.31552  0.55637  1.0000
  H   H510      1.0  0.44675  0.35419  0.57837  1.0000
  H   H511      1.0  0.48608  0.39075  0.60404  1.0000
  H   H512      1.0  0.52669  0.38899  0.60789  1.0000
  H   H513      1.0  0.59743  0.24109  0.77851  1.0000
  H   H514      1.0  0.42747  0.04558  0.70239  1.0000
  C   C643      1.0  0.58030  0.48895  0.68837  1.0000
  C   C644      1.0  0.63702  0.31782  0.86530  1.0000
  H   H515      1.0  0.40851  0.03447  0.58910  1.0000
  C   C645      1.0  0.44562  0.40125  0.88450  1.0000
  H   H516      1.0  0.48355  0.22396  0.98127  1.0000
  H   H517      1.0  0.64856  0.38958  0.81212  1.0000
  C   C646      1.0  0.46303  0.26631  0.51915  1.0000
  C   C647      1.0  0.49233  0.42604  0.88184  1.0000
  C   C648      1.0  0.46909  0.40288  0.87591  1.0000
  P   P22       1.0  0.52271  0.42873  0.87013  1.0000
  C   C649      1.0  0.54674  0.44841  0.90121  1.0000
  C   C650      1.0  0.51936  0.39651  0.86723  1.0000
  C   C651      1.0  0.52243  0.38463  0.89466  1.0000
  H   H518      1.0  0.48937  0.44433  0.59334  1.0000
  C   C652      1.0  0.41427  0.07532  0.80841  1.0000
  C   C653      1.0  0.51019  0.35780  0.83482  1.0000
  C   C654      1.0  0.51288  0.38269  0.83731  1.0000
  H   H519      1.0  0.62284  0.37474  0.76068  1.0000
  H   H520      1.0  0.59497  0.19296  0.51340  1.0000
  H   H521      1.0  0.49912  0.09755  0.66063  1.0000
  C   C655      1.0  0.53113  0.44296  0.83108  1.0000
  C   C656      1.0  0.51613  0.45234  0.81556  1.0000
  C   C657      1.0  0.52201  0.46201  0.78465  1.0000
  C   C658      1.0  0.54289  0.46243  0.76902  1.0000
  C   C659      1.0  0.55807  0.45342  0.78439  1.0000
  C   C660      1.0  0.55218  0.44362  0.81521  1.0000
  H   H522      1.0  0.43411  0.00900  0.60147  1.0000
  H   H523      1.0  0.50000  0.10795  0.86134  1.0000
  C   C661      1.0  0.58415  0.47787  0.94983  1.0000
  C   C662      1.0  0.45438  0.02314  0.60467  1.0000
  H   H524      1.0  0.46899  0.38603  0.86481  1.0000
  H   H525      1.0  0.52761  0.39454  0.91805  1.0000
  C   C663      1.0  0.62571  0.45538  0.75968  1.0000
  C   C664      1.0  0.46890  0.01395  0.50537  1.0000
  H   H526      1.0  0.51990  0.11188  0.71511  1.0000
  H   H527      1.0  0.50993  0.39107  0.81582  1.0000
  C   C665      1.0  0.44517  0.42274  0.89876  1.0000
  C   C666      1.0  0.45958  0.06715  0.73641  1.0000
  H   H528      1.0  0.49972  0.45201  0.82701  1.0000
  C   C667      1.0  0.49504  0.46449  0.58974  1.0000
  H   H529      1.0  0.48667  0.03868  0.69273  1.0000
  H   H530      1.0  0.57447  0.45406  0.77243  1.0000
  H   H531      1.0  0.56412  0.43658  0.82665  1.0000
  C   C668      1.0  0.49169  0.44766  0.89577  1.0000
  C   C669      1.0  0.58941  0.48345  0.91748  1.0000
  C   C670      1.0  0.66279  0.33303  0.85766  1.0000
  H   H532      1.0  0.42698  0.42143  0.90550  1.0000
  C   C671      1.0  0.60911  0.32580  0.96734  1.0000
  C   C672      1.0  0.46819  0.44595  0.90431  1.0000
  H   H533      1.0  0.63213  0.22105  0.78368  1.0000
  H   H534      1.0  0.58473  0.28470  0.95643  1.0000
  C   C673      1.0  0.50775  0.47608  0.56189  1.0000
  H   H535      1.0  0.51030  0.46909  0.77272  1.0000
  C   C674      1.0  0.52866  0.02379  0.50689  1.0000
  C   C675      1.0  0.40153  0.08973  0.81374  1.0000
  C   C676      1.0  0.62983  0.31625  0.89735  1.0000
  C   C677      1.0  0.56700  0.42267  0.51733  1.0000
  H   H536      1.0  0.52277  0.42832  0.94086  1.0000
  C   C678      1.0  0.60899  0.34917  0.97385  1.0000
  C   C679      1.0  0.64797  0.28301  0.95939  1.0000
  C   C680      1.0  0.48575  0.08603  0.73971  1.0000
  H   H537      1.0  0.38759  0.11387  0.79259  1.0000
  H   H538      1.0  0.47134  0.10059  0.81383  1.0000
  H   H539      1.0  0.45282  0.06435  0.65434  1.0000
  C   C681      1.0  0.51464  0.50194  0.55630  1.0000
  H   H540      1.0  0.34523  0.03523  0.63656  1.0000
  C   C682      1.0  0.46219  0.06991  0.67815  1.0000
  C   C683      1.0  0.63924  0.23337  0.70392  1.0000
  H   H541      1.0  0.52086  0.34534  0.52007  1.0000
  H   H542      1.0  0.45198  0.04841  0.56964  1.0000
  C   C684      1.0  0.54130  0.44361  0.93390  1.0000
  C   C685      1.0  0.66031  0.24977  0.88449  1.0000
  H   H543      1.0  0.60974  0.30423  0.90277  1.0000
  H   H544      1.0  0.62820  0.22742  0.68119  1.0000
  C   C686      1.0  0.54015  0.41260  0.51347  1.0000
  C   C687      1.0  0.54169  0.35494  0.52002  1.0000
  C   C688      1.0  0.44568  0.01326  0.51311  1.0000
  H   H545      1.0  0.62678  0.36725  0.97563  1.0000
  H   H546      1.0  0.61571  0.44300  0.80808  1.0000
  C   C689      1.0  0.59554  0.37982  0.51834  1.0000
  H   H547      1.0  0.45420  0.02071  0.80692  1.0000
  H   H548      1.0  0.41740  0.06551  0.82832  1.0000
  H   H549      1.0  0.49163  0.20424  0.63018  1.0000
  C   C690      1.0  0.46403  0.03985  0.81833  1.0000
  C   C691      1.0  0.48989  0.08884  0.84949  1.0000
  H   H550      1.0  0.51191  0.32722  0.86019  1.0000
  C   C692      1.0  0.48020  0.04406  0.84553  1.0000
  C   C693      1.0  0.52880  0.03734  0.53532  1.0000
  P   P23       1.0  0.44005  0.05556  0.77133  1.0000
  H   H551      1.0  0.50563  0.34742  0.81164  1.0000
  C   C694      1.0  0.64394  0.25868  0.96805  1.0000
  C   C695      1.0  0.58542  0.30285  0.96334  1.0000
  H   H552      1.0  0.42516  0.08601  0.72839  1.0000
  C   C696      1.0  0.41863  0.08666  0.75234  1.0000
  H   H553      1.0  0.47944  0.46970  0.63398  1.0000
  H   H554      1.0  0.62045  0.43614  0.75037  1.0000
  H   H555      1.0  0.44522  0.01234  0.74385  1.0000
  H   H556      1.0  0.50736  0.18531  0.50974  1.0000
  H   H557      1.0  0.51934  0.21935  0.95796  1.0000
  C   C697      1.0  0.51963  0.35973  0.89208  1.0000
  S   S101      1.0  0.64503  0.43551  0.86119  1.0000
  H   H558      1.0  0.59882  0.48868  0.96854  1.0000
  H   H559      1.0  0.59028  0.08736  0.53500  1.0000
  C   C698      1.0  0.51359  0.34635  0.86218  1.0000
  C   C699      1.0  0.65472  0.40172  0.79143  1.0000
  C   C700      1.0  0.56130  0.11691  0.50739  1.0000
  H   H560      1.0  0.64413  0.23152  0.89068  1.0000
  C   C701      1.0  0.64143  0.22975  0.76165  1.0000
  C   C702      1.0  0.49066  0.06342  0.58931  1.0000
  C   C703      1.0  0.50689  0.05954  0.61070  1.0000
  H   H561      1.0  0.44372  0.03055  0.51137  1.0000
  C   C704      1.0  0.65773  0.26332  0.85882  1.0000
  C   C705      1.0  0.64029  0.39335  0.76236  1.0000
  H   H562      1.0  0.63673  0.40303  0.71349  1.0000
  C   C706      1.0  0.56237  0.32657  0.97468  1.0000
  H   H563      1.0  0.55108  0.07105  0.56683  1.0000
  H   H564      1.0  0.66022  0.29212  0.93943  1.0000
  Fe  Fe51      1.0  0.63626  0.48465  0.58400  1.0000
  H   H565      1.0  0.40268  0.11102  0.73808  1.0000
  C   C707      1.0  0.39736  0.10261  0.78843  1.0000
  H   H566      1.0  0.41554  0.19873  0.55092  1.0000
  C   C708      1.0  0.46064  0.06019  0.80655  1.0000
  C   C709      1.0  0.42308  0.07378  0.77769  1.0000
  C   C710      1.0  0.52264  0.23076  0.98015  1.0000
  C   C711      1.0  0.54699  0.24255  0.99581  1.0000
  C   C712      1.0  0.66323  0.35127  0.98983  1.0000
  H   H567      1.0  0.49833  0.08055  0.57509  1.0000
  H   H568      1.0  0.52720  0.07377  0.61309  1.0000
  C   C713      1.0  0.49693  0.03747  0.62909  1.0000
  C   C714      1.0  0.47364  0.08464  0.82247  1.0000
  H   H569      1.0  0.51209  0.02988  0.55020  1.0000
  H   H570      1.0  0.55668  0.46751  0.64652  1.0000
  C   C715      1.0  0.64805  0.40928  0.73595  1.0000
  H   H571      1.0  0.61643  0.39022  0.51785  1.0000
  C   C716      1.0  0.56222  0.30322  0.96786  1.0000
  H   H572      1.0  0.42515  0.01635  0.65868  1.0000
  H   H573      1.0  0.38483  0.02345  0.78513  1.0000
  C   C717      1.0  0.58353  0.37280  0.54783  1.0000
  C   C718      1.0  0.48332  0.21965  0.67313  1.0000
  C   C719      1.0  0.49964  0.21657  0.65178  1.0000
  C   C720      1.0  0.52627  0.22908  0.65849  1.0000
  C   C721      1.0  0.53669  0.24481  0.68650  1.0000
  C   C722      1.0  0.52039  0.24782  0.70824  1.0000
  C   C723      1.0  0.49361  0.23516  0.70132  1.0000
  P   P24       1.0  0.53333  0.26752  0.74499  1.0000
  C   C724      1.0  0.53244  0.29773  0.74206  1.0000
  C   C725      1.0  0.51437  0.24865  0.77772  1.0000
  C   C726      1.0  0.51131  0.26077  0.80558  1.0000
  C   C727      1.0  0.49804  0.24608  0.83151  1.0000
  C   C728      1.0  0.48796  0.21924  0.83008  1.0000
  C   C729      1.0  0.49064  0.20696  0.80240  1.0000
  C   C730      1.0  0.50373  0.22152  0.77632  1.0000
  C   C731      1.0  0.54549  0.31785  0.76547  1.0000
  C   C732      1.0  0.54498  0.34120  0.76343  1.0000
  C   C733      1.0  0.53138  0.34475  0.73792  1.0000
  C   C734      1.0  0.51845  0.32498  0.71431  1.0000
  C   C735      1.0  0.51902  0.30160  0.71626  1.0000
  C   C736      1.0  0.56591  0.27323  0.75307  1.0000
  C   C737      1.0  0.58751  0.29761  0.74900  1.0000
  C   C738      1.0  0.61245  0.30172  0.75648  1.0000
  C   C739      1.0  0.61605  0.28139  0.76725  1.0000
  C   C740      1.0  0.59474  0.25690  0.77011  1.0000
  C   C741      1.0  0.56984  0.25283  0.76315  1.0000
  H   H574      1.0  0.46264  0.20960  0.66798  1.0000
  H   H575      1.0  0.53869  0.22588  0.64234  1.0000
  H   H576      1.0  0.55734  0.25405  0.69134  1.0000
  H   H577      1.0  0.48069  0.23705  0.71792  1.0000
  H   H578      1.0  0.51966  0.28153  0.80802  1.0000
  H   H579      1.0  0.49639  0.25560  0.85330  1.0000
  H   H580      1.0  0.47856  0.20804  0.85070  1.0000
  H   H581      1.0  0.48317  0.18617  0.80153  1.0000
  H   H582      1.0  0.50615  0.21152  0.75551  1.0000
  H   H583      1.0  0.55628  0.31559  0.78529  1.0000
  H   H584      1.0  0.55525  0.35654  0.78175  1.0000
  H   H585      1.0  0.53104  0.36289  0.73634  1.0000
  H   H586      1.0  0.50798  0.32777  0.69443  1.0000
  H   H587      1.0  0.50899  0.28673  0.69755  1.0000
  H   H588      1.0  0.58526  0.31355  0.74034  1.0000
  H   H589      1.0  0.62900  0.32072  0.75429  1.0000
  H   H590      1.0  0.63524  0.28450  0.77369  1.0000
  C   C742      1.0  0.63511  0.47611  0.73895  1.0000
  C   C743      1.0  0.38960  0.02419  0.59893  1.0000
  H   H591      1.0  0.50936  0.46583  0.90010  1.0000
  C   C744      1.0  0.50001  0.09657  0.71239  1.0000
  S   S102      1.0  0.49387  0.40896  0.53058  1.0000
  H   H592      1.0  0.58646  0.47477  0.69355  1.0000
  S   S103      1.0  0.63835  0.46965  0.69811  1.0000
  H   H593      1.0  0.51188  0.46472  0.54442  1.0000
  C   C745      1.0  0.49774  0.02692  0.73591  1.0000
  H   H594      1.0  0.54441  0.32707  0.97678  1.0000
  H   H595      1.0  0.49508  0.09347  0.76321  1.0000
  H   H596      1.0  0.49279  0.25633  0.53144  1.0000
  C   C746      1.0  0.41966  0.23389  0.53032  1.0000
  H   H597      1.0  0.50721  0.04631  0.74697  1.0000
  C   C747      1.0  0.57302  0.06978  0.52707  1.0000
  C   C748      1.0  0.48939  0.47873  0.61247  1.0000
  S   S104      1.0  0.42339  0.27807  0.50384  1.0000
  C   C749      1.0  0.53515  0.11008  0.50378  1.0000
  C   C750      1.0  0.59314  0.49277  0.50407  1.0000
  H   H598      1.0  0.39504  0.09105  0.83757  1.0000
  C   C751      1.0  0.43657  0.25846  0.51881  1.0000
  H   H599      1.0  0.39915  0.22745  0.53006  1.0000
  H   H600      1.0  0.47627  0.28491  0.50998  1.0000
  H   H601      1.0  0.62920  0.40717  0.99304  1.0000
  C   C752      1.0  0.48634  0.02256  0.70490  1.0000
  H   H602      1.0  0.56238  0.23989  0.98584  1.0000
  H   H603      1.0  0.65281  0.24919  0.95490  1.0000
  H   H604      1.0  0.58575  0.36768  0.98177  1.0000
  S   S105      1.0  0.64917  0.10978  0.50222  1.0000
  C   C753      1.0  0.42566  0.00478  0.75150  1.0000
  C   C754      1.0  0.64155  0.50088  0.75124  1.0000
  H   H605      1.0  0.54362  0.19376  0.99764  1.0000
  Fe  Fe52      1.0  0.64902  0.49653  0.65633  1.0000
  C   C755      1.0  0.50252  0.23353  0.99321  1.0000
  C   C756      1.0  0.58991  0.50107  0.53455  1.0000
  H   H606      1.0  0.53979  0.30820  0.50917  1.0000
  S   S106      1.0  0.66717  0.48532  0.61654  1.0000
  H   H607      1.0  0.50506  0.00956  0.77710  1.0000
  C   C757      1.0  0.49643  0.00622  0.75294  1.0000
  H   H608      1.0  0.62430  0.22699  0.99895  1.0000
  H   H609      1.0  0.54487  0.50121  0.63288  1.0000
  H   H610      1.0  0.58568  0.31976  0.50236  1.0000
  C   C758      1.0  0.66727  0.24921  0.76288  1.0000
  H   H611      1.0  0.60961  0.45228  0.00134  1.0000
  C   C759      1.0  0.51182  0.51937  0.45821  1.0000
  S   S107      1.0  0.49465  0.87570  0.44538  1.0000
  S   S108      1.0  0.36643  0.56494  0.48932  1.0000
  H   H612      1.0  0.35616  0.51948  0.02681  1.0000
  S   S109      1.0  0.49100  0.81929  0.46209  1.0000
  C   C760      1.0  0.58669  0.99849  0.42414  1.0000
  Fe  Fe53      1.0  0.50566  0.84755  0.42242  1.0000
  S   S110      1.0  0.49131  0.82625  0.37351  1.0000
  C   C761      1.0  0.42793  0.63683  0.30836  1.0000
  S   S111      1.0  0.54675  0.86784  0.44351  1.0000
  Fe  Fe54      1.0  0.35287  0.56841  0.20905  1.0000
  C   C762      1.0  0.43571  0.61556  0.26236  1.0000
  H   H613      1.0  0.41064  0.65489  0.46059  1.0000
  S   S112      1.0  0.34222  0.64659  0.21241  1.0000
  H   H614      1.0  0.35109  0.69741  0.22820  1.0000
  Fe  Fe55      1.0  0.53059  0.84106  0.48504  1.0000
  H   H615      1.0  0.35120  0.66032  0.28426  1.0000
  Fe  Fe56      1.0  0.36425  0.58985  0.13982  1.0000
  S   S113      1.0  0.39352  0.60323  0.10015  1.0000
  P   P25       1.0  0.40840  0.63450  0.34216  1.0000
  S   S114      1.0  0.37791  0.60789  0.18994  1.0000
  Fe  Fe57      1.0  0.42075  0.83356  0.21550  1.0000
  S   S115      1.0  0.43480  0.82886  0.16678  1.0000
  S   S116      1.0  0.44429  0.86116  0.25764  1.0000
  Fe  Fe58      1.0  0.36501  0.79386  0.19736  1.0000
  S   S117      1.0  0.37415  0.78534  0.14820  1.0000
  C   C763      1.0  0.41786  0.79262  0.44348  1.0000
  Fe  Fe59      1.0  0.40854  0.78624  0.17294  1.0000
  S   S118      1.0  0.41867  0.75531  0.15817  1.0000
  Fe  Fe60      1.0  0.39910  0.82817  0.14514  1.0000
  S   S119      1.0  0.39265  0.84749  0.10158  1.0000
  S   S120      1.0  0.39722  0.79109  0.22289  1.0000
  S   S121      1.0  0.38737  0.83682  0.19338  1.0000
  H   H616      1.0  0.45255  0.72133  0.43131  1.0000
  H   H617      1.0  0.34470  0.57482  0.06281  1.0000
  C   C764      1.0  0.41580  0.83766  0.04952  1.0000
  C   C765      1.0  0.39459  0.83964  0.06043  1.0000
  C   C766      1.0  0.37601  0.83840  0.03762  1.0000
  H   H618      1.0  0.44425  0.85941  0.39276  1.0000
  H   H619      1.0  0.46797  0.55354  0.40140  1.0000
  H   H620      1.0  0.43049  0.83907  0.06669  1.0000
  H   H621      1.0  0.35972  0.84027  0.04572  1.0000
  C   C767      1.0  0.50674  0.50458  0.48577  1.0000
  C   C768      1.0  0.36365  0.67643  0.19685  1.0000
  C   C769      1.0  0.38027  0.67824  0.17239  1.0000
  C   C770      1.0  0.39734  0.70256  0.16066  1.0000
  C   C771      1.0  0.39752  0.72495  0.17309  1.0000
  C   C772      1.0  0.38086  0.72296  0.19752  1.0000
  C   C773      1.0  0.36408  0.69881  0.20951  1.0000
  H   H622      1.0  0.38000  0.66096  0.16255  1.0000
  H   H623      1.0  0.41022  0.70399  0.14176  1.0000
  H   H624      1.0  0.38074  0.73998  0.20712  1.0000
  H   H625      1.0  0.38280  0.87739  0.41052  1.0000
  H   H626      1.0  0.40939  0.50459  0.46509  1.0000
  C   C774      1.0  0.33776  0.51755  0.03375  1.0000
  C   C775      1.0  0.40532  0.61017  0.03589  1.0000
  C   C776      1.0  0.38555  0.59881  0.05803  1.0000
  C   C777      1.0  0.36015  0.58346  0.04616  1.0000
  H   H627      1.0  0.40266  0.86661  0.33907  1.0000
  C   C778      1.0  0.42258  0.61420  0.29041  1.0000
  H   H628      1.0  0.42505  0.62222  0.04478  1.0000
  H   H629      1.0  0.39865  0.53047  0.27927  1.0000
  C   C779      1.0  0.41747  0.50828  0.44136  1.0000
  C   C780      1.0  0.47620  0.83588  0.34352  1.0000
  C   C781      1.0  0.46120  0.81795  0.31866  1.0000
  C   C782      1.0  0.45091  0.82532  0.29263  1.0000
  C   C783      1.0  0.45531  0.85074  0.29128  1.0000
  C   C784      1.0  0.46937  0.86848  0.31689  1.0000
  C   C785      1.0  0.47980  0.86110  0.34293  1.0000
  H   H630      1.0  0.45794  0.79835  0.31912  1.0000
  H   H631      1.0  0.44026  0.81158  0.27307  1.0000
  H   H632      1.0  0.47278  0.88819  0.31612  1.0000
  H   H633      1.0  0.49130  0.87514  0.36191  1.0000
  H   H634      1.0  0.36476  0.73856  0.33663  1.0000
  C   C786      1.0  0.37821  0.62842  0.32311  1.0000
  H   H635      1.0  0.40761  0.59549  0.29747  1.0000
  H   H636      1.0  0.41783  0.71627  0.48527  1.0000
  H   H637      1.0  0.36626  0.66046  0.09702  1.0000
  C   C787      1.0  0.57471  0.97307  0.43560  1.0000
  H   H638      1.0  0.47163  0.63647  0.44723  1.0000
  H   H639      1.0  0.36031  0.71606  0.11235  1.0000
  H   H640      1.0  0.56577  0.95654  0.41880  1.0000
  H   H641      1.0  0.34454  0.77795  0.29388  1.0000
  H   H642      1.0  0.51757  0.83842  0.27005  1.0000
  C   C788      1.0  0.49142  0.79759  0.27372  1.0000
  H   H643      1.0  0.43309  0.78183  0.36830  1.0000
  Fe  Fe61      1.0  0.53486  0.89465  0.46885  1.0000
  H   H644      1.0  0.58674  0.00121  0.39848  1.0000
  C   C789      1.0  0.35307  0.64440  0.29396  1.0000
  C   C790      1.0  0.45994  0.66218  0.26985  1.0000
  C   C791      1.0  0.38123  0.74915  0.08376  1.0000
  C   C792      1.0  0.42762  0.78338  0.41917  1.0000
  C   C793      1.0  0.35912  0.73053  0.09796  1.0000
  C   C794      1.0  0.40013  0.57001  0.40897  1.0000
  H   H645      1.0  0.38613  0.66181  0.37882  1.0000
  C   C795      1.0  0.48684  0.99485  0.43218  1.0000
  H   H646      1.0  0.34761  0.52192  0.08466  1.0000
  C   C796      1.0  0.42473  0.78818  0.38704  1.0000
  C   C797      1.0  0.37508  0.64914  0.31240  1.0000
  C   C798      1.0  0.34832  0.53942  0.28473  1.0000
  H   H647      1.0  0.39006  0.66890  0.31714  1.0000
  C   C799      1.0  0.37847  0.82637  0.35074  1.0000
  H   H648      1.0  0.36317  0.56633  0.41999  1.0000
  C   C800      1.0  0.51657  0.97418  0.40622  1.0000
  H   H649      1.0  0.46126  0.66824  0.36697  1.0000
  H   H650      1.0  0.38700  0.52936  0.49503  1.0000
  C   C801      1.0  0.38019  0.76867  0.06659  1.0000
  P   P26       1.0  0.61522  0.84719  0.44986  1.0000
  H   H651      1.0  0.43070  0.59800  0.24807  1.0000
  C   C802      1.0  0.49281  0.82241  0.22746  1.0000
  H   H652      1.0  0.52695  0.97121  0.45511  1.0000
  C   C803      1.0  0.54522  0.81642  0.40177  1.0000
  H   H653      1.0  0.39751  0.78350  0.05623  1.0000
  C   C804      1.0  0.35700  0.76947  0.06339  1.0000
  C   C805      1.0  0.51558  0.97675  0.43965  1.0000
  H   H654      1.0  0.43823  0.77330  0.42524  1.0000
  C   C806      1.0  0.44900  0.67532  0.37711  1.0000
  H   H655      1.0  0.52164  0.72626  0.32482  1.0000
  H   H656      1.0  0.63668  0.82078  0.41152  1.0000
  S   S122      1.0  0.36842  0.55720  0.25330  1.0000
  C   C807      1.0  0.42263  0.88383  0.49696  1.0000
  C   C808      1.0  0.43977  0.53147  0.43588  1.0000
  S   S123      1.0  0.55993  0.93763  0.48495  1.0000
  H   H657      1.0  0.35448  0.78480  0.35278  1.0000
  C   C809      1.0  0.56457  0.82313  0.42575  1.0000
  C   C810      1.0  0.50230  0.82106  0.25806  1.0000
  C   C811      1.0  0.59704  0.84030  0.38546  1.0000
  H   H658      1.0  0.39858  0.55551  0.42564  1.0000
  H   H659      1.0  0.42659  0.89895  0.48031  1.0000
  C   C812      1.0  0.42432  0.60171  0.36980  1.0000
  C   C813      1.0  0.35963  0.53814  0.31434  1.0000
  C   C814      1.0  0.43860  0.51694  0.38039  1.0000
  C   C815      1.0  0.40682  0.67173  0.38368  1.0000
  H   H660      1.0  0.55929  0.82000  0.45070  1.0000
  C   C816      1.0  0.41236  0.80247  0.37913  1.0000
  H   H661      1.0  0.46425  0.64056  0.22998  1.0000
  C   C817      1.0  0.55166  0.82141  0.36962  1.0000
  C   C818      1.0  0.38025  0.57629  0.40597  1.0000
  C   C819      1.0  0.46266  0.64520  0.46176  1.0000
  H   H662      1.0  0.49867  0.79729  0.29774  1.0000
  H   H663      1.0  0.47395  0.68072  0.26122  1.0000
  C   C820      1.0  0.41910  0.83589  0.01616  1.0000
  H   H664      1.0  0.41506  0.92315  0.42124  1.0000
  H   H665      1.0  0.61699  0.85049  0.37873  1.0000
  H   H666      1.0  0.50081  0.84069  0.21559  1.0000
  H   H667      1.0  0.33943  0.72556  0.01739  1.0000
  C   C821      1.0  0.45039  0.53577  0.40542  1.0000
  C   C822      1.0  0.58646  0.99104  0.49008  1.0000
  C   C823      1.0  0.57450  0.96916  0.46873  1.0000
  C   C824      1.0  0.43975  0.64436  0.45087  1.0000
  H   H668      1.0  0.39936  0.74891  0.08695  1.0000
  H   H669      1.0  0.41166  0.80707  0.35416  1.0000
  C   C825      1.0  0.40219  0.81160  0.40340  1.0000
  H   H670      1.0  0.48009  0.70525  0.40652  1.0000
  H   H671      1.0  0.43095  0.63501  0.42779  1.0000
  H   H672      1.0  0.42075  0.78970  0.46856  1.0000
  C   C826      1.0  0.45532  0.70024  0.20360  1.0000
  C   C827      1.0  0.43214  0.67725  0.20626  1.0000
  C   C828      1.0  0.41581  0.67489  0.23127  1.0000
  C   C829      1.0  0.42244  0.69560  0.25335  1.0000
  C   C830      1.0  0.44576  0.71873  0.25099  1.0000
  C   C831      1.0  0.46226  0.72083  0.22604  1.0000
  P   P27       1.0  0.45471  0.74541  0.27990  1.0000
  C   C832      1.0  0.47057  0.77538  0.25905  1.0000
  C   C833      1.0  0.42568  0.74250  0.29738  1.0000
  C   C834      1.0  0.41220  0.75397  0.28305  1.0000
  C   C835      1.0  0.39037  0.75257  0.29723  1.0000
  C   C836      1.0  0.38153  0.73932  0.32557  1.0000
  C   C837      1.0  0.39421  0.72696  0.33939  1.0000
  C   C838      1.0  0.41613  0.72842  0.32529  1.0000
  C   C839      1.0  0.47266  0.80022  0.21233  1.0000
  C   C840      1.0  0.46156  0.77684  0.22807  1.0000
  C   C841      1.0  0.47635  0.74536  0.31128  1.0000
  C   C842      1.0  0.49226  0.73427  0.30536  1.0000
  C   C843      1.0  0.50923  0.73463  0.32965  1.0000
  C   C844      1.0  0.51050  0.74617  0.35995  1.0000
  C   C845      1.0  0.49479  0.75733  0.36597  1.0000
  C   C846      1.0  0.47808  0.75729  0.34165  1.0000
  H   H673      1.0  0.46761  0.70225  0.18368  1.0000
  H   H674      1.0  0.42649  0.66150  0.18844  1.0000
  H   H675      1.0  0.39749  0.65728  0.23281  1.0000
  H   H676      1.0  0.40895  0.69365  0.27153  1.0000
  H   H677      1.0  0.48018  0.73859  0.22339  1.0000
  H   H678      1.0  0.41853  0.76413  0.26098  1.0000
  H   H679      1.0  0.38038  0.76187  0.28613  1.0000
  C   C847      1.0  0.64677  0.85817  0.43383  1.0000
  H   H680      1.0  0.38714  0.71643  0.36114  1.0000
  H   H681      1.0  0.42569  0.71867  0.33621  1.0000
  H   H682      1.0  0.46528  0.80115  0.18853  1.0000
  H   H683      1.0  0.44558  0.75998  0.21626  1.0000
  H   H684      1.0  0.49193  0.72574  0.28189  1.0000
  H   H685      1.0  0.52385  0.74672  0.37867  1.0000
  H   H686      1.0  0.49576  0.76638  0.38934  1.0000
  H   H687      1.0  0.46683  0.76695  0.34648  1.0000
  C   C848      1.0  0.44414  0.70520  0.41374  1.0000
  C   C849      1.0  0.65174  0.84065  0.41593  1.0000
  H   H688      1.0  0.47809  0.93610  0.48502  1.0000
  C   C850      1.0  0.38250  0.59554  0.38530  1.0000
  C   C851      1.0  0.42210  0.58263  0.39079  1.0000
  H   H689      1.0  0.40549  0.69947  0.41738  1.0000
  C   C852      1.0  0.40312  0.88314  0.40914  1.0000
  C   C853      1.0  0.40449  0.60826  0.36687  1.0000
  H   H690      1.0  0.52530  0.80856  0.40839  1.0000
  H   H691      1.0  0.38040  0.54862  0.31804  1.0000
  C   C854      1.0  0.50273  0.98192  0.38574  1.0000
  C   C855      1.0  0.45446  0.63953  0.25212  1.0000
  H   H692      1.0  0.34596  0.83260  0.14412  1.0000
  H   H693      1.0  0.50363  0.98002  0.35982  1.0000
  C   C856      1.0  0.42254  0.66323  0.36846  1.0000
  C   C857      1.0  0.41114  0.86477  0.40194  1.0000
  C   C858      1.0  0.41767  0.69290  0.40585  1.0000
  C   C859      1.0  0.38942  0.84716  0.33000  1.0000
  C   C860      1.0  0.34431  0.82839  0.47077  1.0000
  C   C861      1.0  0.44645  0.66093  0.29763  1.0000
  H   H694      1.0  0.44995  0.67876  0.30996  1.0000
  C   C862      1.0  0.42801  0.65528  0.46996  1.0000
  C   C863      1.0  0.61116  0.82212  0.47702  1.0000
  C   C864      1.0  0.57756  0.83321  0.36143  1.0000
  H   H695      1.0  0.51168  0.72933  0.48563  1.0000
  H   H696      1.0  0.53658  0.81689  0.35126  1.0000
  H   H697      1.0  0.43747  0.57773  0.39323  1.0000
  C   C865      1.0  0.45973  0.69625  0.39959  1.0000
  H   H698      1.0  0.58256  0.83763  0.33656  1.0000
  C   C866      1.0  0.34591  0.66570  0.05660  1.0000
  H   H699      1.0  0.65416  0.52486  0.44810  1.0000
  C   C867      1.0  0.35693  0.79719  0.30424  1.0000
  H   H700      1.0  0.44164  0.61154  0.35622  1.0000
  H   H701      1.0  0.36714  0.60051  0.38386  1.0000
  C   C868      1.0  0.40526  0.80672  0.43569  1.0000
  H   H702      1.0  0.36177  0.58667  0.32108  1.0000
  H   H703      1.0  0.39874  0.81439  0.45512  1.0000
  H   H704      1.0  0.52962  0.53750  0.45694  1.0000
  H   H705      1.0  0.39328  0.85886  0.28073  1.0000
  C   C869      1.0  0.59063  0.83508  0.41783  1.0000
  H   H706      1.0  0.47616  0.90546  0.40271  1.0000
  H   H707      1.0  0.44898  0.54590  0.45543  1.0000
  C   C870      1.0  0.35921  0.60296  0.31468  1.0000
  C   C871      1.0  0.43759  0.87303  0.39927  1.0000
  C   C872      1.0  0.61532  0.89440  0.45099  1.0000
  C   C873      1.0  0.36237  0.80126  0.33750  1.0000
  P   P28       1.0  0.38745  0.83130  0.39336  1.0000
  C   C874      1.0  0.50058  0.98696  0.45294  1.0000
  H   H708      1.0  0.43637  0.83596  0.00798  1.0000
  H   H709      1.0  0.61937  0.89492  0.42563  1.0000
  H   H710      1.0  0.44291  0.76413  0.48432  1.0000
  H   H711      1.0  0.49788  0.52244  0.41101  1.0000
  H   H712      1.0  0.45026  0.87392  0.47722  1.0000
  C   C875      1.0  0.61280  0.87366  0.46932  1.0000
  H   H713      1.0  0.33687  0.60897  0.48821  1.0000
  C   C876      1.0  0.39987  0.60563  0.00230  1.0000
  C   C877      1.0  0.34424  0.52331  0.33929  1.0000
  H   H714      1.0  0.35320  0.52223  0.36175  1.0000
  H   H715      1.0  0.51946  0.77418  0.47753  1.0000
  C   C878      1.0  0.38412  0.84291  0.29676  1.0000
  H   H716      1.0  0.34170  0.74038  0.18664  1.0000
  C   C879      1.0  0.61188  0.91427  0.46507  1.0000
  C   C880      1.0  0.39964  0.51271  0.28172  1.0000
  C   C881      1.0  0.49395  0.51087  0.43209  1.0000
  H   H717      1.0  0.44736  0.52022  0.35713  1.0000
  H   H718      1.0  0.61322  0.92996  0.45076  1.0000
  C   C882      1.0  0.36485  0.83330  0.45096  1.0000
  H   H719      1.0  0.35691  0.78514  0.05053  1.0000
  H   H720      1.0  0.58070  0.79025  0.44840  1.0000
  C   C883      1.0  0.45577  0.89916  0.40483  1.0000
  C   C884      1.0  0.43615  0.86979  0.49538  1.0000
  H   H721      1.0  0.36388  0.81477  0.25812  1.0000
  H   H722      1.0  0.39677  0.50477  0.23048  1.0000
  H   H723      1.0  0.38433  0.84528  0.46055  1.0000
  C   C885      1.0  0.36030  0.82339  0.41894  1.0000
  H   H724      1.0  0.36059  0.66789  0.03991  1.0000
  Fe  Fe62      1.0  0.34116  0.52350  0.47247  1.0000
  C   C886      1.0  0.42136  0.90919  0.41495  1.0000
  C   C887      1.0  0.34938  0.66182  0.08905  1.0000
  H   H725      1.0  0.52835  0.96646  0.39621  1.0000
  H   H726      1.0  0.46173  0.93727  0.41764  1.0000
  C   C888      1.0  0.44766  0.91715  0.41298  1.0000
  C   C889      1.0  0.36782  0.81799  0.28393  1.0000
  C   C890      1.0  0.59311  0.79601  0.46989  1.0000
  H   H727      1.0  0.34435  0.80351  0.09966  1.0000
  Fe  Fe63      1.0  0.48314  0.84878  0.48648  1.0000
  C   C891      1.0  0.40131  0.50404  0.31229  1.0000
  H   H728      1.0  0.34815  0.83664  0.49526  1.0000
  C   C892      1.0  0.37889  0.83578  0.00426  1.0000
  C   C893      1.0  0.47397  0.65722  0.49162  1.0000
  C   C894      1.0  0.35483  0.57847  0.01270  1.0000
  H   H729      1.0  0.40115  0.51512  0.33340  1.0000
  C   C895      1.0  0.60563  0.91345  0.49741  1.0000
  H   H730      1.0  0.49183  0.65801  0.50010  1.0000
  C   C896      1.0  0.66676  0.88364  0.43996  1.0000
  Fe  Fe64      1.0  0.34218  0.61174  0.18944  1.0000
  C   C897      1.0  0.34790  0.62904  0.49687  1.0000
  C   C898      1.0  0.43850  0.66610  0.50083  1.0000
  S   S124      1.0  0.34278  0.54969  0.15889  1.0000
  C   C899      1.0  0.33724  0.59827  0.29626  1.0000
  S   S125      1.0  0.35177  0.50394  0.43324  1.0000
  H   H731      1.0  0.57661  0.75677  0.48551  1.0000
  H   H732      1.0  0.66895  0.50795  0.49340  1.0000
  H   H733      1.0  0.47550  0.00321  0.44167  1.0000
  H   H734      1.0  0.47726  0.99837  0.38280  1.0000
  H   H735      1.0  0.66375  0.89739  0.45444  1.0000
  P   P29       1.0  0.50140  0.99252  0.49607  1.0000
  C   C900      1.0  0.48786  0.99223  0.39872  1.0000
  C   C901      1.0  0.59090  0.77684  0.49070  1.0000
  C   C902      1.0  0.52716  0.76991  0.49899  1.0000
  C   C903      1.0  0.60652  0.87301  0.50181  1.0000
  C   C904      1.0  0.64669  0.50417  0.44975  1.0000
  C   C905      1.0  0.44844  0.75377  0.50109  1.0000
  C   C906      1.0  0.43421  0.72674  0.50193  1.0000
  C   C907      1.0  0.62432  0.56881  0.78308  1.0000
  H   H736      1.0  0.35227  0.56301  0.58022  1.0000
  H   H737      1.0  0.35256  0.63517  0.56916  1.0000
  Fe  Fe65      1.0  0.64095  0.53493  0.61347  1.0000
  S   S126      1.0  0.61159  0.55011  0.60963  1.0000
  H   H738      1.0  0.56377  0.51875  0.76633  1.0000
  C   C908      1.0  0.50895  0.51617  0.57928  1.0000
  C   C909      1.0  0.36544  0.61127  0.63669  1.0000
  S   S127      1.0  0.37227  0.91171  0.60400  1.0000
  C   C910      1.0  0.45055  0.96853  0.51690  1.0000
  Fe  Fe66      1.0  0.35796  0.88505  0.56017  1.0000
  H   H739      1.0  0.45415  0.61658  0.53462  1.0000
  H   H740      1.0  0.37997  0.99978  0.67352  1.0000
  C   C911      1.0  0.44004  0.58347  0.63785  1.0000
  Fe  Fe67      1.0  0.55007  0.64690  0.60766  1.0000
  S   S128      1.0  0.51131  0.61591  0.62262  1.0000
  S   S129      1.0  0.58754  0.64533  0.61852  1.0000
  Fe  Fe68      1.0  0.52701  0.67782  0.57255  1.0000
  S   S130      1.0  0.48699  0.64805  0.58496  1.0000
  S   S131      1.0  0.52741  0.70627  0.53509  1.0000
  Fe  Fe69      1.0  0.50305  0.64860  0.63469  1.0000
  S   S132      1.0  0.47735  0.65244  0.67240  1.0000
  Fe  Fe70      1.0  0.49839  0.61808  0.57202  1.0000
  S   S133      1.0  0.47463  0.58133  0.54170  1.0000
  S   S134      1.0  0.54298  0.68025  0.62327  1.0000
  S   S135      1.0  0.53740  0.64727  0.55629  1.0000
  Fe  Fe71      1.0  0.41378  0.61404  0.84110  1.0000
  S   S136      1.0  0.42483  0.63071  0.89234  1.0000
  S   S137      1.0  0.43758  0.60251  0.80848  1.0000
  Fe  Fe72      1.0  0.36240  0.61379  0.84174  1.0000
  S   S138      1.0  0.36879  0.63076  0.89211  1.0000
  C   C912      1.0  0.40869  0.95309  0.66769  1.0000
  Fe  Fe73      1.0  0.40908  0.65692  0.87711  1.0000
  S   S139      1.0  0.42789  0.69866  0.89420  1.0000
  Fe  Fe74      1.0  0.38374  0.60345  0.90454  1.0000
  S   S140      1.0  0.36714  0.57923  0.94890  1.0000
  S   S141      1.0  0.40139  0.64255  0.82545  1.0000
  S   S142      1.0  0.37387  0.58401  0.85455  1.0000
  Fe  Fe75      1.0  0.38278  0.78846  0.84658  1.0000
  S   S143      1.0  0.37708  0.77858  0.89831  1.0000
  S   S144      1.0  0.40319  0.77400  0.81354  1.0000
  H   H741      1.0  0.49717  0.97464  0.64911  1.0000
  C   C913      1.0  0.36650  0.57158  0.69150  1.0000
  C   C914      1.0  0.37113  0.58510  0.75752  1.0000
  Fe  Fe76      1.0  0.38162  0.81798  0.90810  1.0000
  S   S145      1.0  0.40858  0.83847  0.95186  1.0000
  C   C915      1.0  0.35907  0.85692  0.71269  1.0000
  S   S146      1.0  0.39131  0.82947  0.85630  1.0000
  H   H742      1.0  0.50841  0.55127  0.51615  1.0000
  C   C916      1.0  0.41093  0.75331  0.83510  1.0000
  C   C917      1.0  0.40641  0.72957  0.82105  1.0000
  C   C918      1.0  0.41118  0.71240  0.83913  1.0000
  C   C919      1.0  0.42129  0.71937  0.87086  1.0000
  C   C920      1.0  0.42655  0.74347  0.88438  1.0000
  C   C921      1.0  0.42110  0.76027  0.86669  1.0000
  H   H743      1.0  0.39846  0.72410  0.79665  1.0000
  H   H744      1.0  0.40716  0.69391  0.82852  1.0000
  H   H745      1.0  0.43464  0.74908  0.90875  1.0000
  H   H746      1.0  0.42506  0.77877  0.87745  1.0000
  C   C922      1.0  0.46665  0.63795  0.70997  1.0000
  C   C923      1.0  0.47287  0.61965  0.72209  1.0000
  C   C924      1.0  0.46387  0.60896  0.75227  1.0000
  C   C925      1.0  0.44869  0.61651  0.77064  1.0000
  C   C926      1.0  0.44222  0.63452  0.75816  1.0000
  C   C927      1.0  0.45109  0.64510  0.72804  1.0000
  H   H747      1.0  0.48476  0.61390  0.70842  1.0000
  H   H748      1.0  0.46889  0.59496  0.76163  1.0000
  H   H749      1.0  0.43052  0.64046  0.77181  1.0000
  H   H750      1.0  0.44612  0.65920  0.71899  1.0000
  C   C928      1.0  0.54166  0.78975  0.52204  1.0000
  H   H751      1.0  0.34466  0.52326  0.78153  1.0000
  H   H752      1.0  0.35603  0.51206  0.66011  1.0000
  C   C929      1.0  0.53261  0.73848  0.53149  1.0000
  C   C930      1.0  0.54705  0.75833  0.55451  1.0000
  C   C931      1.0  0.55159  0.78377  0.54974  1.0000
  H   H753      1.0  0.34680  0.59327  0.54581  1.0000
  C   C932      1.0  0.62637  0.58424  0.70919  1.0000
  H   H754      1.0  0.55525  0.75422  0.57566  1.0000
  H   H755      1.0  0.56310  0.79901  0.56753  1.0000
  C   C933      1.0  0.40344  0.87780  0.51946  1.0000
  C   C934      1.0  0.39837  0.85825  0.54095  1.0000
  C   C935      1.0  0.41199  0.84436  0.53957  1.0000
  C   C936      1.0  0.47403  0.99751  0.69036  1.0000
  C   C937      1.0  0.52277  0.74448  0.50368  1.0000
  C   C938      1.0  0.58614  0.52410  0.81006  1.0000
  H   H756      1.0  0.38377  0.85357  0.55847  1.0000
  H   H757      1.0  0.40767  0.82904  0.55606  1.0000
  C   C939      1.0  0.35497  0.62182  0.58438  1.0000
  C   C940      1.0  0.46380  0.92836  0.59028  1.0000
  H   H758      1.0  0.64666  0.57372  0.82698  1.0000
  C   C941      1.0  0.34948  0.76264  0.75471  1.0000
  H   H759      1.0  0.60028  0.86588  0.67025  1.0000
  H   H760      1.0  0.36828  0.77933  0.75172  1.0000
  P   P30       1.0  0.42275  0.67876  0.52687  1.0000
  C   C942      1.0  0.54643  0.80827  0.68095  1.0000
  C   C943      1.0  0.44132  0.95224  0.60356  1.0000
  C   C944      1.0  0.37275  0.84920  0.73381  1.0000
  H   H761      1.0  0.47006  0.71767  0.56054  1.0000
  C   C945      1.0  0.43953  0.59760  0.52626  1.0000
  P   P31       1.0  0.53003  0.51605  0.51940  1.0000
  S   S147      1.0  0.52186  0.86930  0.51178  1.0000
  C   C946      1.0  0.57146  0.56650  0.52911  1.0000
  H   H762      1.0  0.48123  0.78855  0.52119  1.0000
  C   C947      1.0  0.42741  0.96797  0.52482  1.0000
  H   H763      1.0  0.36459  0.72615  0.88463  1.0000
  C   C948      1.0  0.60546  0.57696  0.61223  1.0000
  C   C949      1.0  0.57980  0.57233  0.60869  1.0000
  C   C950      1.0  0.57390  0.59289  0.61029  1.0000
  C   C951      1.0  0.59367  0.61848  0.61563  1.0000
  C   C952      1.0  0.61927  0.62304  0.61942  1.0000
  C   C953      1.0  0.62517  0.60252  0.61750  1.0000
  H   H764      1.0  0.56437  0.55270  0.60435  1.0000
  H   H765      1.0  0.55411  0.58894  0.60725  1.0000
  H   H766      1.0  0.63474  0.64268  0.62366  1.0000
  H   H767      1.0  0.64500  0.60654  0.61987  1.0000
  H   H768      1.0  0.49212  0.51571  0.62489  1.0000
  C   C954      1.0  0.35360  0.58821  0.73759  1.0000
  H   H769      1.0  0.52784  0.59859  0.52219  1.0000
  C   C955      1.0  0.35088  0.98303  0.60978  1.0000
  H   H770      1.0  0.53579  0.99486  0.55022  1.0000
  C   C956      1.0  0.38812  0.98681  0.67219  1.0000
  C   C957      1.0  0.58304  0.53083  0.70019  1.0000
  H   H771      1.0  0.38423  0.98567  0.58647  1.0000
  C   C958      1.0  0.37304  0.74521  0.98916  1.0000
  C   C959      1.0  0.63864  0.50475  0.78423  1.0000
  C   C960      1.0  0.59015  0.51190  0.70729  1.0000
  H   H772      1.0  0.41929  0.59725  0.66666  1.0000
  C   C961      1.0  0.42157  0.68642  0.59321  1.0000
  C   C962      1.0  0.42332  0.68115  0.62556  1.0000
  C   C963      1.0  0.42705  0.66026  0.63342  1.0000
  C   C964      1.0  0.42862  0.64446  0.60897  1.0000
  C   C965      1.0  0.42683  0.64965  0.57666  1.0000
  C   C966      1.0  0.35211  0.72326  0.00094  1.0000
  C   C967      1.0  0.46041  0.96699  0.62736  1.0000
  Fe  Fe77      1.0  0.35153  0.87582  0.63242  1.0000
  H   H773      1.0  0.41905  0.70289  0.58752  1.0000
  H   H774      1.0  0.42247  0.69360  0.64455  1.0000
  H   H775      1.0  0.42915  0.65646  0.65842  1.0000
  H   H776      1.0  0.43194  0.62854  0.61506  1.0000
  H   H777      1.0  0.42839  0.63728  0.55830  1.0000
  H   H778      1.0  0.38419  0.65572  0.75689  1.0000
  H   H779      1.0  0.38954  0.66855  0.69998  1.0000
  C   C968      1.0  0.39001  0.74244  0.96859  1.0000
  H   H780      1.0  0.41117  0.95007  0.53204  1.0000
  C   C969      1.0  0.36198  0.62835  0.61703  1.0000
  H   H781      1.0  0.57164  0.50655  0.82036  1.0000
  H   H782      1.0  0.64395  0.52394  0.79376  1.0000
  C   C970      1.0  0.36101  0.58713  0.62396  1.0000
  H   H783      1.0  0.42682  0.76580  0.75534  1.0000
  C   C971      1.0  0.44732  0.77477  0.75109  1.0000
  C   C972      1.0  0.44469  0.57689  0.52677  1.0000
  C   C973      1.0  0.54472  0.55094  0.52310  1.0000
  H   H784      1.0  0.60453  0.76859  0.53500  1.0000
  C   C974      1.0  0.37641  0.67185  0.71469  1.0000
  C   C975      1.0  0.47158  0.99160  0.50733  1.0000
  C   C976      1.0  0.48340  0.94360  0.61315  1.0000
  H   H785      1.0  0.58405  0.55811  0.53200  1.0000
  H   H786      1.0  0.64196  0.84845  0.51024  1.0000
  H   H787      1.0  0.48226  0.96501  0.75239  1.0000
  H   H788      1.0  0.60335  0.85684  0.51625  1.0000
  H   H789      1.0  0.40612  0.75944  0.95927  1.0000
  H   H790      1.0  0.41359  0.53470  0.58044  1.0000
  H   H791      1.0  0.52696  0.57768  0.76459  1.0000
  C   C977      1.0  0.48181  0.96296  0.63158  1.0000
  C   C978      1.0  0.37347  0.66465  0.74673  1.0000
  C   C979      1.0  0.36355  0.84021  0.76449  1.0000
  H   H792      1.0  0.36523  0.73751  0.76535  1.0000
  H   H793      1.0  0.64900  0.51702  0.73545  1.0000
  C   C980      1.0  0.42382  0.67098  0.56850  1.0000
  H   H794      1.0  0.58720  0.82123  0.68673  1.0000
  H   H795      1.0  0.49031  0.69643  0.63347  1.0000
  H   H796      1.0  0.45580  0.79879  0.56898  1.0000
  H   H797      1.0  0.45865  0.59780  0.64820  1.0000
  C   C981      1.0  0.44120  0.71350  0.52428  1.0000
  C   C982      1.0  0.34033  0.99753  0.62374  1.0000
  C   C983      1.0  0.51623  0.93067  0.54326  1.0000
  C   C984      1.0  0.54015  0.58048  0.74548  1.0000
  H   H798      1.0  0.52812  0.60363  0.71796  1.0000
  H   H799      1.0  0.61306  0.53378  0.85051  1.0000
  C   C985      1.0  0.49027  0.71421  0.64068  1.0000
  H   H800      1.0  0.54108  0.78890  0.68837  1.0000
  H   H801      1.0  0.51152  0.73467  0.60024  1.0000
  H   H802      1.0  0.47041  0.69905  0.68427  1.0000
  C   C986      1.0  0.39327  0.56416  0.63565  1.0000
  C   C987      1.0  0.47754  0.75446  0.54337  1.0000
  C   C988      1.0  0.57261  0.82657  0.68015  1.0000
  C   C989      1.0  0.50224  0.73586  0.62190  1.0000
  C   C990      1.0  0.47884  0.71566  0.66917  1.0000
  C   C991      1.0  0.38303  0.94379  0.67610  1.0000
  C   C992      1.0  0.57998  0.85172  0.67091  1.0000
  C   C993      1.0  0.50294  0.75907  0.63161  1.0000
  C   C994      1.0  0.47886  0.73860  0.67859  1.0000
  C   C995      1.0  0.45848  0.80367  0.59464  1.0000
  H   H803      1.0  0.51351  0.77602  0.61755  1.0000
  H   H804      1.0  0.47768  0.78168  0.60404  1.0000
  C   C996      1.0  0.38891  0.66560  0.51563  1.0000
  C   C997      1.0  0.54078  0.59513  0.71923  1.0000
  H   H805      1.0  0.55606  0.55877  0.76799  1.0000
  C   C998      1.0  0.52738  0.81498  0.67229  1.0000
  C   C999      1.0  0.49083  0.76053  0.65977  1.0000
  C   C1000     1.0  0.47097  0.79408  0.61468  1.0000
  C   C1001     1.0  0.44987  0.82015  0.60742  1.0000
  H   H806      1.0  0.47025  0.73922  0.70109  1.0000
  H   H807      1.0  0.44060  0.82787  0.59168  1.0000
  C   C1002     1.0  0.63611  0.61062  0.71763  1.0000
  H   H808      1.0  0.37207  0.61725  0.66149  1.0000
  C   C1003     1.0  0.38626  0.71776  0.96015  1.0000
  C   C1004     1.0  0.49749  0.92347  0.51842  1.0000
  C   C1005     1.0  0.58183  0.53101  0.77947  1.0000
  H   H809      1.0  0.35555  0.66378  0.79098  1.0000
  H   H810      1.0  0.62543  0.61687  0.73304  1.0000
  H   H811      1.0  0.60369  0.51501  0.72710  1.0000
  H   H812      1.0  0.58649  0.98834  0.51574  1.0000
  C   C1006     1.0  0.56115  0.85864  0.66262  1.0000
  P   P32       1.0  0.49362  0.79117  0.67358  1.0000
  C   C1007     1.0  0.47512  0.80108  0.64776  1.0000
  C   C1008     1.0  0.50593  0.96800  0.51603  1.0000
  H   H813      1.0  0.52080  0.91641  0.55291  1.0000
  H   H814      1.0  0.38681  0.69995  0.53082  1.0000
  C   C1009     1.0  0.55671  0.56975  0.74729  1.0000
  C   C1010     1.0  0.57061  0.50786  0.53913  1.0000
  C   C1011     1.0  0.53494  0.84040  0.66344  1.0000
  C   C1012     1.0  0.45360  0.82698  0.64032  1.0000
  C   C1013     1.0  0.46630  0.81764  0.66039  1.0000
  H   H815      1.0  0.39857  0.57109  0.76057  1.0000
  H   H816      1.0  0.44696  0.83985  0.65018  1.0000
  C   C1014     1.0  0.37578  0.99653  0.59732  1.0000
  C   C1015     1.0  0.35474  0.58108  0.59092  1.0000
  S   S148      1.0  0.37243  0.86947  0.67510  1.0000
  C   C1016     1.0  0.52458  0.97499  0.54133  1.0000
  H   H817      1.0  0.41538  0.61399  0.98566  1.0000
  H   H818      1.0  0.37366  0.53342  0.59888  1.0000
  H   H819      1.0  0.45172  0.95084  0.51811  1.0000
  H   H820      1.0  0.48763  0.90362  0.50917  1.0000
  C   C1017     1.0  0.60948  0.53952  0.82716  1.0000
  C   C1018     1.0  0.42402  0.97922  0.66043  1.0000
  P   P33       1.0  0.45754  0.99131  0.65137  1.0000
  C   C1019     1.0  0.41457  0.54784  0.59984  1.0000
  H   H821      1.0  0.37107  0.92342  0.68066  1.0000
  C   C1020     1.0  0.35700  0.66928  0.76616  1.0000
  Fe  Fe78      1.0  0.34844  0.81315  0.84748  1.0000
  H   H822      1.0  0.52074  0.84625  0.65698  1.0000
  H   H823      1.0  0.46965  0.82383  0.68566  1.0000
  H   H824      1.0  0.39077  0.85046  0.72658  1.0000
  H   H825      1.0  0.36542  0.68971  0.67733  1.0000
  C   C1021     1.0  0.33654  0.53251  0.64229  1.0000
  C   C1022     1.0  0.62507  0.80932  0.52559  1.0000
  C   C1023     1.0  0.35163  0.59830  0.57127  1.0000
  C   C1024     1.0  0.55795  0.59905  0.69472  1.0000
  H   H826      1.0  0.55867  0.61061  0.67444  1.0000
  H   H827      1.0  0.60226  0.92849  0.50802  1.0000
  C   C1025     1.0  0.36502  0.69581  0.97133  1.0000
  H   H828      1.0  0.42964  0.53618  0.51555  1.0000
  C   C1026     1.0  0.62846  0.56196  0.81380  1.0000
  H   H829      1.0  0.49483  0.76515  0.55863  1.0000
  H   H830      1.0  0.63358  0.55658  0.68213  1.0000
  C   C1027     1.0  0.39198  0.54711  0.61052  1.0000
  C   C1028     1.0  0.48265  0.78885  0.71431  1.0000
  H   H831      1.0  0.44203  0.76934  0.69966  1.0000
  C   C1029     1.0  0.56638  0.52664  0.67341  1.0000
  H   H832      1.0  0.39445  0.55874  0.70294  1.0000
  H   H833      1.0  0.57500  0.62579  0.53410  1.0000
  C   C1030     1.0  0.40089  0.83531  0.99329  1.0000
  C   C1031     1.0  0.58232  0.59341  0.53263  1.0000
  H   H834      1.0  0.56839  0.51417  0.56304  1.0000
  H   H835      1.0  0.58778  0.59176  0.67731  1.0000
  C   C1032     1.0  0.46342  0.72753  0.54433  1.0000
  H   H836      1.0  0.66667  0.64956  0.71187  1.0000
  C   C1033     1.0  0.45604  0.77694  0.71969  1.0000
  H   H837      1.0  0.52092  0.80738  0.73760  1.0000
  H   H838      1.0  0.49974  0.94027  0.61668  1.0000
  C   C1034     1.0  0.34614  0.68818  0.72132  1.0000
  S   S149      1.0  0.38521  0.89403  0.51926  1.0000
  C   C1035     1.0  0.34726  0.69840  0.99094  1.0000
  P   P34       1.0  0.36439  0.56417  0.64869  1.0000
  H   H839      1.0  0.37446  0.83462  0.78061  1.0000
  H   H840      1.0  0.37053  0.94723  0.75617  1.0000
  C   C1036     1.0  0.52914  0.56280  0.52033  1.0000
  C   C1037     1.0  0.35089  0.58098  0.70484  1.0000
  C   C1038     1.0  0.55462  0.50683  0.51302  1.0000
  H   H841      1.0  0.35281  0.68394  0.90773  1.0000
  H   H842      1.0  0.59718  0.89172  0.54050  1.0000
  C   C1039     1.0  0.44283  0.93276  0.58545  1.0000
  C   C1040     1.0  0.50034  0.79829  0.74085  1.0000
  C   C1041     1.0  0.42498  0.99031  0.52301  1.0000
  C   C1042     1.0  0.33814  0.51033  0.65019  1.0000
  S   S150      1.0  0.44777  0.83250  0.51610  1.0000
  H   H843      1.0  0.36536  0.64691  0.62694  1.0000
  H   H844      1.0  0.37331  0.59082  0.78289  1.0000
  C   C1043     1.0  0.43856  0.56584  0.61371  1.0000
  C   C1044     1.0  0.57402  0.57361  0.72272  1.0000
  C   C1045     1.0  0.38355  0.96792  0.75858  1.0000
  H   H845      1.0  0.41176  0.60991  0.51342  1.0000
  C   C1046     1.0  0.48366  0.98114  0.73897  1.0000
  H   H846      1.0  0.46208  0.95712  0.69769  1.0000
  C   C1047     1.0  0.41755  0.58292  0.64847  1.0000
  H   H847      1.0  0.54475  0.96208  0.57343  1.0000
  H   H848      1.0  0.35523  0.97651  0.77893  1.0000
  H   H849      1.0  0.56132  0.54123  0.66658  1.0000
  C   C1048     1.0  0.38310  0.56722  0.71204  1.0000
  H   H850      1.0  0.50511  0.80327  0.79273  1.0000
  C   C1049     1.0  0.43100  0.85019  0.51693  1.0000
  H   H851      1.0  0.42507  0.95560  0.59920  1.0000
  C   C1050     1.0  0.46503  0.78431  0.77732  1.0000
  C   C1051     1.0  0.49150  0.79600  0.77222  1.0000
  H   H852      1.0  0.45818  0.78267  0.80166  1.0000
  C   C1052     1.0  0.38543  0.57408  0.74488  1.0000
  C   C1053     1.0  0.60097  0.55329  0.76559  1.0000
  C   C1054     1.0  0.52973  0.95640  0.55476  1.0000
  C   C1055     1.0  0.47240  0.97676  0.70787  1.0000
  H   H853      1.0  0.51410  0.53618  0.57581  1.0000
  H   H854      1.0  0.35249  0.95323  0.68323  1.0000
  H   H855      1.0  0.36500  0.83589  0.98700  1.0000
  C   C1056     1.0  0.57448  0.58835  0.69645  1.0000
  C   C1057     1.0  0.37264  0.96058  0.67787  1.0000
  H   H856      1.0  0.63737  0.81444  0.54723  1.0000
  S   S151      1.0  0.34067  0.84915  0.58855  1.0000
  H   H857      1.0  0.42761  0.92095  0.56777  1.0000
  H   H858      1.0  0.41553  0.96529  0.73868  1.0000
  C   C1058     1.0  0.40891  0.97811  0.74867  1.0000
  H   H859      1.0  0.45605  0.56641  0.60533  1.0000
  H   H860      1.0  0.63956  0.58594  0.77299  1.0000
  H   H861      1.0  0.41629  0.93967  0.66643  1.0000
  C   C1059     1.0  0.37461  0.58923  0.99049  1.0000
  H   H862      1.0  0.39964  0.71559  0.94454  1.0000
  P   P35       1.0  0.59608  0.56052  0.72475  1.0000
  H   H863      1.0  0.56687  0.87816  0.65551  1.0000
  C   C1060     1.0  0.37495  0.98444  0.77138  1.0000
  H   H864      1.0  0.47095  0.67667  0.53430  1.0000
  C   C1061     1.0  0.64070  0.57671  0.68934  1.0000
  H   H865      1.0  0.36252  0.67695  0.96419  1.0000
  H   H866      1.0  0.46477  0.91313  0.57622  1.0000
  C   C1062     1.0  0.40164  0.54847  0.50351  1.0000
  H   H867      1.0  0.40695  0.98974  0.52901  1.0000
  C   C1063     1.0  0.34771  0.73895  0.76270  1.0000
  C   C1064     1.0  0.56663  0.60501  0.53023  1.0000
  C   C1065     1.0  0.41370  0.99611  0.66352  1.0000
  S   S152      1.0  0.34065  0.77278  0.83496  1.0000
  H   H868      1.0  0.60279  0.60523  0.53850  1.0000
  S   S153      1.0  0.65954  0.52627  0.57099  1.0000
  H   H869      1.0  0.34041  0.68133  0.51625  1.0000
  H   H870      1.0  0.33686  0.58300  0.68991  1.0000
  C   C1066     1.0  0.54009  0.58970  0.52382  1.0000
  C   C1067     1.0  0.60290  0.89281  0.51573  1.0000
  C   C1068     1.0  0.34995  0.66976  0.51275  1.0000
  C   C1069     1.0  0.36280  0.68367  0.70199  1.0000
  C   C1070     1.0  0.37634  0.68035  0.52063  1.0000
  C   C1071     1.0  0.60670  0.78349  0.51865  1.0000
  H   H871      1.0  0.66417  0.51321  0.99894  1.0000
  H   H872      1.0  0.34207  0.59611  0.74774  1.0000
  C   C1072     1.0  0.42578  0.55233  0.51508  1.0000
  C   C1073     1.0  0.35285  0.70850  0.87040  1.0000
  C   C1074     1.0  0.46198  0.66766  0.51108  1.0000
  C   C1075     1.0  0.65954  0.62921  0.70583  1.0000
  S   S154      1.0  0.54853  0.82236  0.51728  1.0000
  C   C1076     1.0  0.41556  0.59383  0.51429  1.0000
  C   C1077     1.0  0.47000  0.76762  0.52194  1.0000
  C   C1078     1.0  0.66421  0.59538  0.67773  1.0000
  S   S155      1.0  0.33925  0.80506  0.90021  1.0000
  C   C1079     1.0  0.37421  0.63953  0.50493  1.0000
  C   C1080     1.0  0.49647  0.50460  0.60731  1.0000
  C   C1081     1.0  0.34611  0.68467  0.88363  1.0000
  C   C1082     1.0  0.49227  0.94198  0.50481  1.0000
  C   C1083     1.0  0.34500  0.70958  0.83870  1.0000
  H   H873      1.0  0.35100  0.72828  0.82875  1.0000
  C   C1084     1.0  0.34304  0.68099  0.75360  1.0000
  H   H874      1.0  0.37610  0.76442  0.99573  1.0000
  C   C1085     1.0  0.34065  0.83913  0.77456  1.0000
  C   C1086     1.0  0.39651  0.56927  0.50327  1.0000
  H   H875      1.0  0.38292  0.62708  0.50299  1.0000
  C   C1087     1.0  0.55680  0.50380  0.65429  1.0000
  C   C1088     1.0  0.62749  0.82854  0.50470  1.0000
  H   H876      1.0  0.68317  0.24966  0.38106  1.0000
  C   C1089     1.0  0.75261  0.28105  0.32951  1.0000
  C   C1090     1.0  0.68800  0.19024  0.30947  1.0000
  H   H877      1.0  0.69812  0.23856  0.24253  1.0000
  H   H878      1.0  0.82227  0.44270  0.03469  1.0000
  Fe  Fe79      1.0  0.77586  0.38375  0.22538  1.0000
  S   S156      1.0  0.76269  0.38331  0.17421  1.0000
  S   S157      1.0  0.75341  0.35295  0.26019  1.0000
  Fe  Fe80      1.0  0.82257  0.43648  0.22278  1.0000
  S   S158      1.0  0.81418  0.44122  0.17068  1.0000
  S   S159      1.0  0.85617  0.46666  0.25422  1.0000
  Fe  Fe81      1.0  0.77300  0.42452  0.18531  1.0000
  S   S160      1.0  0.74695  0.43873  0.16450  1.0000
  Fe  Fe82      1.0  0.80440  0.39962  0.16245  1.0000
  S   S161      1.0  0.81237  0.38097  0.11853  1.0000
  S   S162      1.0  0.78213  0.42348  0.23760  1.0000
  S   S163      1.0  0.81683  0.39630  0.21329  1.0000
  C   C1091     1.0  0.67192  0.43939  0.05553  1.0000
  C   C1092     1.0  0.81770  0.42307  0.03964  1.0000
  C   C1093     1.0  0.81626  0.41559  0.07186  1.0000
  C   C1094     1.0  0.81177  0.39066  0.07851  1.0000
  C   C1095     1.0  0.80810  0.37326  0.05264  1.0000
  C   C1096     1.0  0.80840  0.38033  0.02046  1.0000
  H   H879      1.0  0.69762  0.50104  0.19437  1.0000
  H   H880      1.0  0.81954  0.42936  0.09150  1.0000
  H   H881      1.0  0.80524  0.35427  0.05753  1.0000
  Fe  Fe83      1.0  0.68114  0.14371  0.47806  1.0000
  H   H882      1.0  0.70260  0.42828  0.26607  1.0000
  C   C1097     1.0  0.69984  0.43519  0.17375  1.0000
  C   C1098     1.0  0.72114  0.43462  0.18828  1.0000
  C   C1099     1.0  0.72193  0.43176  0.22155  1.0000
  C   C1100     1.0  0.70181  0.43018  0.24030  1.0000
  H   H883      1.0  0.70303  0.34891  0.25444  1.0000
  H   H884      1.0  0.69913  0.43746  0.14811  1.0000
  H   H885      1.0  0.73817  0.43119  0.23298  1.0000
  C   C1101     1.0  0.73536  0.32416  0.23724  1.0000
  C   C1102     1.0  0.71129  0.30546  0.24733  1.0000
  C   C1103     1.0  0.69607  0.28326  0.22769  1.0000
  C   C1104     1.0  0.70553  0.27900  0.19884  1.0000
  C   C1105     1.0  0.72998  0.29746  0.18942  1.0000
  C   C1106     1.0  0.74465  0.32022  0.20820  1.0000
  H   H886      1.0  0.70413  0.30849  0.26983  1.0000
  C   C1107     1.0  0.73452  0.29412  0.08912  1.0000
  H   H887      1.0  0.73742  0.29453  0.16721  1.0000
  H   H888      1.0  0.76331  0.33459  0.20032  1.0000
  C   C1108     1.0  0.73663  0.46421  0.02625  1.0000
  C   C1109     1.0  0.68591  0.29693  0.08935  1.0000
  H   H889      1.0  0.87707  0.44011  0.05921  1.0000
  C   C1110     1.0  0.82805  0.45213  0.30950  1.0000
  C   C1111     1.0  0.85115  0.46947  0.29574  1.0000
  C   C1112     1.0  0.77020  0.28514  0.12468  1.0000
  C   C1113     1.0  0.87080  0.48911  0.31552  1.0000
  H   H890      1.0  0.81309  0.43648  0.29492  1.0000
  C   C1114     1.0  0.75367  0.27846  0.48418  1.0000
  C   C1115     1.0  0.82445  0.45462  0.34248  1.0000
  C   C1116     1.0  0.77075  0.37801  0.35282  1.0000
  C   C1117     1.0  0.76384  0.38792  0.37948  1.0000
  C   C1118     1.0  0.77950  0.39577  0.40770  1.0000
  C   C1119     1.0  0.80215  0.39384  0.40924  1.0000
  C   C1120     1.0  0.80957  0.38452  0.38227  1.0000
  C   C1121     1.0  0.79331  0.37592  0.35434  1.0000
  P   P36       1.0  0.83888  0.38211  0.38419  1.0000
  C   C1122     1.0  0.83043  0.35128  0.40119  1.0000
  C   C1123     1.0  0.85140  0.38545  0.34434  1.0000
  C   C1124     1.0  0.85101  0.40409  0.32431  1.0000
  C   C1125     1.0  0.86051  0.40693  0.29333  1.0000
  C   C1126     1.0  0.87094  0.39151  0.28229  1.0000
  C   C1127     1.0  0.87221  0.37349  0.30246  1.0000
  C   C1128     1.0  0.86266  0.37059  0.33352  1.0000
  C   C1129     1.0  0.81851  0.32842  0.38170  1.0000
  C   C1130     1.0  0.81263  0.30463  0.39472  1.0000
  C   C1131     1.0  0.81822  0.30348  0.42735  1.0000
  C   C1132     1.0  0.82899  0.32597  0.44716  1.0000
  C   C1133     1.0  0.83464  0.34970  0.43430  1.0000
  C   C1134     1.0  0.86419  0.40887  0.40770  1.0000
  C   C1135     1.0  0.88365  0.40610  0.42423  1.0000
  C   C1136     1.0  0.90239  0.42661  0.44362  1.0000
  C   C1137     1.0  0.90239  0.45028  0.44564  1.0000
  C   C1138     1.0  0.88406  0.45363  0.42762  1.0000
  C   C1139     1.0  0.86514  0.43306  0.40861  1.0000
  H   H891      1.0  0.75883  0.37223  0.33071  1.0000
  H   H892      1.0  0.74647  0.38970  0.37816  1.0000
  H   H893      1.0  0.77439  0.40384  0.42824  1.0000
  H   H894      1.0  0.81414  0.40015  0.43124  1.0000
  H   H895      1.0  0.79815  0.36801  0.33341  1.0000
  H   H896      1.0  0.84331  0.41646  0.33260  1.0000
  H   H897      1.0  0.85980  0.42116  0.27788  1.0000
  H   H898      1.0  0.87821  0.39374  0.25818  1.0000
  H   H899      1.0  0.88068  0.36186  0.29402  1.0000
  H   H900      1.0  0.86426  0.35693  0.34903  1.0000
  H   H901      1.0  0.81394  0.32903  0.35642  1.0000
  H   H902      1.0  0.80392  0.28711  0.37949  1.0000
  H   H903      1.0  0.81411  0.28520  0.43744  1.0000
  H   H904      1.0  0.83278  0.32512  0.47270  1.0000
  H   H905      1.0  0.84222  0.36669  0.45045  1.0000
  H   H906      1.0  0.88412  0.38800  0.42276  1.0000
  P   P37       1.0  0.86907  0.36087  0.00356  1.0000
  H   H907      1.0  0.71054  0.14869  0.33006  1.0000
  H   H908      1.0  0.88403  0.47195  0.42881  1.0000
  H   H909      1.0  0.85107  0.43598  0.39492  1.0000
  C   C1140     1.0  0.74575  0.43220  0.34350  1.0000
  C   C1141     1.0  0.72252  0.42190  0.35946  1.0000
  H   H910      1.0  0.72678  0.39125  0.27771  1.0000
  H   H911      1.0  0.72156  0.43077  0.38220  1.0000
  H   H912      1.0  0.70653  0.25540  0.10199  1.0000
  H   H913      1.0  0.68271  0.39262  0.35875  1.0000
  H   H914      1.0  0.76506  0.44168  0.09578  1.0000
  H   H915      1.0  0.72993  0.45160  0.10611  1.0000
  C   C1142     1.0  0.74789  0.27039  0.35995  1.0000
  C   C1143     1.0  0.73632  0.27867  0.38334  1.0000
  C   C1144     1.0  0.72965  0.29781  0.37570  1.0000
  P   P38       1.0  0.72954  0.26459  0.42260  1.0000
  C   C1145     1.0  0.69612  0.25420  0.43121  1.0000
  C   C1146     1.0  0.73253  0.23550  0.42083  1.0000
  C   C1147     1.0  0.71272  0.21284  0.40570  1.0000
  C   C1148     1.0  0.71471  0.19023  0.40361  1.0000
  C   C1149     1.0  0.73650  0.18998  0.41681  1.0000
  C   C1150     1.0  0.75654  0.21254  0.43149  1.0000
  C   C1151     1.0  0.75472  0.23531  0.43324  1.0000
  C   C1152     1.0  0.68786  0.25005  0.46304  1.0000
  H   H916      1.0  0.73786  0.24758  0.13277  1.0000
  C   C1153     1.0  0.71892  0.33155  0.01386  1.0000
  H   H917      1.0  0.69897  0.17275  0.39251  1.0000
  P   P39       1.0  0.67253  0.36145  0.29863  1.0000
  C   C1154     1.0  0.75073  0.28735  0.45407  1.0000
  C   C1155     1.0  0.76418  0.31411  0.44906  1.0000
  C   C1156     1.0  0.78001  0.33153  0.47375  1.0000
  S   S164      1.0  0.72445  0.16431  0.49139  1.0000
  C   C1157     1.0  0.67045  0.33195  0.31326  1.0000
  H   H918      1.0  0.72824  0.46949  0.00626  1.0000
  H   H919      1.0  0.72907  0.32302  0.33917  1.0000
  C   C1158     1.0  0.72885  0.13874  0.26503  1.0000
  C   C1159     1.0  0.67031  0.30146  0.14139  1.0000
  H   H920      1.0  0.75311  0.25557  0.36495  1.0000
  H   H921      1.0  0.72075  0.30449  0.39337  1.0000
  H   H922      1.0  0.69550  0.21243  0.39586  1.0000
  C   C1160     1.0  0.74590  0.30007  0.32216  1.0000
  H   H923      1.0  0.73750  0.17212  0.41661  1.0000
  H   H924      1.0  0.77310  0.21208  0.44242  1.0000
  H   H925      1.0  0.77041  0.25245  0.44481  1.0000
  C   C1161     1.0  0.67745  0.24821  0.04164  1.0000
  H   H926      1.0  0.79306  0.16994  0.25047  1.0000
  C   C1162     1.0  0.70146  0.38897  0.31618  1.0000
  C   C1163     1.0  0.67631  0.48500  0.14936  1.0000
  C   C1164     1.0  0.75621  0.45795  0.02028  1.0000
  H   H927      1.0  0.76286  0.32173  0.42616  1.0000
  H   H928      1.0  0.79059  0.35211  0.46972  1.0000
  P   P40       1.0  0.71135  0.29862  0.06486  1.0000
  P   P41       1.0  0.69105  0.15408  0.26702  1.0000
  H   H929      1.0  0.70836  0.30689  0.13437  1.0000
  H   H930      1.0  0.76125  0.27442  0.31140  1.0000
  C   C1165     1.0  0.73438  0.30839  0.34520  1.0000
  C   C1166     1.0  0.70071  0.48091  0.10529  1.0000
  C   C1167     1.0  0.69934  0.27185  0.03553  1.0000
  H   H931      1.0  0.67322  0.30454  0.16734  1.0000
  C   C1168     1.0  0.84390  0.47445  0.36214  1.0000
  C   C1169     1.0  0.86726  0.49146  0.34868  1.0000
  H   H932      1.0  0.80653  0.44100  0.35285  1.0000
  C   C1170     1.0  0.69231  0.35375  0.20657  1.0000
  C   C1171     1.0  0.69076  0.35391  0.24009  1.0000
  H   H933      1.0  0.78180  0.44523  0.04069  1.0000
  H   H934      1.0  0.73106  0.29115  0.00360  1.0000
  C   C1172     1.0  0.72660  0.27034  0.10363  1.0000
  C   C1173     1.0  0.73759  0.45422  0.08228  1.0000
  H   H935      1.0  0.92122  0.38258  0.03233  1.0000
  H   H936      1.0  0.69750  0.19760  0.22879  1.0000
  S   S165      1.0  0.83806  0.47636  0.40344  1.0000
  H   H937      1.0  0.76284  0.44892  0.35381  1.0000
  C   C1174     1.0  0.72350  0.15936  0.26185  1.0000
  C   C1175     1.0  0.72450  0.32972  0.04649  1.0000
  C   C1176     1.0  0.72507  0.39934  0.30056  1.0000
  C   C1177     1.0  0.72764  0.46306  0.05755  1.0000
  C   C1178     1.0  0.87644  0.42161  0.06209  1.0000
  C   C1179     1.0  0.81366  0.40546  0.01380  1.0000
  C   C1180     1.0  0.77369  0.16700  0.25366  1.0000
  H   H938      1.0  0.74178  0.35189  0.09124  1.0000
  H   H939      1.0  0.76719  0.33173  0.08190  1.0000
  H   H940      1.0  0.86568  0.46202  0.49382  1.0000
  C   C1181     1.0  0.71358  0.27345  0.00825  1.0000
  H   H941      1.0  0.79803  0.32427  0.11390  1.0000
  P   P42       1.0  0.70115  0.46943  0.06463  1.0000
  C   C1182     1.0  0.74704  0.42084  0.31421  1.0000
  H   H942      1.0  0.70591  0.34889  0.19545  1.0000
  S   S166      1.0  0.68751  0.25062  0.17465  1.0000
  H   H943      1.0  0.74955  0.30831  0.29853  1.0000
  H   H944      1.0  0.68891  0.36243  0.06672  1.0000
  H   H945      1.0  0.76511  0.42883  0.30195  1.0000
  C   C1183     1.0  0.68501  0.36645  0.04250  1.0000
  H   H946      1.0  0.87665  0.42416  0.11393  1.0000
  H   H947      1.0  0.98032  0.50205  0.41408  1.0000
  H   H948      1.0  0.71365  0.11962  0.27045  1.0000
  C   C1184     1.0  0.69004  0.30231  0.12270  1.0000
  C   C1185     1.0  0.73850  0.35262  0.06558  1.0000
  C   C1186     1.0  0.75730  0.44818  0.07633  1.0000
  C   C1187     1.0  0.87254  0.38169  0.03832  1.0000
  C   C1188     1.0  0.68014  0.11485  0.35015  1.0000
  C   C1189     1.0  0.77546  0.49130  0.26170  1.0000
  C   C1190     1.0  0.67939  0.43289  0.19234  1.0000
  H   H949      1.0  0.74005  0.20005  0.25160  1.0000
  C   C1191     1.0  0.77818  0.30895  0.11062  1.0000
  C   C1192     1.0  0.76047  0.31332  0.09269  1.0000
  H   H950      1.0  0.78384  0.28189  0.13895  1.0000
  C   C1193     1.0  0.67766  0.24805  0.40589  1.0000
  H   H951      1.0  0.74177  0.49692  0.11601  1.0000
  H   H952      1.0  0.76047  0.39424  0.06628  1.0000
  H   H953      1.0  0.87415  0.41363  0.01153  1.0000
  C   C1194     1.0  0.70298  0.49459  0.03922  1.0000
  H   H954      1.0  0.68428  0.17672  0.32835  1.0000
  H   H955      1.0  0.77976  0.47205  0.21936  1.0000
  H   H956      1.0  0.91628  0.46584  0.46156  1.0000
  C   C1195     1.0  0.69215  0.23119  0.29304  1.0000
  C   C1196     1.0  0.72220  0.50048  0.15707  1.0000
  H   H957      1.0  0.95037  0.36415  0.04143  1.0000
  C   C1197     1.0  0.74441  0.26579  0.12107  1.0000
  C   C1198     1.0  0.79498  0.49926  0.39614  1.0000
  H   H958      1.0  0.70988  0.40743  0.04890  1.0000
  C   C1199     1.0  0.70052  0.40030  0.34600  1.0000
  C   C1200     1.0  0.87464  0.38848  0.09663  1.0000
  H   H959      1.0  0.75339  0.39691  0.00759  1.0000
  C   C1201     1.0  0.69562  0.22529  0.26138  1.0000
  C   C1202     1.0  0.87294  0.37311  0.06950  1.0000
  C   C1203     1.0  0.69156  0.18425  0.27766  1.0000
  H   H960      1.0  0.75782  0.12658  0.26347  1.0000
  C   C1204     1.0  0.74892  0.37674  0.05159  1.0000
  C   C1205     1.0  0.87632  0.41268  0.09292  1.0000
  C   C1206     1.0  0.69522  0.20194  0.25366  1.0000
  H   H961      1.0  0.68487  0.21779  0.34140  1.0000
  C   C1207     1.0  0.76853  0.18759  0.25033  1.0000
  H   H962      1.0  0.93638  0.31849  0.02454  1.0000
  C   C1208     1.0  0.69694  0.39187  0.03242  1.0000
  H   H963      1.0  0.87154  0.35436  0.07290  1.0000
  H   H964      1.0  0.70130  0.25359  0.48302  1.0000
  H   H965      1.0  0.69194  0.24912  0.29874  1.0000
  H   H966      1.0  0.78389  0.20650  0.24450  1.0000
  S   S167      1.0  0.83962  0.49851  0.48811  1.0000
  C   C1209     1.0  0.68837  0.21367  0.31706  1.0000
  H   H967      1.0  0.87390  0.38138  0.12059  1.0000
  C   C1210     1.0  0.76668  0.45012  0.04536  1.0000
  C   C1211     1.0  0.69865  0.49609  0.16933  1.0000
  C   C1212     1.0  0.74485  0.37826  0.01863  1.0000
  C   C1213     1.0  0.68035  0.49443  0.02794  1.0000
  H   H968      1.0  0.78926  0.47954  0.40229  1.0000
  C   C1214     1.0  0.79543  0.30378  0.02030  1.0000
  C   C1215     1.0  0.72333  0.49326  0.12502  1.0000
  C   C1216     1.0  0.75385  0.14259  0.26099  1.0000
  H   H969      1.0  0.78368  0.29555  0.04092  1.0000
  H   H970      1.0  0.91659  0.42400  0.45760  1.0000
  C   C1217     1.0  0.74355  0.18382  0.25439  1.0000
  C   C1218     1.0  0.68042  0.43051  0.22566  1.0000
  C   C1219     1.0  0.67257  0.14122  0.22946  1.0000
  C   C1220     1.0  0.69096  0.13300  0.32634  1.0000
  H   H971      1.0  0.85161  0.41533  0.48299  1.0000
  H   H972      1.0  0.68590  0.34805  0.36119  1.0000
  H   H973      1.0  0.75460  0.48209  0.25867  1.0000
  C   C1221     1.0  0.91478  0.36254  0.02508  1.0000
  C   C1222     1.0  0.67378  0.36080  0.25506  1.0000
  H   H974      1.0  0.82857  0.33043  0.04909  1.0000
  C   C1223     1.0  0.87451  0.40622  0.03490  1.0000
  C   C1224     1.0  0.89904  0.31112  0.00592  1.0000
  C   C1225     1.0  0.67786  0.33093  0.34533  1.0000
  C   C1226     1.0  0.78959  0.48552  0.23960  1.0000
  C   C1227     1.0  0.93136  0.35219  0.03018  1.0000
  H   H975      1.0  0.69516  0.12397  0.21134  1.0000
  C   C1228     1.0  0.82096  0.32369  0.02480  1.0000
  H   H976      1.0  0.67193  0.44486  0.00408  1.0000
  C   C1229     1.0  0.67738  0.47773  0.11738  1.0000
  H   H977      1.0  0.80924  0.49562  0.35031  1.0000
  C   C1230     1.0  0.81641  0.49692  0.24372  1.0000
  H   H978      1.0  0.82726  0.49182  0.22704  1.0000
  C   C1231     1.0  0.89012  0.34717  0.01051  1.0000
  C   C1232     1.0  0.67660  0.13081  0.29792  1.0000
  C   C1233     1.0  0.67451  0.30757  0.35728  1.0000
  H   H979      1.0  0.67718  0.26941  0.23510  1.0000
  C   C1234     1.0  0.92349  0.32648  0.02064  1.0000
  C   C1235     1.0  0.67654  0.36006  0.18756  1.0000
  H   H980      1.0  0.67802  0.36033  0.16161  1.0000
  H   H981      1.0  0.74369  0.25797  0.48886  1.0000
  C   C1236     1.0  0.67891  0.12723  0.20690  1.0000
  H   H982      1.0  0.69137  0.11644  0.37189  1.0000
  H   H983      1.0  0.67992  0.30679  0.38213  1.0000
  H   H984      1.0  0.88884  0.50246  0.30519  1.0000
  C   C1237     1.0  0.83608  0.33494  0.99814  1.0000
  Fe  Fe84      1.0  0.85265  0.35573  0.56818  1.0000
  S   S168      1.0  0.85851  0.32088  0.56365  1.0000
  S   S169      1.0  0.85155  0.37634  0.52350  1.0000
  Fe  Fe85      1.0  0.84004  0.34813  0.63993  1.0000
  S   S170      1.0  0.84522  0.31306  0.64049  1.0000
  S   S171      1.0  0.82191  0.36123  0.67881  1.0000
  Fe  Fe86      1.0  0.88064  0.33657  0.61149  1.0000
  S   S172      1.0  0.91979  0.34109  0.62793  1.0000
  Fe  Fe87      1.0  0.82268  0.30064  0.59268  1.0000
  S   S173      1.0  0.78260  0.26493  0.58514  1.0000
  S   S174      1.0  0.87656  0.37245  0.61425  1.0000
  S   S175      1.0  0.81597  0.33487  0.59393  1.0000
  S   S176      1.0  0.69127  0.44261  0.93610  1.0000
  Fe  Fe88      1.0  0.81028  0.36953  0.86372  1.0000
  S   S177      1.0  0.80432  0.35457  0.91403  1.0000
  S   S178      1.0  0.83962  0.36704  0.83127  1.0000
  Fe  Fe89      1.0  0.76798  0.38414  0.86885  1.0000
  S   S179      1.0  0.75785  0.37004  0.91871  1.0000
  S   S180      1.0  0.74558  0.39972  0.84186  1.0000
  Fe  Fe90      1.0  0.80065  0.38954  0.92887  1.0000
  S   S181      1.0  0.81718  0.41621  0.97380  1.0000
  Fe  Fe91      1.0  0.76209  0.33627  0.90064  1.0000
  S   S182      1.0  0.73463  0.29604  0.91584  1.0000
  S   S183      1.0  0.81059  0.40647  0.87961  1.0000
  S   S184      1.0  0.76824  0.34845  0.84939  1.0000
  C   C1238     1.0  0.70600  0.42963  0.91080  1.0000
  C   C1239     1.0  0.73060  0.43313  0.91906  1.0000
  C   C1240     1.0  0.74279  0.42362  0.89821  1.0000
  C   C1241     1.0  0.73060  0.41120  0.86874  1.0000
  C   C1242     1.0  0.70591  0.40738  0.86076  1.0000
  C   C1243     1.0  0.69343  0.41608  0.88206  1.0000
  H   H985      1.0  0.74030  0.44331  0.94142  1.0000
  H   H986      1.0  0.76182  0.42639  0.90461  1.0000
  H   H987      1.0  0.69609  0.39698  0.83853  1.0000
  H   H988      1.0  0.67383  0.26166  0.68286  1.0000
  C   C1244     1.0  0.70497  0.28343  0.89400  1.0000
  H   H989      1.0  0.78371  0.36156  0.59564  1.0000
  H   H990      1.0  0.75493  0.39739  0.71868  1.0000
  C   C1245     1.0  0.73138  0.49179  0.86900  1.0000
  C   C1246     1.0  0.71763  0.49090  0.70993  1.0000
  C   C1247     1.0  0.70201  0.29708  0.86873  1.0000
  H   H991      1.0  0.74770  0.16421  0.57861  1.0000
  H   H992      1.0  0.70153  0.41678  0.99308  1.0000
  C   C1248     1.0  0.68416  0.25957  0.90161  1.0000
  H   H993      1.0  0.71761  0.31567  0.86311  1.0000
  C   C1249     1.0  0.95015  0.36271  0.61190  1.0000
  C   C1250     1.0  0.97305  0.36869  0.62963  1.0000
  C   C1251     1.0  0.95205  0.37269  0.58126  1.0000
  H   H994      1.0  0.97186  0.36086  0.65319  1.0000
  H   H995      1.0  0.93465  0.36813  0.56720  1.0000
  C   C1252     1.0  0.82653  0.36065  0.72096  1.0000
  C   C1253     1.0  0.80858  0.36220  0.74114  1.0000
  C   C1254     1.0  0.81237  0.36405  0.77487  1.0000
  C   C1255     1.0  0.83403  0.36397  0.78885  1.0000
  C   C1256     1.0  0.85164  0.36157  0.76869  1.0000
  C   C1257     1.0  0.84791  0.35988  0.73482  1.0000
  H   H996      1.0  0.79186  0.36244  0.73056  1.0000
  H   H997      1.0  0.79871  0.36595  0.79002  1.0000
  H   H998      1.0  0.86839  0.36133  0.77930  1.0000
  H   H999      1.0  0.86175  0.35842  0.71950  1.0000
  C   C1258     1.0  0.86010  0.42436  0.50633  1.0000
  C   C1259     1.0  0.71177  0.49681  0.87891  1.0000
  C   C1260     1.0  0.78111  0.23019  0.53698  1.0000
  C   C1261     1.0  0.76735  0.23929  0.55534  1.0000
  C   C1262     1.0  0.74022  0.22638  0.55192  1.0000
  C   C1263     1.0  0.72690  0.20416  0.53129  1.0000
  H   H1000     1.0  0.80195  0.23991  0.53918  1.0000
  H   H1001     1.0  0.72935  0.23317  0.56602  1.0000
  H   H1002     1.0  0.70601  0.19411  0.52961  1.0000
  C   C1264     1.0  0.87884  0.46239  0.54274  1.0000
  C   C1265     1.0  0.88187  0.44775  0.56663  1.0000
  C   C1266     1.0  0.87356  0.42142  0.56073  1.0000
  C   C1267     1.0  0.86262  0.40959  0.53066  1.0000
  H   H1003     1.0  0.67681  0.21246  0.97558  1.0000
  H   H1004     1.0  0.91137  0.37392  0.95816  1.0000
  H   H1005     1.0  0.89017  0.45665  0.58998  1.0000
  H   H1006     1.0  0.87543  0.41032  0.57966  1.0000
  C   C1268     1.0  0.71448  0.48506  0.81354  1.0000
  C   C1269     1.0  0.74155  0.46928  0.76673  1.0000
  H   H1007     1.0  0.68738  0.43228  0.81716  1.0000
  C   C1270     1.0  0.78480  0.16820  0.72900  1.0000
  C   C1271     1.0  0.80473  0.16233  0.72396  1.0000
  C   C1272     1.0  0.82344  0.17591  0.70163  1.0000
  C   C1273     1.0  0.82237  0.19549  0.68447  1.0000
  C   C1274     1.0  0.80269  0.20184  0.68991  1.0000
  C   C1275     1.0  0.78368  0.18777  0.71189  1.0000
  P   P43       1.0  0.80022  0.22629  0.66727  1.0000
  C   C1276     1.0  0.82899  0.24420  0.64478  1.0000
  C   C1277     1.0  0.77141  0.20883  0.64164  1.0000
  C   C1278     1.0  0.77051  0.19133  0.61739  1.0000
  H   H1008     1.0  0.70955  0.19825  0.63196  1.0000
  H   H1009     1.0  0.85680  0.41048  0.91741  1.0000
  C   C1279     1.0  0.68474  0.44224  0.76790  1.0000
  C   C1280     1.0  0.74913  0.21093  0.64716  1.0000
  C   C1281     1.0  0.82776  0.24525  0.61109  1.0000
  C   C1282     1.0  0.85018  0.25995  0.59434  1.0000
  C   C1283     1.0  0.85295  0.25850  0.66148  1.0000
  C   C1284     1.0  0.79896  0.25035  0.69387  1.0000
  C   C1285     1.0  0.80578  0.25226  0.72688  1.0000
  C   C1286     1.0  0.80703  0.27250  0.74652  1.0000
  C   C1287     1.0  0.80193  0.29117  0.73328  1.0000
  C   C1288     1.0  0.79527  0.28946  0.70054  1.0000
  C   C1289     1.0  0.79376  0.26915  0.68088  1.0000
  H   H1010     1.0  0.77010  0.15745  0.74601  1.0000
  H   H1011     1.0  0.80553  0.14709  0.73713  1.0000
  H   H1012     1.0  0.83871  0.17114  0.69742  1.0000
  H   H1013     1.0  0.83677  0.20537  0.66684  1.0000
  H   H1014     1.0  0.76794  0.19191  0.71569  1.0000
  H   H1015     1.0  0.78726  0.18895  0.61316  1.0000
  C   C1290     1.0  0.80594  0.49862  0.62873  1.0000
  H   H1016     1.0  0.74897  0.22363  0.66627  1.0000
  H   H1017     1.0  0.80953  0.23538  0.59766  1.0000
  H   H1018     1.0  0.93979  0.37719  0.68216  1.0000
  H   H1019     1.0  0.85427  0.25863  0.68754  1.0000
  H   H1020     1.0  0.81087  0.23869  0.73741  1.0000
  H   H1021     1.0  0.81261  0.27418  0.77186  1.0000
  H   H1022     1.0  0.80373  0.30733  0.74821  1.0000
  H   H1023     1.0  0.79212  0.30440  0.69018  1.0000
  H   H1024     1.0  0.78937  0.26860  0.65530  1.0000
  C   C1291     1.0  0.80914  0.47663  0.62932  1.0000
  H   H1025     1.0  0.79571  0.33592  0.52225  1.0000
  H   H1026     1.0  0.67163  0.38152  0.95591  1.0000
  C   C1292     1.0  0.69367  0.49622  0.85627  1.0000
  H   H1027     1.0  0.77217  0.28893  0.53160  1.0000
  C   C1293     1.0  0.99778  0.47762  0.59100  1.0000
  C   C1294     1.0  0.79392  0.38233  0.59329  1.0000
  C   C1295     1.0  0.74225  0.44745  0.77825  1.0000
  H   H1028     1.0  0.79777  0.46070  0.61233  1.0000
  H   H1029     1.0  0.71614  0.25384  0.96519  1.0000
  C   C1296     1.0  0.86869  0.40248  0.92638  1.0000
  C   C1297     1.0  0.71202  0.34358  0.79186  1.0000
  H   H1030     1.0  0.82858  0.42129  0.76633  1.0000
  C   C1298     1.0  0.90502  0.39474  0.92078  1.0000
  H   H1031     1.0  0.84903  0.26102  0.56840  1.0000
  H   H1032     1.0  0.72541  0.35694  0.97471  1.0000
  C   C1299     1.0  0.97311  0.41255  0.69945  1.0000
  C   C1300     1.0  0.94658  0.39587  0.69455  1.0000
  C   C1301     1.0  0.92879  0.40312  0.70562  1.0000
  C   C1302     1.0  0.93749  0.42710  0.72179  1.0000
  H   H1033     1.0  0.71927  0.47401  0.70272  1.0000
  H   H1034     1.0  0.94110  0.48684  0.55748  1.0000
  H   H1035     1.0  0.89126  0.28598  0.59826  1.0000
  C   C1303     1.0  0.76977  0.29594  0.50860  1.0000
  C   C1304     1.0  0.99751  0.38386  0.61664  1.0000
  H   H1036     1.0  0.92363  0.43259  0.73064  1.0000
  H   H1037     1.0  0.67664  0.29696  0.83065  1.0000
  H   H1038     1.0  0.67400  0.41206  0.87627  1.0000
  C   C1305     1.0  0.81239  0.41942  0.55969  1.0000
  C   C1306     1.0  0.89932  0.38186  0.94980  1.0000
  C   C1307     1.0  0.97649  0.38729  0.56794  1.0000
  H   H1039     1.0  0.85541  0.41512  0.66273  1.0000
  C   C1308     1.0  0.98212  0.43683  0.71542  1.0000
  H   H1040     1.0  0.79208  0.37989  0.54133  1.0000
  H   H1041     1.0  0.90825  0.39005  0.70176  1.0000
  C   C1309     1.0  0.78648  0.46466  0.76207  1.0000
  P   P44       1.0  0.71356  0.47351  0.77246  1.0000
  H   H1042     1.0  0.74801  0.48183  0.82972  1.0000
  C   C1310     1.0  0.88966  0.40497  0.90902  1.0000
  H   H1043     1.0  0.80386  0.46294  0.76058  1.0000
  H   H1044     1.0  0.98624  0.40613  0.69081  1.0000
  C   C1311     1.0  0.70536  0.25218  0.98661  1.0000
  H   H1045     1.0  0.92120  0.39659  0.90717  1.0000
  C   C1312     1.0  0.74806  0.17701  0.59807  1.0000
  H   H1046     1.0  0.72592  0.43246  0.78996  1.0000
  C   C1313     1.0  0.79998  0.30528  0.96257  1.0000
  C   C1314     1.0  0.79856  0.39264  0.56271  1.0000
  C   C1315     1.0  0.67005  0.43373  0.73874  1.0000
  C   C1316     1.0  0.72611  0.17947  0.60343  1.0000
  H   H1047     1.0  0.71440  0.34915  0.81728  1.0000
  C   C1317     1.0  0.71141  0.31462  0.74884  1.0000
  C   C1318     1.0  0.71409  0.32197  0.78169  1.0000
  P   P45       1.0  0.71276  0.28581  0.73617  1.0000
  C   C1319     1.0  0.73255  0.27981  0.76473  1.0000
  H   H1048     1.0  0.70649  0.31451  0.99894  1.0000
  H   H1049     1.0  0.89298  0.29123  0.99838  1.0000
  H   H1050     1.0  0.86362  0.30927  0.98910  1.0000
  S   S185      1.0  0.88770  0.49482  0.55201  1.0000
  C   C1320     1.0  0.82553  0.32513  0.96698  1.0000
  H   H1051     1.0  0.76508  0.27953  0.98555  1.0000
  C   C1321     1.0  0.75549  0.30060  0.77790  1.0000
  C   C1322     1.0  0.77034  0.29643  0.80124  1.0000
  C   C1323     1.0  0.76271  0.27137  0.81105  1.0000
  C   C1324     1.0  0.74042  0.25043  0.79715  1.0000
  C   C1325     1.0  0.72547  0.25458  0.77388  1.0000
  C   C1326     1.0  0.72794  0.28921  0.69799  1.0000
  C   C1327     1.0  0.74515  0.31380  0.68715  1.0000
  C   C1328     1.0  0.75675  0.31620  0.65752  1.0000
  C   C1329     1.0  0.75186  0.29412  0.63894  1.0000
  C   C1330     1.0  0.73545  0.26957  0.65003  1.0000
  C   C1331     1.0  0.72364  0.26707  0.67956  1.0000
  H   H1052     1.0  0.68977  0.35290  0.93296  1.0000
  H   H1053     1.0  0.80536  0.36659  0.00087  1.0000
  H   H1054     1.0  0.76525  0.42876  0.78588  1.0000
  C   C1332     1.0  0.70509  0.32837  0.72652  1.0000
  H   H1055     1.0  0.71762  0.31096  0.79968  1.0000
  H   H1056     1.0  0.79164  0.29839  0.93842  1.0000
  H   H1057     1.0  0.85065  0.44228  0.71735  1.0000
  C   C1333     1.0  0.67548  0.37692  0.97986  1.0000
  C   C1334     1.0  0.97232  0.45767  0.59250  1.0000
  C   C1335     1.0  0.67957  0.26029  0.73440  1.0000
  H   H1058     1.0  0.76164  0.32014  0.77061  1.0000
  H   H1059     1.0  0.78771  0.31270  0.81191  1.0000
  H   H1060     1.0  0.77402  0.26825  0.82953  1.0000
  H   H1061     1.0  0.99221  0.44080  0.78351  1.0000
  H   H1062     1.0  0.97041  0.46236  0.73939  1.0000
  H   H1063     1.0  0.75001  0.33116  0.70165  1.0000
  H   H1064     1.0  0.77018  0.33520  0.64937  1.0000
  H   H1065     1.0  0.76126  0.29599  0.61628  1.0000
  H   H1066     1.0  0.73221  0.25256  0.63572  1.0000
  H   H1067     1.0  0.71125  0.24790  0.68806  1.0000
  C   C1336     1.0  0.86267  0.38925  0.95505  1.0000
  C   C1337     1.0  0.99939  0.39280  0.58538  1.0000
  H   H1068     1.0  0.70884  0.16855  0.58814  1.0000
  H   H1069     1.0  0.90070  0.42428  0.66269  1.0000
  H   H1070     1.0  0.70184  0.35643  0.87644  1.0000
  H   H1071     1.0  0.83684  0.33294  0.94594  1.0000
  C   C1338     1.0  0.87801  0.37900  0.96718  1.0000
  C   C1339     1.0  0.95197  0.46126  0.58078  1.0000
  H   H1072     1.0  0.93226  0.44555  0.58110  1.0000
  H   H1073     1.0  0.68635  0.24871  0.92078  1.0000
  C   C1340     1.0  0.78492  0.29470  0.98918  1.0000
  H   H1074     1.0  0.70167  0.32226  0.70125  1.0000
  C   C1341     1.0  0.95706  0.48480  0.56765  1.0000
  H   H1075     1.0  0.99023  0.48474  0.68917  1.0000
  H   H1076     1.0  0.67748  0.25564  0.78615  1.0000
  C   C1342     1.0  0.67674  0.42603  0.79422  1.0000
  C   C1343     1.0  0.74054  0.19414  0.51439  1.0000
  H   H1077     1.0  0.89377  0.41459  0.88630  1.0000
  H   H1078     1.0  0.80035  0.39034  0.64429  1.0000
  H   H1079     1.0  0.70538  0.37474  0.77767  1.0000
  C   C1344     1.0  0.96402  0.44387  0.72671  1.0000
  C   C1345     1.0  0.68329  0.22890  0.99249  1.0000
  C   C1346     1.0  0.73293  0.48618  0.83645  1.0000
  H   H1080     1.0  0.77671  0.41846  0.66918  1.0000
  H   H1081     1.0  0.84589  0.38691  0.96769  1.0000
  C   C1347     1.0  0.70678  0.35785  0.76947  1.0000
  H   H1082     1.0  0.89371  0.28488  0.65761  1.0000
  C   C1348     1.0  0.76467  0.44528  0.77603  1.0000
  C   C1349     1.0  0.72661  0.19636  0.62800  1.0000
  C   C1350     1.0  0.67871  0.28666  0.85062  1.0000
  C   C1351     1.0  0.80322  0.39878  0.62088  1.0000
  C   C1352     1.0  0.81682  0.42575  0.61802  1.0000
  C   C1353     1.0  0.82193  0.43590  0.58719  1.0000
  P   P46       1.0  0.83096  0.44710  0.65321  1.0000
  C   C1354     1.0  0.86442  0.45466  0.65457  1.0000
  C   C1355     1.0  0.82672  0.47544  0.65167  1.0000
  H   H1083     1.0  0.73452  0.23101  0.80480  1.0000
  H   H1084     1.0  0.93590  0.46883  0.65424  1.0000
  C   C1356     1.0  0.87396  0.27396  0.61111  1.0000
  C   C1357     1.0  0.86812  0.45078  0.51241  1.0000
  H   H1085     1.0  0.78082  0.39854  0.76716  1.0000
  C   C1358     1.0  0.88432  0.47966  0.64884  1.0000
  C   C1359     1.0  0.91006  0.48483  0.64936  1.0000
  C   C1360     1.0  0.91603  0.46496  0.65461  1.0000
  C   C1361     1.0  0.89625  0.43989  0.65943  1.0000
  C   C1362     1.0  0.87056  0.43475  0.65940  1.0000
  C   C1363     1.0  0.81525  0.43140  0.68927  1.0000
  C   C1364     1.0  0.78819  0.41902  0.69018  1.0000
  C   C1365     1.0  0.77581  0.40716  0.71815  1.0000
  C   C1366     1.0  0.79038  0.40799  0.74555  1.0000
  C   C1367     1.0  0.81733  0.42086  0.74510  1.0000
  C   C1368     1.0  0.82977  0.43252  0.71710  1.0000
  H   H1086     1.0  0.81654  0.42746  0.53602  1.0000
  C   C1369     1.0  0.68168  0.34556  0.88222  1.0000
  H   H1087     1.0  0.83377  0.45656  0.58430  1.0000
  H   H1088     1.0  0.74494  0.49148  0.88674  1.0000
  C   C1370     1.0  0.87533  0.27327  0.64467  1.0000
  C   C1371     1.0  0.70308  0.35012  0.73679  1.0000
  C   C1372     1.0  0.76773  0.20751  0.51702  1.0000
  H   H1089     1.0  0.96843  0.43922  0.60200  1.0000
  H   H1090     1.0  0.67817  0.49963  0.86407  1.0000
  H   H1091     1.0  0.70828  0.23812  0.76344  1.0000
  H   H1092     1.0  0.69849  0.36087  0.71950  1.0000
  H   H1093     1.0  0.67948  0.48777  0.80702  1.0000
  C   C1373     1.0  0.67469  0.34364  0.91435  1.0000
  C   C1374     1.0  0.69464  0.48978  0.82387  1.0000
  C   C1375     1.0  0.76385  0.48906  0.75356  1.0000
  H   H1094     1.0  0.76314  0.45893  0.99612  1.0000
  H   H1095     1.0  0.67495  0.44597  0.71830  1.0000
  C   C1376     1.0  0.71365  0.49525  0.74229  1.0000
  H   H1096     1.0  0.97762  0.39371  0.54357  1.0000
  C   C1377     1.0  0.78604  0.48652  0.75075  1.0000
  H   H1097     1.0  0.85299  0.49514  0.69251  1.0000
  H   H1098     1.0  0.77849  0.19995  0.50406  1.0000
  C   C1378     1.0  0.83997  0.49602  0.67444  1.0000
  H   H1099     1.0  0.88006  0.49499  0.64300  1.0000
  C   C1379     1.0  0.88240  0.32142  0.00078  1.0000
  C   C1380     1.0  0.78294  0.32244  0.50341  1.0000
  H   H1100     1.0  0.79275  0.49968  0.61099  1.0000
  H   H1101     1.0  0.71018  0.50042  0.90427  1.0000
  C   C1381     1.0  0.72938  0.35571  0.99997  1.0000
  C   C1382     1.0  0.69234  0.39709  0.00106  1.0000
  C   C1383     1.0  0.00291  0.50125  0.57809  1.0000
  H   H1102     1.0  0.00231  0.46088  0.83853  1.0000
  H   H1103     1.0  0.80306  0.50173  0.74032  1.0000
  H   H1104     1.0  0.80169  0.59856  0.26047  1.0000
  C   C1384     1.0  0.79217  0.51581  0.41834  1.0000
  S   S186      1.0  0.86558  0.54895  0.44325  1.0000
  C   C1385     1.0  0.72707  0.51506  0.03150  1.0000
  Fe  Fe92      1.0  0.90370  0.56041  0.47015  1.0000
  C   C1386     1.0  0.98752  0.56207  0.37005  1.0000
  H   H1105     1.0  0.96658  0.55103  0.29139  1.0000
  C   C1387     1.0  0.80067  0.54160  0.41115  1.0000
  C   C1388     1.0  0.96508  0.52106  0.48475  1.0000
  C   C1389     1.0  0.97464  0.60223  0.46118  1.0000
  C   C1390     1.0  0.97992  0.58199  0.45403  1.0000
  C   C1391     1.0  0.69586  0.87411  0.40944  1.0000
  H   H1106     1.0  0.79902  0.55450  0.42889  1.0000
  H   H1107     1.0  0.67987  0.83504  0.38980  1.0000
  C   C1392     1.0  0.84814  0.59929  0.32839  1.0000
  H   H1108     1.0  0.73949  0.50898  0.17259  1.0000
  H   H1109     1.0  0.92266  0.58899  0.29137  1.0000
  H   H1110     1.0  0.95093  0.53637  0.34592  1.0000
  C   C1393     1.0  0.69118  0.89157  0.42764  1.0000
  Fe  Fe93      1.0  0.84632  0.53930  0.49133  1.0000
  H   H1111     1.0  0.99194  0.64328  0.47193  1.0000
  H   H1112     1.0  0.71481  0.88028  0.39999  1.0000
  P   P47       1.0  0.83156  0.54642  0.32237  1.0000
  C   C1394     1.0  0.80645  0.50851  0.36680  1.0000
  H   H1113     1.0  0.75828  0.53622  0.49387  1.0000
  H   H1114     1.0  0.93905  0.58135  0.34331  1.0000
  C   C1395     1.0  0.83144  0.62197  0.29618  1.0000
  H   H1115     1.0  0.96401  0.56266  0.44962  1.0000
  H   H1116     1.0  0.78404  0.50889  0.44154  1.0000
  C   C1396     1.0  0.81534  0.52140  0.29106  1.0000
  C   C1397     1.0  0.98205  0.50844  0.43914  1.0000
  C   C1398     1.0  0.81521  0.53445  0.35945  1.0000
  H   H1117     1.0  0.94659  0.51047  0.43737  1.0000
  C   C1399     1.0  0.78826  0.50911  0.28741  1.0000
  C   C1400     1.0  0.97952  0.55967  0.31237  1.0000
  S   S187      1.0  0.81030  0.54447  0.49741  1.0000
  H   H1118     1.0  0.83151  0.63977  0.29016  1.0000
  C   C1401     1.0  0.67617  0.84864  0.40367  1.0000
  C   C1402     1.0  0.83114  0.57580  0.31193  1.0000
  C   C1403     1.0  0.90122  0.56009  0.36243  1.0000
  H   H1119     1.0  0.81899  0.57110  0.37724  1.0000
  C   C1404     1.0  0.87468  0.55053  0.35686  1.0000
  Fe  Fe94      1.0  0.86036  0.50856  0.44155  1.0000
  C   C1405     1.0  0.68177  0.51376  0.00797  1.0000
  C   C1406     1.0  0.90927  0.57823  0.30965  1.0000
  S   S188      1.0  0.94230  0.59727  0.46229  1.0000
  S   S189      1.0  0.89944  0.52051  0.46501  1.0000
  C   C1407     1.0  0.81216  0.55095  0.38184  1.0000
  H   H1120     1.0  0.86128  0.64024  0.33355  1.0000
  C   C1408     1.0  0.88278  0.56916  0.30432  1.0000
  C   C1409     1.0  0.81446  0.57573  0.28726  1.0000
  H   H1121     1.0  0.70652  0.91126  0.43237  1.0000
  H   H1122     1.0  0.90834  0.55691  0.38524  1.0000
  H   H1123     1.0  0.86163  0.53958  0.37526  1.0000
  H   H1124     1.0  0.80140  0.55812  0.27378  1.0000
  C   C1410     1.0  0.91850  0.57387  0.33883  1.0000
  H   H1125     1.0  0.87595  0.57327  0.28195  1.0000
  C   C1411     1.0  0.86526  0.55522  0.32792  1.0000
  C   C1412     1.0  0.81462  0.59874  0.27949  1.0000
  C   C1413     1.0  0.97073  0.55129  0.34307  1.0000
  C   C1414     1.0  0.84821  0.62224  0.32059  1.0000
  H   H1126     1.0  0.98074  0.55548  0.39382  1.0000
  H   H1127     1.0  0.86127  0.59985  0.34744  1.0000
  C   C1415     1.0  0.99568  0.62738  0.46651  1.0000
  H   H1128     1.0  0.74479  0.51602  0.04078  1.0000
  C   C1416     1.0  0.72846  0.53443  0.01159  1.0000
  H   H1129     1.0  0.77707  0.51368  0.30411  1.0000
  H   H1130     1.0  0.85002  0.52298  0.27216  1.0000
  H   H1131     1.0  0.94986  0.52398  0.49472  1.0000
  C   C1417     1.0  0.96305  0.51313  0.45226  1.0000
  H   H1132     1.0  0.88264  0.50620  0.36387  1.0000
  C   C1418     1.0  0.82929  0.51473  0.26940  1.0000
  H   H1133     1.0  0.74710  0.55000  0.00539  1.0000
  C   C1419     1.0  0.93682  0.56935  0.57216  1.0000
  H   H1134     1.0  0.70688  0.54861  0.98410  1.0000
  Fe  Fe95      1.0  0.68950  0.52766  0.60724  1.0000
  S   S190      1.0  0.73341  0.54285  0.60567  1.0000
  C   C1420     1.0  0.95332  0.57854  0.54646  1.0000
  C   C1421     1.0  0.95171  0.53837  0.58241  1.0000
  H   H1135     1.0  0.95386  0.59400  0.53235  1.0000
  C   C1422     1.0  0.75339  0.54045  0.57536  1.0000
  C   C1423     1.0  0.77790  0.54362  0.58452  1.0000
  C   C1424     1.0  0.79513  0.54373  0.56126  1.0000
  C   C1425     1.0  0.78836  0.54134  0.52831  1.0000
  H   H1136     1.0  0.71315  0.55243  0.73416  1.0000
  C   C1426     1.0  0.74627  0.53712  0.54248  1.0000
  H   H1137     1.0  0.78379  0.54648  0.60979  1.0000
  H   H1138     1.0  0.81402  0.54669  0.56877  1.0000
  H   H1139     1.0  0.92439  0.57754  0.57782  1.0000
  H   H1140     1.0  0.72110  0.54473  0.67748  1.0000
  S   S191      1.0  0.67255  0.53930  0.64940  1.0000
  C   C1427     1.0  0.76374  0.53790  0.51921  1.0000
  H   H1141     1.0  0.69156  0.63600  0.67631  1.0000
  C   C1428     1.0  0.72007  0.50859  0.68670  1.0000
  C   C1429     1.0  0.96893  0.56760  0.53864  1.0000
  C   C1430     1.0  0.96787  0.54708  0.55612  1.0000
  S   S192      1.0  0.88485  0.55459  0.51831  1.0000
  H   H1142     1.0  0.98192  0.57524  0.51902  1.0000
  C   C1431     1.0  0.93609  0.54936  0.59019  1.0000
  H   H1143     1.0  0.92286  0.54191  0.60964  1.0000
  H   H1144     1.0  0.81732  0.53637  0.65016  1.0000
  C   C1432     1.0  0.71870  0.53085  0.69552  1.0000
  C   C1433     1.0  0.71442  0.53524  0.72747  1.0000
  H   H1145     1.0  0.72770  0.53493  0.53490  1.0000
  Fe  Fe96      1.0  0.87896  0.51417  0.51143  1.0000
  C   C1434     1.0  0.67358  0.62159  0.68586  1.0000
  C   C1435     1.0  0.71208  0.51764  0.75085  1.0000
  H   H1146     1.0  0.95094  0.52308  0.59681  1.0000
  H   H1147     1.0  0.67486  0.58960  0.66166  1.0000
  P   P48       1.0  0.98915  0.53423  0.54622  1.0000
  H   H1148     1.0  0.84723  0.53395  0.69114  1.0000
  H   H1149     1.0  0.70951  0.52197  0.77546  1.0000
  C   C1436     1.0  0.83664  0.51794  0.67387  1.0000
  C   C1437     1.0  0.81977  0.51931  0.65087  1.0000
  H   H1150     1.0  0.76430  0.50664  0.74577  1.0000
  H   H1151     1.0  0.72322  0.50525  0.66177  1.0000
  H   H1152     1.0  0.92528  0.50411  0.64482  1.0000
  C   C1438     1.0  0.70581  0.53368  0.99965  1.0000
  C   C1439     1.0  0.98255  0.50524  0.56695  1.0000
  C   C1440     1.0  0.98657  0.52505  0.50404  1.0000
