data_image0
_chemical_formula_structural       SHCH2SC7H2C6H5CPCH3CSHC2HC4H7CHCH2C2H2CH2C6H2CHCHC2HC3H2CH3CH3C2HCH2CH2C2HCHCH3C3H2C3H5C4HC2HC2H4C5HCH2C2HCH3C2HC3PC4FeCSFeCSHCS2FeS2FeS2FeSFeS3CSFeHCFeS2FeS2CFeS2FeS2FeSFeS3CHC4H6C2HCH2C6H4C6H4C6H4C2H2C5HC2HC2HC2H2C6H4CHC4HC2HCH3C2H3CHCH3CH3CHC6H2CHCH8C3H3CSCH3C2SC3HC2H3CHC3HCH2CH2C5HFeHP2HC3SHCPCHC6PC18H22CH2C3HCH3C2HC2H2C5HCHC3H4CH3C4H6CHCHCH2CH2CFeHC2HC6PC16HSCHC2H2CHCHC2HCHPC2HFeCSFeCSC2HS2FeS2FeS2FeH2SFeHSFeCSFeS4FeCSFeCSHS2C3HCH2C6HPH2CHCH2CFeHC2H2C4H4CHC8H2C2HCH3C2HC2HCH2CHC2HCPC2HCH3C2SCH2C2H2CH3C2HCHCHSC6PC18H19CHSHC3HC2HCHC6HCHC2H2C2HCH6C2HC4HCH2CHCH6CHCHSFeS2FeS2FeSFeS3FeCSFeCSHFeCS2HSFeS2FeSFeSFeS3FeS2FeS2FeSFeS3C4H2C6H4CH2C6H4CHC4H7C6H4C2HCH2C6H4C6H3C8PC18H20C2HC7PC10HC7H10CH9CH2C11H10C2PCH2CHCSCH2C3HCH2CHCHCHC2H2C4H2C3HC2HC6PC18H11C2H7C3H3CHCHCHC4H2C5HC2HC4H3CHC3H5C2HC4HCHSH8CSC2FeCH4CHC2PC4H2CSCHC2HCFeC2H3CH4CPCHC2H3SHC3HCHPHCHC3H2C3HCPHCHCHCHCHC3H2C2H2CHCH2CH2C4H2CHCH2PHC2HCHCSCHCHCHFeHC2HC2HSHSFeS2FeS2FeSFeS3FeS2FeSCFeSFeS5CSCSFeSFeSHFeS2FeS2FeSFeS3H3C7H5C4H2CH3CHCSC6H6C4H2C6H4C6H6C8H4C6H8C3PH2CHC2HCH4C4HC3HFeHC2HC3HC2HC2H3CHFeC6PC12H2CH10CHC7PC19H18C3PC16H13C6PC18H10CFeC2H2PCH2C2H2SC7HC3H2C3HC3H2CH3C3HCHPHCHC2HCH2C3H2C3PH5C5PHCFeH5CH2CH2C2H5C4H2CH3CH2CH2CH2C2HCH2C4HCH3C3H3C4HSC6H3C2HC6H2CH5C4H2CPHC4HSC2HC3HC2HCH2CHC3SH3C2HC3HC2H4CHC2HCPCHC3FeH7C5H2C2HCH2C2H2C3H2CHC3HCH4C4S2HSCSFeSFeSFeS2FeS2FeSFeS5FeS2FeS2FeSFeS3FeS2FeSHFeSFeS3CPCHC2HCH2C6H4C6H4C6H4C6H4CH3C2HC6H7C6H4C3H5CH2C2H3C3H2CPC2H2C4FeCPH2C4H2C2PCHC3HC2PH2C7H2C2H2CH2C4H6C6PC7HCHC3H10CH3C2H2C3H4PCH2C4HC3HCHCH2CHCHC2HCHSCH2C6HC4HC4PC16H6CH3CH4CH2C4HCHCHC4HC2HCH5C4HC8HCH2C3HCHCH2C5HC4H2CH2C6H2C3HPC4HCHC5HCH3C3H2CH2CHC5HCH2C6H4C2HC4HC2H2C2HC2H5SH2CHFeC2H2PHC2HCHCH2C3H2C2H2C3HCHC4H5CH5CHCH2C4H2CHC2H3CHCH3CH2CHCHCH3CH2CH2C3SH2CSHCHC2H5CHPFeHCSFeSFeSCFeSFeS3FeS2FeS2FeSFeS4FeS2FeS2FeSFeS3FeSFeS2FeSFeS3C4HCHC6H4C3HC6H4C6H4C2HC6H4C6H4C3H3C7H6C3HC7HC2HC2H6CH4C4HC7PC16H15C6PC15HCH2CH14C5HFeH2CHCH4CHC3H2C2PHC4H4CHC2H2C3HCH3C2H2CH3C3HCPC2HCH2C2H2CHC3H2C3HC4HSC3HC2H2C2HCHCHCHCPCH3CHC3H2C2SHC2H2CHCHC2H2CHSHCHCH2C7H3C2HC2HCH2CHC2HC9H3C4H2C2HCH2CHCH2CHCHCHCH2C2H4PCHPH5C3HC3HCH2CH2C3H3C2HC2FeHSFeS2CS2FeS2CSFeSFeSCHFeSCHSFeSFeS3FeS2FeS2Fe2S3C5HC6H3PCHC9H3C4H2C6H4CH2C2H2C2PCHC2HC4H2CFeC5HC3HC5HPC2HCH2C2HC2H4C7H2C2H2CHC2HC3HC2H3CH2CHCHPC2HCHC2H2C2H2CSH9CHC2H4CHCHCH4C2HC2HCH2CH3CHC5H2C2H2C2PC3HCH2CHC2H6SCH2C2FeHC2H2SH3CHC2H2CHCH2C2HC2H2FeS2FeS2FeSFeS3FeS2FeS2FeSHS2PSFeS2FeS2FeSFeS3Fe2SFeCHPCHS2CHC8H4C5H2C6H4C6H5C9H4C6H4C4H3C4H3CHC4H2CH4PH5C2SH4CHC2HC2HC7PC2PHC4H3C4HCH2CH6C2H3CH4C2H2C2H3CHC2H3CHC2HSHFeC3H2C3H2C5HC6PC14H10C5H5SCH3C3HC2HC5H2FeC2HC2HCHCH2CFeCHC2HCH2C2HC2HC3HSC2HCH5C3HCHC2HCHCHCHCHC2H2CHC3H2CHCH3C2H2CHCPCHC4HSHC2H3C5HC2HC2HC2H2C2H4PC2HCHC2HCHC3H2SHC7H6CHC5HC2HSCH2C7H2C3HC2HC3HCH7C2HC2HCSH2C2HCH2CHPCHCHSHC2HCH4CHCHC4H3CHC5H3C2HC2H3CH2CH2C2HC2H2PHC4HC2
_chemical_formula_sum              "S256 H1536 C1920 P64 Fe128"
_cell_length_a       56.6951
_cell_length_b       56.566
_cell_length_c       48.8483
_cell_angle_alpha    90.0269
_cell_angle_beta     90.2552
_cell_angle_gamma    88.8496

_space_group_name_H-M_alt    "P 1"
_space_group_IT_number       1

loop_
  _space_group_symop_operation_xyz
  'x, y, z'

loop_
  _atom_site_type_symbol
  _atom_site_label
  _atom_site_symmetry_multiplicity
  _atom_site_fract_x
  _atom_site_fract_y
  _atom_site_fract_z
  _atom_site_occupancy
  S   S1        1.0  0.39865  0.02624  0.07933  1.0000
  H   H1        1.0  0.45529  0.23914  0.04248  1.0000
  C   C1        1.0  0.12559  0.01254  0.18904  1.0000
  H   H2        1.0  0.47081  0.16420  0.04412  1.0000
  H   H3        1.0  0.05118  0.03987  0.01396  1.0000
  S   S2        1.0  0.08928  0.01888  0.09499  1.0000
  C   C2        1.0  0.06066  0.03152  0.10103  1.0000
  C   C3        1.0  0.04317  0.01954  0.11528  1.0000
  C   C4        1.0  0.02130  0.03085  0.12091  1.0000
  C   C5        1.0  0.01639  0.05415  0.11207  1.0000
  C   C6        1.0  0.03355  0.06585  0.09704  1.0000
  C   C7        1.0  0.05558  0.05466  0.09178  1.0000
  C   C8        1.0  0.41923  0.21959  0.07744  1.0000
  H   H4        1.0  0.42553  0.15469  0.02075  1.0000
  H   H5        1.0  0.06894  0.06417  0.08081  1.0000
  C   C9        1.0  0.42099  0.04329  0.09556  1.0000
  C   C10       1.0  0.43015  0.06283  0.08153  1.0000
  C   C11       1.0  0.44830  0.07652  0.09301  1.0000
  C   C12       1.0  0.45721  0.07119  0.11910  1.0000
  C   C13       1.0  0.44783  0.05187  0.13331  1.0000
  C   C14       1.0  0.42999  0.03790  0.12159  1.0000
  H   H6        1.0  0.42295  0.06755  0.06173  1.0000
  H   H7        1.0  0.45517  0.09136  0.08183  1.0000
  H   H8        1.0  0.45444  0.04760  0.15356  1.0000
  H   H9        1.0  0.42311  0.02307  0.13278  1.0000
  H   H10       1.0  0.25207  0.05174  0.16546  1.0000
  C   C15       1.0  0.26339  0.03643  0.16927  1.0000
  P   P1        1.0  0.43073  0.19556  0.05685  1.0000
  C   C16       1.0  0.49018  0.22845  0.03045  1.0000
  H   H11       1.0  0.49247  0.20183  0.23731  1.0000
  H   H12       1.0  0.04531  0.01060  0.05083  1.0000
  H   H13       1.0  0.05300  0.03273  0.17793  1.0000
  C   C17       1.0  0.46736  0.22426  0.03975  1.0000
  S   S3        1.0  0.47974  0.08806  0.13514  1.0000
  H   H14       1.0  0.29494  0.05358  0.15590  1.0000
  C   C18       1.0  0.11884  0.00802  0.21598  1.0000
  C   C19       1.0  0.44562  0.14663  0.11639  1.0000
  H   H15       1.0  0.00848  0.04084  0.99974  1.0000
  C   C20       1.0  0.09630  0.99964  0.22144  1.0000
  C   C21       1.0  0.43445  0.23259  0.09418  1.0000
  C   C22       1.0  0.40963  0.13453  0.09415  1.0000
  C   C23       1.0  0.44668  0.16614  0.09888  1.0000
  H   H16       1.0  0.32077  0.01847  0.16416  1.0000
  H   H17       1.0  0.45917  0.14370  0.13183  1.0000
  H   H18       1.0  0.46093  0.17842  0.10126  1.0000
  H   H19       1.0  0.00823  0.02164  0.13267  1.0000
  H   H20       1.0  0.38269  0.21394  0.06662  1.0000
  H   H21       1.0  0.03016  0.08382  0.09028  1.0000
  H   H22       1.0  0.47429  0.30615  0.20305  1.0000
  C   C24       1.0  0.38604  0.24298  0.09461  1.0000
  H   H23       1.0  0.36724  0.24683  0.09510  1.0000
  C   C25       1.0  0.40142  0.25642  0.11042  1.0000
  H   H24       1.0  0.09138  0.99672  0.24251  1.0000
  H   H25       1.0  0.99610  0.00432  0.02284  1.0000
  C   C26       1.0  0.10999  0.00817  0.16752  1.0000
  C   C27       1.0  0.41055  0.15417  0.07677  1.0000
  H   H26       1.0  0.39527  0.12224  0.09249  1.0000
  H   H27       1.0  0.49129  0.26551  0.20773  1.0000
  C   C28       1.0  0.42957  0.16968  0.07841  1.0000
  H   H28       1.0  0.14284  0.01955  0.18476  1.0000
  H   H29       1.0  0.42667  0.11543  0.12725  1.0000
  C   C29       1.0  0.39487  0.22448  0.07834  1.0000
  C   C30       1.0  0.28752  0.03749  0.16386  1.0000
  C   C31       1.0  0.41474  0.19146  0.02525  1.0000
  C   C32       1.0  0.44108  0.04130  0.00737  1.0000
  C   C33       1.0  0.42723  0.13071  0.11386  1.0000
  C   C34       1.0  0.49245  0.30249  0.19737  1.0000
  H   H30       1.0  0.04380  0.00780  0.26119  1.0000
  H   H31       1.0  0.00235  0.00081  0.07988  1.0000
  C   C35       1.0  0.03653  0.03205  0.18892  1.0000
  H   H32       1.0  0.39461  0.27079  0.12298  1.0000
  C   C36       1.0  0.25380  0.01555  0.17927  1.0000
  H   H33       1.0  0.39637  0.15718  0.06222  1.0000
  C   C37       1.0  0.02043  0.05095  0.18599  1.0000
  C   C38       1.0  0.30207  0.01766  0.16838  1.0000
  H   H34       1.0  0.23507  0.01517  0.18310  1.0000
  C   C39       1.0  0.46039  0.20112  0.04565  1.0000
  C   C40       1.0  0.42560  0.25113  0.11031  1.0000
  C   C41       1.0  0.05257  0.00497  0.03134  1.0000
  H   H35       1.0  0.23846  0.00452  0.09982  1.0000
  H   H36       1.0  0.45136  0.20951  0.49813  1.0000
  C   C42       1.0  0.40307  0.21065  0.01251  1.0000
  H   H37       1.0  0.46965  0.03669  0.04984  1.0000
  H   H38       1.0  0.48180  0.25367  0.13781  1.0000
  H   H39       1.0  0.02460  0.06578  0.17292  1.0000
  C   C43       1.0  0.05590  0.02145  0.01049  1.0000
  H   H40       1.0  0.46134  0.16746  0.48828  1.0000
  H   H41       1.0  0.13088  0.01144  0.23273  1.0000
  H   H42       1.0  0.43757  0.26131  0.12281  1.0000
  C   C44       1.0  0.03094  0.01247  0.20518  1.0000
  C   C45       1.0  0.99857  0.05042  0.19900  1.0000
  H   H43       1.0  0.45318  0.22840  0.09492  1.0000
  C   C46       1.0  0.29252  0.99664  0.17792  1.0000
  H   H44       1.0  0.44019  0.05693  0.02015  1.0000
  H   H45       1.0  0.04666  0.00181  0.12264  1.0000
  C   C47       1.0  0.00886  0.01205  0.21815  1.0000
  H   H46       1.0  0.40582  0.03087  0.01760  1.0000
  H   H47       1.0  0.11506  0.01199  0.14663  1.0000
  C   C48       1.0  0.42149  0.02674  0.00565  1.0000
  C   C49       1.0  0.47619  0.18221  0.04082  1.0000
  H   H48       1.0  0.40320  0.22809  0.02167  1.0000
  C   C50       1.0  0.41567  0.16945  0.01191  1.0000
  H   H49       1.0  0.49301  0.14116  0.00139  1.0000
  C   C51       1.0  0.48726  0.04328  0.05235  1.0000
  H   H50       1.0  0.48923  0.29425  0.12053  1.0000
  H   H51       1.0  0.48752  0.03535  0.09549  1.0000
  H   H52       1.0  0.00386  0.99687  0.23016  1.0000
  C   C52       1.0  0.49373  0.25606  0.12086  1.0000
  C   C53       1.0  0.08764  0.99929  0.17285  1.0000
  C   C54       1.0  0.48977  0.10345  0.99983  1.0000
  H   H53       1.0  0.45895  0.14898  0.97030  1.0000
  H   H54       1.0  0.02309  0.08568  0.94234  1.0000
  C   C55       1.0  0.01206  0.07031  0.94051  1.0000
  C   C56       1.0  0.12962  0.04023  0.90867  1.0000
  C   C57       1.0  0.47600  0.03518  0.76938  1.0000
  H   H55       1.0  0.01614  0.01094  0.93053  1.0000
  H   H56       1.0  0.13973  0.05385  0.89881  1.0000
  H   H57       1.0  0.05753  0.00115  0.90712  1.0000
  H   H58       1.0  0.12191  0.02206  0.87099  1.0000
  H   H59       1.0  0.13564  0.05358  0.94937  1.0000
  C   C58       1.0  0.46238  0.01543  0.97626  1.0000
  C   C59       1.0  0.10319  0.00508  0.93419  1.0000
  C   C60       1.0  0.11435  0.02245  0.94990  1.0000
  C   C61       1.0  0.46186  0.03547  0.99318  1.0000
  H   H60       1.0  0.04130  0.04587  0.93548  1.0000
  C   C62       1.0  0.12721  0.04014  0.93713  1.0000
  C   C63       1.0  0.39144  0.20753  0.98749  1.0000
  H   H61       1.0  0.47127  0.05139  0.75870  1.0000
  C   C64       1.0  0.11949  0.02238  0.89300  1.0000
  C   C65       1.0  0.00803  0.02810  0.93412  1.0000
  H   H62       1.0  0.38273  0.18299  0.95540  1.0000
  H   H63       1.0  0.06847  0.02731  0.96976  1.0000
  H   H64       1.0  0.11344  0.02216  0.97205  1.0000
  H   H65       1.0  0.48512  0.01530  0.89575  1.0000
  C   C66       1.0  0.02231  0.04786  0.93681  1.0000
  C   C67       1.0  0.44252  0.00125  0.97388  1.0000
  C   C68       1.0  0.42219  0.00672  0.98890  1.0000
  C   C69       1.0  0.39175  0.18537  0.97479  1.0000
  C   C70       1.0  0.06599  0.01431  0.98564  1.0000
  H   H66       1.0  0.47921  0.23394  0.52475  1.0000
  C   C71       1.0  0.46397  0.13096  0.97555  1.0000
  H   H67       1.0  0.43715  0.11529  0.95044  1.0000
  H   H68       1.0  0.47811  0.01061  0.96510  1.0000
  C   C72       1.0  0.45858  0.08874  0.97088  1.0000
  C   C73       1.0  0.46805  0.20193  0.50506  1.0000
  H   H69       1.0  0.45120  0.01425  0.74706  1.0000
  C   C74       1.0  0.45173  0.11200  0.96441  1.0000
  H   H70       1.0  0.49392  0.06549  0.93778  1.0000
  H   H71       1.0  0.44919  0.07429  0.96158  1.0000
  H   H72       1.0  0.38233  0.22237  0.97782  1.0000
  C   C75       1.0  0.10664  0.00465  0.90573  1.0000
  C   C76       1.0  0.48378  0.21570  0.51997  1.0000
  H   H73       1.0  0.40448  0.14926  0.97695  1.0000
  C   C77       1.0  0.48304  0.12663  0.99315  1.0000
  C   C78       1.0  0.40397  0.16637  0.98694  1.0000
  C   C79       1.0  0.47754  0.08427  0.98892  1.0000
  P   P2        1.0  0.48724  0.05421  0.99607  1.0000
  C   C80       1.0  0.46480  0.01409  0.76270  1.0000
  C   C81       1.0  0.48149  0.99726  0.90159  1.0000
  C   C82       1.0  0.47370  0.17825  0.49946  1.0000
  C   C83       1.0  0.49338  0.03538  0.78979  1.0000
  Fe  Fe1       1.0  0.34528  0.62615  0.31973  1.0000
  C   C84       1.0  0.39762  0.53418  0.27338  1.0000
  S   S4        1.0  0.35497  0.59818  0.28760  1.0000
  Fe  Fe2       1.0  0.33900  0.63265  0.38246  1.0000
  C   C85       1.0  0.24574  0.65328  0.34386  1.0000
  S   S5        1.0  0.34659  0.61277  0.42210  1.0000
  H   H74       1.0  0.04749  0.49354  0.16586  1.0000
  C   C86       1.0  0.35222  0.48099  0.16367  1.0000
  S   S6        1.0  0.31589  0.61827  0.34895  1.0000
  S   S7        1.0  0.36961  0.63747  0.35380  1.0000
  Fe  Fe3       1.0  0.35972  0.52922  0.09787  1.0000
  S   S8        1.0  0.36592  0.56833  0.09214  1.0000
  S   S9        1.0  0.39430  0.50745  0.09282  1.0000
  Fe  Fe4       1.0  0.30581  0.53796  0.10323  1.0000
  S   S10       1.0  0.30908  0.57696  0.09688  1.0000
  S   S11       1.0  0.27086  0.52104  0.11563  1.0000
  Fe  Fe5       1.0  0.33511  0.56774  0.06335  1.0000
  S   S12       1.0  0.33275  0.58794  0.02261  1.0000
  Fe  Fe6       1.0  0.33977  0.57439  0.12623  1.0000
  S   S13       1.0  0.34217  0.60424  0.15786  1.0000
  S   S14       1.0  0.32955  0.52850  0.06748  1.0000
  S   S15       1.0  0.33569  0.53561  0.13421  1.0000
  C   C87       1.0  0.24917  0.60186  0.02779  1.0000
  S   S16       1.0  0.44206  0.40565  0.11725  1.0000
  Fe  Fe7       1.0  0.10490  0.64568  0.38405  1.0000
  H   H75       1.0  0.28231  0.54981  0.16042  1.0000
  C   C88       1.0  0.28995  0.58866  0.44575  1.0000
  Fe  Fe8       1.0  0.10562  0.61921  0.32798  1.0000
  S   S17       1.0  0.14075  0.63383  0.31706  1.0000
  S   S18       1.0  0.09016  0.59060  0.30027  1.0000
  Fe  Fe9       1.0  0.15051  0.62604  0.36058  1.0000
  S   S19       1.0  0.18484  0.60919  0.37364  1.0000
  S   S20       1.0  0.11648  0.60907  0.37118  1.0000
  C   C89       1.0  0.04898  0.57189  0.01330  1.0000
  Fe  Fe10      1.0  0.12833  0.53748  0.09259  1.0000
  S   S21       1.0  0.10483  0.56990  0.09559  1.0000
  S   S22       1.0  0.16523  0.54559  0.07598  1.0000
  Fe  Fe11      1.0  0.08800  0.50613  0.11322  1.0000
  S   S23       1.0  0.06307  0.53706  0.11869  1.0000
  S   S24       1.0  0.07716  0.46850  0.12444  1.0000
  Fe  Fe12      1.0  0.07603  0.54843  0.07710  1.0000
  S   S25       1.0  0.04686  0.55949  0.04668  1.0000
  Fe  Fe13      1.0  0.09419  0.55594  0.13681  1.0000
  S   S26       1.0  0.09622  0.58488  0.16958  1.0000
  S   S27       1.0  0.09997  0.51665  0.07105  1.0000
  S   S28       1.0  0.11861  0.52423  0.13429  1.0000
  C   C90       1.0  0.02334  0.48307  0.01365  1.0000
  H   H76       1.0  0.17845  0.57026  0.41855  1.0000
  C   C91       1.0  0.03200  0.46658  0.10137  1.0000
  C   C92       1.0  0.05031  0.45450  0.11510  1.0000
  C   C93       1.0  0.04717  0.43058  0.12198  1.0000
  C   C94       1.0  0.02625  0.41877  0.11488  1.0000
  H   H77       1.0  0.03402  0.48497  0.09594  1.0000
  H   H78       1.0  0.06116  0.42101  0.13258  1.0000
  H   H79       1.0  0.02440  0.40025  0.11972  1.0000
  H   H80       1.0  0.29972  0.65120  0.49597  1.0000
  H   H81       1.0  0.31449  0.64824  0.44785  1.0000
  H   H82       1.0  0.01589  0.56312  0.48979  1.0000
  C   C95       1.0  0.09766  0.64757  0.45751  1.0000
  C   C96       1.0  0.11505  0.62993  0.46080  1.0000
  H   H83       1.0  0.46162  0.51732  0.18405  1.0000
  C   C97       1.0  0.47399  0.45991  0.16810  1.0000
  H   H84       1.0  0.01507  0.44930  0.03220  1.0000
  H   H85       1.0  0.13414  0.60774  0.48945  1.0000
  C   C98       1.0  0.09344  0.58863  0.26405  1.0000
  C   C99       1.0  0.08743  0.56760  0.25041  1.0000
  C   C100      1.0  0.08896  0.56572  0.22160  1.0000
  C   C101      1.0  0.09610  0.58508  0.20605  1.0000
  C   C102      1.0  0.10258  0.60588  0.21975  1.0000
  C   C103      1.0  0.10146  0.60761  0.24854  1.0000
  H   H86       1.0  0.08131  0.55278  0.26221  1.0000
  H   H87       1.0  0.08400  0.54958  0.21141  1.0000
  H   H88       1.0  0.10812  0.62096  0.20797  1.0000
  H   H89       1.0  0.10611  0.62389  0.25867  1.0000
  C   C104      1.0  0.24147  0.52981  0.10625  1.0000
  C   C105      1.0  0.22227  0.51872  0.11879  1.0000
  C   C106      1.0  0.19878  0.52378  0.11045  1.0000
  C   C107      1.0  0.19422  0.53980  0.08913  1.0000
  C   C108      1.0  0.21340  0.55121  0.07700  1.0000
  C   C109      1.0  0.23681  0.54643  0.08566  1.0000
  H   H90       1.0  0.22566  0.50571  0.13458  1.0000
  H   H91       1.0  0.18427  0.51486  0.12001  1.0000
  H   H92       1.0  0.21018  0.56359  0.06049  1.0000
  H   H93       1.0  0.25131  0.55509  0.07588  1.0000
  C   C110      1.0  0.40716  0.47917  0.10085  1.0000
  C   C111      1.0  0.43153  0.47548  0.09667  1.0000
  C   C112      1.0  0.44252  0.45324  0.10171  1.0000
  C   C113      1.0  0.42923  0.43428  0.11101  1.0000
  C   C114      1.0  0.40494  0.43809  0.11567  1.0000
  C   C115      1.0  0.39394  0.46032  0.11054  1.0000
  H   H94       1.0  0.44199  0.48986  0.08914  1.0000
  H   H95       1.0  0.46121  0.45073  0.09813  1.0000
  H   H96       1.0  0.39448  0.42363  0.12296  1.0000
  H   H97       1.0  0.37519  0.46270  0.11361  1.0000
  C   C116      1.0  0.06988  0.58151  0.00368  1.0000
  C   C117      1.0  0.20050  0.60481  0.46949  1.0000
  H   H98       1.0  0.14978  0.61079  0.09422  1.0000
  H   H99       1.0  0.19081  0.63892  0.42665  1.0000
  C   C118      1.0  0.05146  0.45712  0.03723  1.0000
  C   C119      1.0  0.20379  0.64595  0.34582  1.0000
  C   C120      1.0  0.20817  0.62655  0.36289  1.0000
  C   C121      1.0  0.23127  0.62090  0.37112  1.0000
  C   C122      1.0  0.25009  0.63434  0.36166  1.0000
  H   H100      1.0  0.24137  0.65255  0.20961  1.0000
  C   C123      1.0  0.18791  0.59542  0.49160  1.0000
  C   C124      1.0  0.22133  0.48173  0.06316  1.0000
  H   H101      1.0  0.48865  0.44104  0.00147  1.0000
  C   C125      1.0  0.33768  0.61854  0.45632  1.0000
  C   C126      1.0  0.32150  0.63655  0.46352  1.0000
  H   H102      1.0  0.49448  0.49151  0.16801  1.0000
  C   C127      1.0  0.24567  0.48376  0.06675  1.0000
  C   C128      1.0  0.34641  0.60332  0.47680  1.0000
  H   H103      1.0  0.39653  0.55789  0.20656  1.0000
  H   H104      1.0  0.35882  0.58929  0.47147  1.0000
  C   C129      1.0  0.34907  0.59993  0.25187  1.0000
  C   C130      1.0  0.34381  0.62142  0.23889  1.0000
  C   C131      1.0  0.34110  0.62231  0.21017  1.0000
  C   C132      1.0  0.34331  0.60170  0.19414  1.0000
  C   C133      1.0  0.34749  0.58003  0.20726  1.0000
  C   C134      1.0  0.35053  0.57922  0.23594  1.0000
  H   H105      1.0  0.34255  0.63743  0.25090  1.0000
  H   H106      1.0  0.33766  0.63913  0.20026  1.0000
  H   H107      1.0  0.34902  0.56401  0.19524  1.0000
  H   H108      1.0  0.35418  0.56249  0.24586  1.0000
  C   C135      1.0  0.06444  0.49404  0.01804  1.0000
  H   H109      1.0  0.06642  0.59446  0.43046  1.0000
  C   C136      1.0  0.18108  0.57716  0.43904  1.0000
  C   C137      1.0  0.05952  0.65259  0.11662  1.0000
  C   C138      1.0  0.06302  0.63774  0.09382  1.0000
  C   C139      1.0  0.21010  0.49286  0.04101  1.0000
  H   H110      1.0  0.04204  0.61173  0.16311  1.0000
  C   C140      1.0  0.25880  0.49698  0.04829  1.0000
  C   C141      1.0  0.47208  0.44976  0.00682  1.0000
  H   H111      1.0  0.39284  0.64737  0.26678  1.0000
  C   C142      1.0  0.01879  0.63181  0.01374  1.0000
  H   H112      1.0  0.34947  0.45427  0.22588  1.0000
  H   H113      1.0  0.08700  0.46955  0.04025  1.0000
  H   H114      1.0  0.23528  0.60579  0.30139  1.0000
  C   C143      1.0  0.01466  0.47685  0.17514  1.0000
  C   C144      1.0  0.28834  0.64825  0.25330  1.0000
  H   H115      1.0  0.20797  0.60077  0.42630  1.0000
  H   H116      1.0  0.24559  0.61993  0.03408  1.0000
  H   H117      1.0  0.08558  0.58054  0.01630  1.0000
  C   C145      1.0  0.03407  0.63357  0.03619  1.0000
  H   H118      1.0  0.17129  0.60363  0.21584  1.0000
  C   C146      1.0  0.05854  0.61353  0.09628  1.0000
  H   H119      1.0  0.00270  0.62194  0.01555  1.0000
  H   H120      1.0  0.21105  0.47237  0.07815  1.0000
  H   H121      1.0  0.05168  0.51124  0.21212  1.0000
  C   C147      1.0  0.24943  0.61327  0.46376  1.0000
  H   H122      1.0  0.48828  0.44864  0.16065  1.0000
  H   H123      1.0  0.41628  0.45682  0.18527  1.0000
  H   H124      1.0  0.21402  0.59515  0.21351  1.0000
  C   C148      1.0  0.04734  0.61913  0.14366  1.0000
  H   H125      1.0  0.05518  0.44116  0.04890  1.0000
  C   C149      1.0  0.41185  0.53448  0.17584  1.0000
  C   C150      1.0  0.41963  0.53318  0.14863  1.0000
  C   C151      1.0  0.41849  0.55314  0.13178  1.0000
  C   C152      1.0  0.40954  0.57458  0.14191  1.0000
  C   C153      1.0  0.40180  0.57609  0.16895  1.0000
  C   C154      1.0  0.40298  0.55618  0.18590  1.0000
  H   H126      1.0  0.22544  0.64396  0.28002  1.0000
  H   H127      1.0  0.32773  0.45701  0.18169  1.0000
  C   C155      1.0  0.34369  0.46690  0.18476  1.0000
  H   H128      1.0  0.29268  0.59192  0.15733  1.0000
  C   C156      1.0  0.00053  0.41680  0.17799  1.0000
  H   H129      1.0  0.29668  0.63666  0.26826  1.0000
  H   H130      1.0  0.21634  0.59847  0.00591  1.0000
  H   H131      1.0  0.11315  0.63447  0.10015  1.0000
  H   H132      1.0  0.42591  0.51656  0.14005  1.0000
  H   H133      1.0  0.42373  0.55166  0.11052  1.0000
  H   H134      1.0  0.40799  0.58986  0.12861  1.0000
  H   H135      1.0  0.39429  0.59258  0.17658  1.0000
  H   H136      1.0  0.27731  0.49969  0.05258  1.0000
  C   C157      1.0  0.38510  0.49255  0.19242  1.0000
  C   C158      1.0  0.00800  0.43079  0.10101  1.0000
  C   C159      1.0  0.05050  0.60436  0.12102  1.0000
  H   H137      1.0  0.42502  0.44161  0.04854  1.0000
  H   H138      1.0  0.02266  0.38598  0.17118  1.0000
  H   H139      1.0  0.34293  0.48195  0.14425  1.0000
  C   C160      1.0  0.10294  0.63276  0.05736  1.0000
  S   S29       1.0  0.13990  0.66189  0.37584  1.0000
  C   C161      1.0  0.08737  0.65767  0.48105  1.0000
  H   H140      1.0  0.01290  0.46960  0.15472  1.0000
  H   H141      1.0  0.02154  0.50388  0.24764  1.0000
  H   H142      1.0  0.03581  0.60708  0.46311  1.0000
  C   C162      1.0  0.25890  0.55518  0.01113  1.0000
  C   C163      1.0  0.22255  0.65927  0.33629  1.0000
  S   S30       1.0  0.09023  0.65453  0.34181  1.0000
  C   C164      1.0  0.00493  0.39248  0.17535  1.0000
  C   C165      1.0  0.03667  0.50033  0.20746  1.0000
  C   C166      1.0  0.06938  0.47315  0.03241  1.0000
  H   H143      1.0  0.18252  0.65216  0.28212  1.0000
  C   C167      1.0  0.42960  0.47176  0.02226  1.0000
  C   C168      1.0  0.23280  0.58982  0.01180  1.0000
  H   H144      1.0  0.37882  0.65772  0.22011  1.0000
  H   H145      1.0  0.29081  0.55839  0.03532  1.0000
  H   H146      1.0  0.29086  0.48005  0.00984  1.0000
  C   C169      1.0  0.22327  0.50560  0.02214  1.0000
  H   H147      1.0  0.04959  0.65458  0.15918  1.0000
  C   C170      1.0  0.08854  0.57785  0.46109  1.0000
  C   C171      1.0  0.06851  0.59033  0.45203  1.0000
  C   C172      1.0  0.05140  0.59791  0.47077  1.0000
  H   H148      1.0  0.24678  0.56321  0.23644  1.0000
  C   C173      1.0  0.00002  0.48249  0.22126  1.0000
  H   H149      1.0  0.38177  0.63956  0.45907  1.0000
  H   H150      1.0  0.01249  0.56554  0.00366  1.0000
  C   C174      1.0  0.01964  0.49621  0.22743  1.0000
  H   H151      1.0  0.46292  0.42233  0.03527  1.0000
  H   H152      1.0  0.28736  0.56867  0.48302  1.0000
  C   C175      1.0  0.27479  0.56708  0.02806  1.0000
  C   C176      1.0  0.45196  0.45027  0.17320  1.0000
  C   C177      1.0  0.26009  0.61934  0.43886  1.0000
  C   C178      1.0  0.43901  0.52287  0.27326  1.0000
  C   C179      1.0  0.06100  0.65591  0.00846  1.0000
  H   H153      1.0  0.45591  0.52165  0.28367  1.0000
  Fe  Fe14      1.0  0.47956  0.39229  0.10713  1.0000
  H   H154      1.0  0.38250  0.54212  0.28371  1.0000
  P   P3        1.0  0.07536  0.64882  0.06241  1.0000
  P   P4        1.0  0.41228  0.50820  0.19697  1.0000
  H   H155      1.0  0.10196  0.57236  0.44657  1.0000
  C   C180      1.0  0.35592  0.46542  0.20963  1.0000
  C   C181      1.0  0.21720  0.65371  0.45383  1.0000
  C   C182      1.0  0.45752  0.43901  0.02597  1.0000
  S   S31       1.0  0.08757  0.65682  0.42455  1.0000
  H   H156      1.0  0.44923  0.43161  0.16951  1.0000
  C   C183      1.0  0.11791  0.62827  0.07987  1.0000
  P   P5        1.0  0.22220  0.62750  0.47447  1.0000
  C   C184      1.0  0.03426  0.49049  0.18139  1.0000
  H   H157      1.0  0.15535  0.63196  0.25017  1.0000
  C   C185      1.0  0.10965  0.50133  0.24125  1.0000
  C   C186      1.0  0.10323  0.48983  0.21708  1.0000
  C   C187      1.0  0.11790  0.49071  0.19424  1.0000
  C   C188      1.0  0.13886  0.50334  0.19542  1.0000
  C   C189      1.0  0.14515  0.51546  0.21935  1.0000
  C   C190      1.0  0.13069  0.51381  0.24255  1.0000
  P   P6        1.0  0.17296  0.53054  0.22057  1.0000
  C   C191      1.0  0.17507  0.54991  0.24985  1.0000
  C   C192      1.0  0.19514  0.50717  0.22104  1.0000
  C   C193      1.0  0.20084  0.49554  0.24565  1.0000
  C   C194      1.0  0.21781  0.47723  0.24603  1.0000
  C   C195      1.0  0.22884  0.47011  0.22176  1.0000
  C   C196      1.0  0.22264  0.48103  0.19703  1.0000
  C   C197      1.0  0.20561  0.49925  0.19659  1.0000
  C   C198      1.0  0.15567  0.56426  0.25733  1.0000
  C   C199      1.0  0.15677  0.57847  0.28069  1.0000
  C   C200      1.0  0.17752  0.57921  0.29618  1.0000
  C   C201      1.0  0.19726  0.56580  0.28816  1.0000
  C   C202      1.0  0.19617  0.55139  0.26492  1.0000
  C   C203      1.0  0.17608  0.54937  0.19105  1.0000
  C   C204      1.0  0.15612  0.55874  0.17754  1.0000
  C   C205      1.0  0.15868  0.57250  0.15399  1.0000
  C   C206      1.0  0.18116  0.57720  0.14398  1.0000
  C   C207      1.0  0.20114  0.56868  0.15793  1.0000
  C   C208      1.0  0.19861  0.55503  0.18155  1.0000
  H   H158      1.0  0.09838  0.50050  0.25906  1.0000
  H   H159      1.0  0.08704  0.48000  0.21606  1.0000
  H   H160      1.0  0.11297  0.48162  0.17553  1.0000
  H   H161      1.0  0.15018  0.50365  0.17762  1.0000
  H   H162      1.0  0.13553  0.52196  0.26174  1.0000
  H   H163      1.0  0.19208  0.50053  0.26452  1.0000
  H   H164      1.0  0.22225  0.46842  0.26512  1.0000
  H   H165      1.0  0.24194  0.45588  0.22204  1.0000
  H   H166      1.0  0.23086  0.47524  0.17810  1.0000
  H   H167      1.0  0.20048  0.50689  0.17708  1.0000
  H   H168      1.0  0.13952  0.56424  0.24537  1.0000
  H   H169      1.0  0.14143  0.58886  0.28681  1.0000
  H   H170      1.0  0.17827  0.59022  0.31437  1.0000
  H   H171      1.0  0.21330  0.56639  0.30021  1.0000
  H   H172      1.0  0.21175  0.54137  0.25892  1.0000
  H   H173      1.0  0.13853  0.55521  0.18489  1.0000
  H   H174      1.0  0.14316  0.57915  0.14323  1.0000
  H   H175      1.0  0.18306  0.58706  0.12513  1.0000
  H   H176      1.0  0.21858  0.57206  0.14995  1.0000
  H   H177      1.0  0.21423  0.54841  0.19197  1.0000
  H   H178      1.0  0.15525  0.55488  0.45750  1.0000
  H   H179      1.0  0.38613  0.47638  0.23263  1.0000
  C   C209      1.0  0.05542  0.64556  0.03367  1.0000
  H   H180      1.0  0.29037  0.56417  0.33890  1.0000
  H   H181      1.0  0.31467  0.56757  0.29707  1.0000
  C   C210      1.0  0.41941  0.53258  0.28678  1.0000
  C   C211      1.0  0.24782  0.50736  0.02533  1.0000
  C   C212      1.0  0.27014  0.59048  0.03590  1.0000
  H   H182      1.0  0.38204  0.57129  0.01829  1.0000
  C   C213      1.0  0.18950  0.63969  0.26718  1.0000
  H   H183      1.0  0.03396  0.64288  0.48428  1.0000
  H   H184      1.0  0.01285  0.52245  0.04431  1.0000
  H   H185      1.0  0.19108  0.49219  0.03895  1.0000
  C   C214      1.0  0.43693  0.51499  0.24620  1.0000
  C   C215      1.0  0.05175  0.64325  0.14144  1.0000
  H   H186      1.0  0.25283  0.63331  0.42608  1.0000
  C   C216      1.0  0.12990  0.61000  0.02851  1.0000
  C   C217      1.0  0.04154  0.49902  0.00874  1.0000
  H   H187      1.0  0.18596  0.65058  0.33966  1.0000
  H   H188      1.0  0.37938  0.50422  0.15066  1.0000
  C   C218      1.0  0.25727  0.65735  0.22050  1.0000
  C   C219      1.0  0.31333  0.63838  0.49080  1.0000
  C   C220      1.0  0.13875  0.61491  0.07662  1.0000
  C   C221      1.0  0.43326  0.46473  0.18219  1.0000
  C   C222      1.0  0.00088  0.57492  0.49318  1.0000
  H   H189      1.0  0.02912  0.62533  0.05520  1.0000
  C   C223      1.0  0.37288  0.49371  0.16743  1.0000
  H   H190      1.0  0.45239  0.50778  0.23609  1.0000
  C   C224      1.0  0.19756  0.59484  0.44341  1.0000
  C   C225      1.0  0.14463  0.60558  0.05102  1.0000
  C   C226      1.0  0.23759  0.56653  0.00357  1.0000
  H   H191      1.0  0.28105  0.61973  0.19356  1.0000
  H   H192      1.0  0.09781  0.62604  0.01402  1.0000
  H   H193      1.0  0.25067  0.58327  0.34066  1.0000
  H   H194      1.0  0.25421  0.47621  0.08471  1.0000
  C   C227      1.0  0.02854  0.46197  0.02782  1.0000
  H   H195      1.0  0.37844  0.52754  0.23629  1.0000
  H   H196      1.0  0.39871  0.64385  0.41285  1.0000
  H   H197      1.0  0.04732  0.58565  0.12289  1.0000
  C   C228      1.0  0.28026  0.60702  0.42993  1.0000
  C   C229      1.0  0.17175  0.57740  0.48727  1.0000
  C   C230      1.0  0.27951  0.58257  0.47053  1.0000
  C   C231      1.0  0.01101  0.45482  0.09452  1.0000
  H   H198      1.0  0.30593  0.57956  0.43905  1.0000
  H   H199      1.0  0.29940  0.58946  0.25701  1.0000
  H   H200      1.0  0.23465  0.60595  0.38447  1.0000
  H   H201      1.0  0.16021  0.59428  0.04886  1.0000
  H   H202      1.0  0.26793  0.62983  0.36781  1.0000
  H   H203      1.0  0.15065  0.66240  0.47256  1.0000
  C   C232      1.0  0.39541  0.52602  0.24649  1.0000
  H   H204      1.0  0.06158  0.60166  0.07915  1.0000
  C   C233      1.0  0.43622  0.44991  0.03353  1.0000
  H   H205      1.0  0.12322  0.62199  0.44296  1.0000
  C   C234      1.0  0.43653  0.48904  0.18639  1.0000
  H   H206      1.0  0.21419  0.51448  0.00541  1.0000
  H   H207      1.0  0.28291  0.59973  0.04828  1.0000
  C   C235      1.0  0.37661  0.47810  0.21344  1.0000
  H   H208      1.0  0.01509  0.42869  0.17580  1.0000
  H   H209      1.0  0.28874  0.61190  0.41096  1.0000
  C   C236      1.0  0.41509  0.51657  0.23257  1.0000
  Fe  Fe15      1.0  0.30497  0.65613  0.34239  1.0000
  H   H210      1.0  0.42110  0.53904  0.30758  1.0000
  C   C237      1.0  0.25913  0.59459  0.47934  1.0000
  C   C238      1.0  0.12127  0.62189  0.48725  1.0000
  H   H211      1.0  0.25929  0.53540  0.19977  1.0000
  C   C239      1.0  0.28232  0.58582  0.17444  1.0000
  C   C240      1.0  0.27648  0.56202  0.17618  1.0000
  C   C241      1.0  0.26355  0.55395  0.19845  1.0000
  C   C242      1.0  0.25646  0.56973  0.21904  1.0000
  C   C243      1.0  0.26233  0.59371  0.21748  1.0000
  C   C244      1.0  0.27547  0.60162  0.19506  1.0000
  P   P7        1.0  0.25448  0.61334  0.24535  1.0000
  C   C245      1.0  0.22294  0.61850  0.24709  1.0000
  C   C246      1.0  0.26609  0.59926  0.27592  1.0000
  C   C247      1.0  0.25255  0.59752  0.29985  1.0000
  C   C248      1.0  0.26121  0.58466  0.32232  1.0000
  C   C249      1.0  0.28349  0.57374  0.32129  1.0000
  C   C250      1.0  0.29718  0.57565  0.29774  1.0000
  C   C251      1.0  0.28853  0.58829  0.27514  1.0000
  C   C252      1.0  0.21377  0.63490  0.26604  1.0000
  C   C253      1.0  0.10919  0.62359  0.03160  1.0000
  C   C254      1.0  0.17421  0.62839  0.24911  1.0000
  C   C255      1.0  0.18321  0.61236  0.22984  1.0000
  C   C256      1.0  0.20748  0.60742  0.22878  1.0000
  C   C257      1.0  0.26755  0.64178  0.23975  1.0000
  C   C258      1.0  0.45878  0.49858  0.18129  1.0000
  C   C259      1.0  0.16806  0.56854  0.46093  1.0000
  C   C260      1.0  0.47742  0.48405  0.17219  1.0000
  H   H212      1.0  0.13414  0.60220  0.00883  1.0000
  S   S32       1.0  0.48855  0.37704  0.06561  1.0000
  C   C261      1.0  0.29546  0.51709  0.00028  1.0000
  H   H213      1.0  0.41336  0.48046  0.02884  1.0000
  C   C262      1.0  0.20148  0.65397  0.43150  1.0000
  C   C263      1.0  0.39289  0.65942  0.42409  1.0000
  H   H214      1.0  0.07821  0.50671  0.01464  1.0000
  H   H215      1.0  0.48688  0.57461  0.01176  1.0000
  C   C264      1.0  0.99732  0.47282  0.19496  1.0000
  H   H216      1.0  0.99704  0.46447  0.08404  1.0000
  C   C265      1.0  0.38319  0.65699  0.45012  1.0000
  H   H217      1.0  0.10731  0.56387  0.49613  1.0000
  C   C266      1.0  0.09154  0.57307  0.48896  1.0000
  C   C267      1.0  0.44408  0.48255  0.00300  1.0000
  H   H218      1.0  0.44851  0.59546  0.00348  1.0000
  C   C268      1.0  0.37764  0.58143  0.00013  1.0000
  H   H219      1.0  0.33336  0.46993  0.00852  1.0000
  P   P8        1.0  0.26437  0.52478  0.00147  1.0000
  C   C269      1.0  0.32735  0.48781  0.00402  1.0000
  C   C270      1.0  0.30328  0.49373  0.00514  1.0000
  H   H220      1.0  0.25103  0.58940  0.49841  1.0000
  Fe  Fe16      1.0  0.31921  0.64057  0.58112  1.0000
  C   C271      1.0  0.35501  0.59147  0.99728  1.0000
  S   S33       1.0  0.30736  0.62054  0.54316  1.0000
  Fe  Fe17      1.0  0.34039  0.64219  0.63981  1.0000
  C   C272      1.0  0.44600  0.54293  0.91889  1.0000
  S   S34       1.0  0.36289  0.62198  0.67136  1.0000
  C   C273      1.0  0.24987  0.53444  0.92012  1.0000
  C   C274      1.0  0.23984  0.51302  0.91253  1.0000
  H   H221      1.0  0.46897  0.47106  0.72803  1.0000
  S   S35       1.0  0.30468  0.63217  0.62299  1.0000
  S   S36       1.0  0.35569  0.64691  0.59748  1.0000
  Fe  Fe18      1.0  0.39899  0.63221  0.82987  1.0000
  S   S37       1.0  0.43528  0.64257  0.81790  1.0000
  S   S38       1.0  0.36822  0.63980  0.80039  1.0000
  Fe  Fe19      1.0  0.41508  0.61892  0.88832  1.0000
  S   S39       1.0  0.45259  0.62962  0.87950  1.0000
  S   S40       1.0  0.41170  0.60069  0.93026  1.0000
  Fe  Fe20      1.0  0.44833  0.60990  0.84002  1.0000
  H   H222      1.0  0.30640  0.55192  0.98738  1.0000
  H   H223      1.0  0.18752  0.65722  0.56096  1.0000
  S   S41       1.0  0.41157  0.59782  0.84916  1.0000
  Fe  Fe21      1.0  0.08736  0.62476  0.64475  1.0000
  H   H224      1.0  0.08666  0.63953  0.83652  1.0000
  S   S42       1.0  0.05785  0.60858  0.66979  1.0000
  Fe  Fe22      1.0  0.11050  0.63114  0.58708  1.0000
  C   C275      1.0  0.11028  0.63126  0.51074  1.0000
  S   S43       1.0  0.11712  0.61835  0.54317  1.0000
  Fe  Fe23      1.0  0.13971  0.63480  0.63958  1.0000
  S   S44       1.0  0.17476  0.62370  0.65769  1.0000
  S   S45       1.0  0.39957  0.65259  0.86987  1.0000
  S   S46       1.0  0.11722  0.60613  0.62251  1.0000
  S   S47       1.0  0.07814  0.64662  0.60740  1.0000
  Fe  Fe24      1.0  0.02215  0.62005  0.83211  1.0000
  C   C276      1.0  0.00975  0.49441  0.94882  1.0000
  S   S48       1.0  0.04914  0.62795  0.79861  1.0000
  Fe  Fe25      1.0  0.02365  0.61368  0.89567  1.0000
  C   C277      1.0  0.24514  0.63731  0.52415  1.0000
  S   S49       1.0  0.05115  0.61084  0.93021  1.0000
  H   H225      1.0  0.22421  0.61629  0.66575  1.0000
  S   S50       1.0  0.02257  0.58845  0.86021  1.0000
  S   S51       1.0  0.02634  0.64502  0.86759  1.0000
  C   C278      1.0  0.05000  0.59441  0.96131  1.0000
  C   C279      1.0  0.02927  0.58403  0.97053  1.0000
  C   C280      1.0  0.00660  0.41634  0.77107  1.0000
  H   H226      1.0  0.34857  0.54131  0.98568  1.0000
  C   C281      1.0  0.07031  0.59289  0.97797  1.0000
  H   H227      1.0  0.01351  0.58505  0.95800  1.0000
  H   H228      1.0  0.08644  0.60073  0.97100  1.0000
  C   C282      1.0  0.05563  0.61342  0.70577  1.0000
  C   C283      1.0  0.07440  0.62246  0.72093  1.0000
  C   C284      1.0  0.07208  0.62643  0.74929  1.0000
  C   C285      1.0  0.05101  0.62139  0.76302  1.0000
  C   C286      1.0  0.03223  0.61216  0.74798  1.0000
  C   C287      1.0  0.03458  0.60814  0.71952  1.0000
  H   H229      1.0  0.09080  0.62632  0.71088  1.0000
  P   P9        1.0  0.03170  0.60305  0.52283  1.0000
  H   H230      1.0  0.01591  0.60816  0.75823  1.0000
  H   H231      1.0  0.01998  0.60099  0.70809  1.0000
  C   C288      1.0  0.48522  0.58747  0.99539  1.0000
  H   H232      1.0  0.26240  0.64379  0.56277  1.0000
  C   C289      1.0  0.49080  0.55638  0.86001  1.0000
  H   H233      1.0  0.46402  0.44837  0.68526  1.0000
  H   H234      1.0  0.19057  0.60155  0.51229  1.0000
  C   C290      1.0  0.38929  0.59751  0.95552  1.0000
  Fe  Fe26      1.0  0.43672  0.66166  0.85816  1.0000
  H   H235      1.0  0.45478  0.53952  0.80600  1.0000
  C   C291      1.0  0.36665  0.60754  0.95265  1.0000
  C   C292      1.0  0.33851  0.60534  0.50391  1.0000
  H   H236      1.0  0.41192  0.57642  0.98187  1.0000
  H   H237      1.0  0.36223  0.61764  0.93447  1.0000
  C   C293      1.0  0.33595  0.52798  0.99112  1.0000
  C   C294      1.0  0.48154  0.45105  0.69350  1.0000
  C   C295      1.0  0.39459  0.58440  0.97938  1.0000
  C   C296      1.0  0.19870  0.64192  0.65085  1.0000
  H   H238      1.0  0.48205  0.50535  0.80509  1.0000
  H   H239      1.0  0.25873  0.64155  0.65635  1.0000
  H   H240      1.0  0.43849  0.49943  0.99461  1.0000
  H   H241      1.0  0.08672  0.63356  0.76065  1.0000
  C   C297      1.0  0.03271  0.64990  0.50479  1.0000
  H   H242      1.0  0.33585  0.65336  0.70796  1.0000
  C   C298      1.0  0.36548  0.62905  0.70675  1.0000
  C   C299      1.0  0.34970  0.64468  0.71976  1.0000
  C   C300      1.0  0.35115  0.64822  0.74832  1.0000
  C   C301      1.0  0.36869  0.63665  0.76415  1.0000
  C   C302      1.0  0.38512  0.62184  0.75094  1.0000
  C   C303      1.0  0.38334  0.61790  0.72247  1.0000
  C   C304      1.0  0.34964  0.60449  0.97338  1.0000
  C   C305      1.0  0.48074  0.62049  0.95295  1.0000
  H   H243      1.0  0.39867  0.61277  0.76282  1.0000
  H   H244      1.0  0.39569  0.60584  0.71263  1.0000
  C   C306      1.0  0.05452  0.59370  0.57259  1.0000
  C   C307      1.0  0.03234  0.63483  0.52762  1.0000
  H   H245      1.0  0.00689  0.55097  0.59869  1.0000
  C   C308      1.0  0.20363  0.65186  0.55056  1.0000
  H   H246      1.0  0.02273  0.49745  0.90753  1.0000
  H   H247      1.0  0.24299  0.48440  0.97363  1.0000
  H   H248      1.0  0.49345  0.42331  0.85159  1.0000
  C   C309      1.0  0.34370  0.50500  0.99726  1.0000
  C   C310      1.0  0.48986  0.42757  0.80787  1.0000
  H   H249      1.0  0.00508  0.38756  0.79983  1.0000
  C   C311      1.0  0.22360  0.63707  0.50981  1.0000
  C   C312      1.0  0.24107  0.64785  0.65166  1.0000
  H   H250      1.0  0.47836  0.63313  0.93654  1.0000
  C   C313      1.0  0.00338  0.59580  0.50840  1.0000
  H   H251      1.0  0.43712  0.55656  0.90679  1.0000
  H   H252      1.0  0.06785  0.60583  0.56578  1.0000
  C   C314      1.0  0.20300  0.64533  0.52293  1.0000
  H   H253      1.0  0.26154  0.63207  0.51440  1.0000
  C   C315      1.0  0.32178  0.62270  0.51112  1.0000
  C   C316      1.0  0.48908  0.50767  0.76147  1.0000
  H   H254      1.0  0.44625  0.56231  0.76389  1.0000
  C   C317      1.0  0.46143  0.61565  0.96960  1.0000
  P   P10       1.0  0.48467  0.48561  0.97056  1.0000
  C   C318      1.0  0.48443  0.46397  0.71768  1.0000
  C   C319      1.0  0.45785  0.54685  0.76299  1.0000
  H   H255      1.0  0.45728  0.63289  0.76103  1.0000
  C   C320      1.0  0.24576  0.64413  0.55166  1.0000
  H   H256      1.0  0.26529  0.55459  0.95264  1.0000
  H   H257      1.0  0.33220  0.61230  0.97088  1.0000
  H   H258      1.0  0.01878  0.47762  0.95238  1.0000
  C   C321      1.0  0.22159  0.63369  0.65696  1.0000
  C   C322      1.0  0.47822  0.51449  0.78613  1.0000
  S   S52       1.0  0.11053  0.65165  0.66409  1.0000
  C   C323      1.0  0.46896  0.50780  0.95046  1.0000
  H   H259      1.0  0.08700  0.62734  0.88522  1.0000
  H   H260      1.0  0.46679  0.53341  0.98339  1.0000
  C   C324      1.0  0.03914  0.56863  0.60824  1.0000
  C   C325      1.0  0.45135  0.54721  0.94634  1.0000
  H   H261      1.0  0.25217  0.54821  0.90499  1.0000
  H   H262      1.0  0.46931  0.43861  0.95198  1.0000
  C   C326      1.0  0.23731  0.49510  0.93193  1.0000
  H   H263      1.0  0.49256  0.51607  0.71842  1.0000
  H   H264      1.0  0.48844  0.43646  0.76530  1.0000
  H   H265      1.0  0.48738  0.40914  0.92090  1.0000
  C   C327      1.0  0.02022  0.56282  0.59130  1.0000
  C   C328      1.0  0.03016  0.64489  0.55388  1.0000
  H   H266      1.0  0.44648  0.56415  0.95521  1.0000
  C   C329      1.0  0.46261  0.53392  0.78678  1.0000
  H   H267      1.0  0.29533  0.46477  0.67932  1.0000
  C   C330      1.0  0.31194  0.53398  0.99237  1.0000
  H   H268      1.0  0.00319  0.56814  0.55259  1.0000
  S   S53       1.0  0.13489  0.65864  0.60332  1.0000
  C   C331      1.0  0.21819  0.56473  0.64103  1.0000
  C   C332      1.0  0.21460  0.58193  0.62087  1.0000
  C   C333      1.0  0.23392  0.59274  0.60888  1.0000
  C   C334      1.0  0.25685  0.58650  0.61718  1.0000
  C   C335      1.0  0.26069  0.56888  0.63709  1.0000
  C   C336      1.0  0.24112  0.55822  0.64916  1.0000
  P   P11       1.0  0.29018  0.56221  0.64968  1.0000
  C   C337      1.0  0.31182  0.56794  0.62346  1.0000
  C   C338      1.0  0.29582  0.57981  0.67987  1.0000
  C   C339      1.0  0.31497  0.57412  0.69717  1.0000
  C   C340      1.0  0.31956  0.58796  0.72027  1.0000
  C   C341      1.0  0.30487  0.60731  0.72650  1.0000
  C   C342      1.0  0.28564  0.61294  0.70956  1.0000
  C   C343      1.0  0.28110  0.59922  0.68638  1.0000
  C   C344      1.0  0.30680  0.56309  0.59583  1.0000
  C   C345      1.0  0.32309  0.56850  0.57546  1.0000
  C   C346      1.0  0.34457  0.57861  0.58247  1.0000
  C   C347      1.0  0.34992  0.58301  0.60990  1.0000
  C   C348      1.0  0.33369  0.57764  0.63029  1.0000
  C   C349      1.0  0.29205  0.53130  0.65899  1.0000
  C   C350      1.0  0.29976  0.51418  0.64002  1.0000
  C   C351      1.0  0.30096  0.49029  0.64738  1.0000
  C   C352      1.0  0.29441  0.48329  0.67366  1.0000
  C   C353      1.0  0.28661  0.50019  0.69262  1.0000
  C   C354      1.0  0.28539  0.52410  0.68533  1.0000
  H   H269      1.0  0.20311  0.55689  0.65080  1.0000
  H   H270      1.0  0.19679  0.58745  0.61519  1.0000
  H   H271      1.0  0.23108  0.60648  0.59375  1.0000
  H   H272      1.0  0.27144  0.59574  0.60825  1.0000
  H   H273      1.0  0.24343  0.54524  0.66523  1.0000
  H   H274      1.0  0.32669  0.55932  0.69249  1.0000
  H   H275      1.0  0.33483  0.58405  0.73305  1.0000
  H   H276      1.0  0.30865  0.61814  0.74424  1.0000
  H   H277      1.0  0.27437  0.62810  0.71421  1.0000
  H   H278      1.0  0.26616  0.60387  0.67357  1.0000
  H   H279      1.0  0.29010  0.55561  0.58993  1.0000
  H   H280      1.0  0.31874  0.56568  0.55409  1.0000
  H   H281      1.0  0.35686  0.58349  0.56664  1.0000
  H   H282      1.0  0.36641  0.59120  0.61543  1.0000
  H   H283      1.0  0.33821  0.58175  0.65120  1.0000
  H   H284      1.0  0.30486  0.51914  0.61955  1.0000
  H   H285      1.0  0.30695  0.47717  0.63266  1.0000
  H   H286      1.0  0.28147  0.49478  0.71298  1.0000
  H   H287      1.0  0.27914  0.53693  0.70024  1.0000
  C   C355      1.0  0.46277  0.52977  0.96212  1.0000
  H   H288      1.0  0.22461  0.55734  0.99148  1.0000
  S   S54       1.0  0.47721  0.58779  0.81870  1.0000
  H   H289      1.0  0.34460  0.59265  0.51901  1.0000
  C   C356      1.0  0.00088  0.52741  0.91864  1.0000
  C   C357      1.0  0.01207  0.50557  0.92345  1.0000
  C   C358      1.0  0.05632  0.58391  0.59881  1.0000
  H   H290      1.0  0.04046  0.56155  0.62885  1.0000
  C   C359      1.0  0.46849  0.54018  0.73835  1.0000
  C   C360      1.0  0.02464  0.64198  0.98868  1.0000
  H   H291      1.0  0.01323  0.63987  0.97101  1.0000
  C   C361      1.0  0.03530  0.58836  0.55557  1.0000
  H   H292      1.0  0.44456  0.62446  0.96577  1.0000
  C   C362      1.0  0.46365  0.59922  0.99083  1.0000
  C   C363      1.0  0.09354  0.64955  0.50753  1.0000
  C   C364      1.0  0.07462  0.58094  0.50783  1.0000
  C   C365      1.0  0.46547  0.47162  0.99505  1.0000
  C   C366      1.0  0.46132  0.65099  0.75574  1.0000
  C   C367      1.0  0.22498  0.65102  0.56497  1.0000
  H   H293      1.0  0.08473  0.65681  0.52532  1.0000
  C   C368      1.0  0.46348  0.50362  0.92279  1.0000
  H   H294      1.0  0.02565  0.41547  0.76936  1.0000
  C   C369      1.0  0.48587  0.44253  0.94222  1.0000
  C   C370      1.0  0.24465  0.49863  0.95898  1.0000
  H   H295      1.0  0.47631  0.56377  0.87179  1.0000
  H   H296      1.0  0.36238  0.50055  0.99675  1.0000
  C   C371      1.0  0.08563  0.64596  0.87995  1.0000
  C   C372      1.0  0.49417  0.44213  0.78534  1.0000
  H   H297      1.0  0.44810  0.51797  0.88572  1.0000
  C   C373      1.0  0.08527  0.65282  0.85248  1.0000
  H   H298      1.0  0.07077  0.58848  0.61220  1.0000
  H   H299      1.0  0.23423  0.51023  0.89155  1.0000
  H   H300      1.0  0.08181  0.65696  0.92163  1.0000
  H   H301      1.0  0.48107  0.41092  0.80500  1.0000
  H   H302      1.0  0.16184  0.57056  0.50437  1.0000
  H   H303      1.0  0.18629  0.64596  0.51203  1.0000
  C   C374      1.0  0.48472  0.65746  0.75198  1.0000
  C   C375      1.0  0.99604  0.50496  0.96956  1.0000
  H   H304      1.0  0.22549  0.65577  0.58644  1.0000
  C   C376      1.0  0.25425  0.52030  0.96687  1.0000
  C   C377      1.0  0.48407  0.52069  0.73756  1.0000
  C   C378      1.0  0.01825  0.57264  0.56507  1.0000
  C   C379      1.0  0.45206  0.52115  0.90712  1.0000
  H   H305      1.0  0.46814  0.48698  0.91310  1.0000
  C   C380      1.0  0.25717  0.53804  0.94716  1.0000
  H   H306      1.0  0.22979  0.47839  0.92597  1.0000
  H   H307      1.0  0.07772  0.57725  0.52923  1.0000
  C   C381      1.0  0.02874  0.57301  0.99647  1.0000
  H   H308      1.0  0.02884  0.63397  0.57194  1.0000
  C   C382      1.0  0.04579  0.65396  0.98604  1.0000
  H   H309      1.0  0.05068  0.66107  0.96635  1.0000
  H   H310      1.0  0.42503  0.66256  0.75634  1.0000
  H   H311      1.0  0.00252  0.44488  0.74211  1.0000
  H   H312      1.0  0.46491  0.55038  0.71998  1.0000
  H   H313      1.0  0.00269  0.53615  0.89899  1.0000
  H   H314      1.0  0.33833  0.65965  0.75832  1.0000
  C   C383      1.0  0.05439  0.59354  0.49894  1.0000
  H   H315      1.0  0.03798  0.51567  0.99836  1.0000
  C   C384      1.0  0.99501  0.40068  0.78830  1.0000
  H   H316      1.0  0.42226  0.89125  0.06610  1.0000
  S   S55       1.0  0.37546  0.70700  0.34723  1.0000
  Fe  Fe27      1.0  0.30579  0.88453  0.33660  1.0000
  S   S56       1.0  0.34134  0.90084  0.33857  1.0000
  S   S57       1.0  0.27202  0.90546  0.33198  1.0000
  Fe  Fe28      1.0  0.32537  0.83457  0.34212  1.0000
  S   S58       1.0  0.36293  0.84659  0.34487  1.0000
  S   S59       1.0  0.30959  0.79820  0.34251  1.0000
  Fe  Fe29      1.0  0.34839  0.87501  0.37316  1.0000
  S   S60       1.0  0.36138  0.89074  0.41332  1.0000
  Fe  Fe30      1.0  0.35244  0.87143  0.31020  1.0000
  S   S61       1.0  0.37409  0.87507  0.27125  1.0000
  S   S62       1.0  0.31187  0.86102  0.37277  1.0000
  S   S63       1.0  0.31613  0.85706  0.30577  1.0000
  Fe  Fe31      1.0  0.35678  0.95642  0.13154  1.0000
  C   C385      1.0  0.02617  0.93100  0.14415  1.0000
  S   S64       1.0  0.34521  0.94679  0.17510  1.0000
  Fe  Fe32      1.0  0.36634  0.94491  0.07060  1.0000
  C   C386      1.0  0.04804  0.97963  0.29025  1.0000
  S   S65       1.0  0.37721  0.91465  0.04187  1.0000
  H   H317      1.0  0.26196  0.79645  0.48602  1.0000
  Fe  Fe33      1.0  0.32404  0.97680  0.08694  1.0000
  C   C387      1.0  0.01904  0.96781  0.16841  1.0000
  S   S66       1.0  0.38953  0.95815  0.10491  1.0000
  S   S67       1.0  0.33508  0.93992  0.09832  1.0000
  H   H318      1.0  0.26600  0.74644  0.27183  1.0000
  S   S68       1.0  0.13631  0.70176  0.31085  1.0000
  Fe  Fe34      1.0  0.14704  0.94903  0.08411  1.0000
  S   S69       1.0  0.12616  0.91606  0.09112  1.0000
  S   S70       1.0  0.18533  0.94013  0.07185  1.0000
  Fe  Fe35      1.0  0.10357  0.98067  0.09731  1.0000
  S   S71       1.0  0.08097  0.94966  0.10623  1.0000
  Fe  Fe36      1.0  0.11245  0.93436  0.12888  1.0000
  S   S72       1.0  0.11130  0.90838  0.16470  1.0000
  Fe  Fe37      1.0  0.09649  0.93371  0.06793  1.0000
  S   S73       1.0  0.06787  0.91761  0.04102  1.0000
  S   S74       1.0  0.13449  0.96666  0.12289  1.0000
  S   S75       1.0  0.11799  0.96546  0.05790  1.0000
  Fe  Fe38      1.0  0.15287  0.85032  0.35416  1.0000
  S   S76       1.0  0.13981  0.88741  0.36133  1.0000
  S   S77       1.0  0.18983  0.83617  0.35833  1.0000
  Fe  Fe39      1.0  0.10429  0.83099  0.34596  1.0000
  S   S78       1.0  0.08688  0.86678  0.35187  1.0000
  S   S79       1.0  0.08344  0.79733  0.34478  1.0000
  Fe  Fe40      1.0  0.11594  0.88056  0.32511  1.0000
  S   S80       1.0  0.11136  0.91166  0.29540  1.0000
  Fe  Fe41      1.0  0.11208  0.87069  0.38724  1.0000
  S   S81       1.0  0.09929  0.88487  0.42821  1.0000
  S   S82       1.0  0.13130  0.84423  0.31627  1.0000
  S   S83       1.0  0.12731  0.83423  0.38297  1.0000
  C   C388      1.0  0.11301  0.87658  0.45943  1.0000
  C   C389      1.0  0.13205  0.86052  0.46003  1.0000
  C   C390      1.0  0.15059  0.69282  0.44618  1.0000
  C   C391      1.0  0.10480  0.88641  0.48414  1.0000
  H   H319      1.0  0.13859  0.85296  0.44114  1.0000
  H   H320      1.0  0.09013  0.89894  0.48380  1.0000
  C   C392      1.0  0.11226  0.91009  0.20100  1.0000
  C   C393      1.0  0.11327  0.93156  0.21515  1.0000
  C   C394      1.0  0.11288  0.93176  0.24405  1.0000
  C   C395      1.0  0.11208  0.91053  0.25907  1.0000
  C   C396      1.0  0.11135  0.88912  0.24489  1.0000
  C   C397      1.0  0.11142  0.88892  0.21605  1.0000
  H   H321      1.0  0.11400  0.94799  0.20390  1.0000
  H   H322      1.0  0.11319  0.94843  0.25487  1.0000
  H   H323      1.0  0.11038  0.87272  0.25617  1.0000
  H   H324      1.0  0.11053  0.87223  0.20531  1.0000
  C   C398      1.0  0.21472  0.95905  0.16675  1.0000
  H   H325      1.0  0.39669  0.76422  0.06738  1.0000
  H   H326      1.0  0.23040  0.79136  0.40470  1.0000
  C   C399      1.0  0.12113  0.72817  0.31996  1.0000
  C   C400      1.0  0.12933  0.74995  0.31050  1.0000
  C   C401      1.0  0.11831  0.77130  0.31863  1.0000
  C   C402      1.0  0.09843  0.77094  0.33544  1.0000
  C   C403      1.0  0.08992  0.74916  0.34446  1.0000
  C   C404      1.0  0.10146  0.72785  0.33714  1.0000
  H   H327      1.0  0.14428  0.75039  0.29698  1.0000
  H   H328      1.0  0.12486  0.78799  0.31142  1.0000
  H   H329      1.0  0.07437  0.74878  0.35718  1.0000
  H   H330      1.0  0.09493  0.71118  0.34445  1.0000
  C   C405      1.0  0.25801  0.97495  0.08284  1.0000
  H   H331      1.0  0.21697  0.98886  0.22733  1.0000
  C   C406      1.0  0.21497  0.97627  0.08915  1.0000
  C   C407      1.0  0.21306  0.95373  0.07763  1.0000
  C   C408      1.0  0.23384  0.94164  0.06946  1.0000
  C   C409      1.0  0.25616  0.95211  0.07210  1.0000
  H   H332      1.0  0.32501  0.71322  0.34258  1.0000
  H   H333      1.0  0.25524  0.77723  0.36665  1.0000
  H   H334      1.0  0.23260  0.92425  0.06045  1.0000
  H   H335      1.0  0.27183  0.94285  0.06497  1.0000
  H   H336      1.0  0.21900  0.67401  0.32277  1.0000
  H   H337      1.0  0.15664  0.97125  0.17853  1.0000
  H   H338      1.0  0.25835  0.96166  0.39416  1.0000
  C   C410      1.0  0.24884  0.88637  0.33837  1.0000
  C   C411      1.0  0.25360  0.86233  0.34272  1.0000
  C   C412      1.0  0.23533  0.84713  0.34917  1.0000
  C   C413      1.0  0.21214  0.85576  0.35040  1.0000
  C   C414      1.0  0.20719  0.87965  0.34539  1.0000
  C   C415      1.0  0.22558  0.89505  0.33947  1.0000
  H   H339      1.0  0.27133  0.85530  0.34100  1.0000
  H   H340      1.0  0.23915  0.82857  0.35272  1.0000
  H   H341      1.0  0.18929  0.88630  0.34664  1.0000
  H   H342      1.0  0.22183  0.91366  0.33610  1.0000
  C   C416      1.0  0.36017  0.87842  0.44674  1.0000
  C   C417      1.0  0.35572  0.89346  0.46917  1.0000
  H   H343      1.0  0.33300  0.87339  0.21006  1.0000
  C   C418      1.0  0.36650  0.85477  0.45173  1.0000
  H   H344      1.0  0.35103  0.91183  0.46554  1.0000
  H   H345      1.0  0.37031  0.84311  0.43470  1.0000
  C   C419      1.0  0.36640  0.89592  0.24531  1.0000
  C   C420      1.0  0.38122  0.89836  0.22248  1.0000
  C   C421      1.0  0.37515  0.91400  0.20095  1.0000
  C   C422      1.0  0.35404  0.92715  0.20181  1.0000
  C   C423      1.0  0.33926  0.92480  0.22470  1.0000
  C   C424      1.0  0.34540  0.90935  0.24637  1.0000
  H   H346      1.0  0.39755  0.88817  0.22153  1.0000
  H   H347      1.0  0.38692  0.91625  0.18390  1.0000
  H   H348      1.0  0.32301  0.93509  0.22574  1.0000
  H   H349      1.0  0.33384  0.90776  0.26382  1.0000
  C   C425      1.0  0.35741  0.73243  0.34370  1.0000
  C   C426      1.0  0.36747  0.75486  0.34268  1.0000
  C   C427      1.0  0.35299  0.77529  0.34110  1.0000
  C   C428      1.0  0.32845  0.77325  0.34052  1.0000
  C   C429      1.0  0.31850  0.75079  0.34054  1.0000
  C   C430      1.0  0.33292  0.73044  0.34219  1.0000
  H   H350      1.0  0.38644  0.75646  0.34369  1.0000
  H   H351      1.0  0.36080  0.79255  0.34115  1.0000
  H   H352      1.0  0.29958  0.74906  0.33977  1.0000
  C   C431      1.0  0.28441  0.74541  0.26618  1.0000
  C   C432      1.0  0.32049  0.70429  0.46514  1.0000
  C   C433      1.0  0.15358  0.83105  0.24645  1.0000
  C   C434      1.0  0.16509  0.80916  0.24353  1.0000
  C   C435      1.0  0.18849  0.80810  0.23466  1.0000
  C   C436      1.0  0.20051  0.82894  0.22910  1.0000
  C   C437      1.0  0.18921  0.85109  0.23253  1.0000
  C   C438      1.0  0.16549  0.85188  0.24084  1.0000
  P   P12       1.0  0.20422  0.87835  0.22514  1.0000
  C   C439      1.0  0.23555  0.87504  0.23212  1.0000
  C   C440      1.0  0.19908  0.88589  0.18958  1.0000
  C   C441      1.0  0.21697  0.89582  0.17366  1.0000
  C   C442      1.0  0.21272  0.90169  0.14622  1.0000
  C   C443      1.0  0.19040  0.89844  0.13474  1.0000
  C   C444      1.0  0.17236  0.88924  0.15064  1.0000
  C   C445      1.0  0.17663  0.88298  0.17793  1.0000
  C   C446      1.0  0.24588  0.88598  0.25493  1.0000
  C   C447      1.0  0.27017  0.88380  0.25960  1.0000
  C   C448      1.0  0.28433  0.87036  0.24197  1.0000
  C   C449      1.0  0.27425  0.85923  0.21936  1.0000
  C   C450      1.0  0.25002  0.86177  0.21426  1.0000
  C   C451      1.0  0.19117  0.90099  0.24674  1.0000
  C   C452      1.0  0.18795  0.89656  0.27478  1.0000
  C   C453      1.0  0.17579  0.91300  0.29110  1.0000
  C   C454      1.0  0.16687  0.93394  0.27969  1.0000
  C   C455      1.0  0.17013  0.93854  0.25193  1.0000
  C   C456      1.0  0.18229  0.92222  0.23544  1.0000
  H   H353      1.0  0.13536  0.83194  0.25316  1.0000
  H   H354      1.0  0.15582  0.79307  0.24815  1.0000
  H   H355      1.0  0.19739  0.79109  0.23244  1.0000
  H   H356      1.0  0.21860  0.82757  0.22252  1.0000
  H   H357      1.0  0.15612  0.86862  0.24313  1.0000
  H   H358      1.0  0.23409  0.89940  0.18238  1.0000
  H   H359      1.0  0.22653  0.90927  0.13390  1.0000
  H   H360      1.0  0.18693  0.90344  0.11364  1.0000
  H   H361      1.0  0.15488  0.88726  0.14190  1.0000
  H   H362      1.0  0.16218  0.87634  0.18995  1.0000
  H   H363      1.0  0.23546  0.89631  0.26922  1.0000
  H   H364      1.0  0.27807  0.89256  0.27700  1.0000
  H   H365      1.0  0.30312  0.86871  0.24593  1.0000
  H   H366      1.0  0.28530  0.84890  0.20561  1.0000
  H   H367      1.0  0.24256  0.85350  0.19628  1.0000
  H   H368      1.0  0.19416  0.88010  0.28390  1.0000
  H   H369      1.0  0.17231  0.90919  0.31238  1.0000
  H   H370      1.0  0.15649  0.94606  0.29219  1.0000
  H   H371      1.0  0.16213  0.95423  0.24300  1.0000
  H   H372      1.0  0.18392  0.92591  0.21382  1.0000
  C   C457      1.0  0.26405  0.84778  0.41804  1.0000
  C   C458      1.0  0.28849  0.68521  0.22812  1.0000
  H   H373      1.0  0.15769  0.84220  0.48525  1.0000
  C   C459      1.0  0.19680  0.80185  0.42110  1.0000
  C   C460      1.0  0.41518  0.88832  0.08638  1.0000
  C   C461      1.0  0.39013  0.77990  0.07789  1.0000
  C   C462      1.0  0.35831  0.88523  0.49631  1.0000
  C   C463      1.0  0.39554  0.88211  0.13820  1.0000
  C   C464      1.0  0.38694  0.86912  0.11590  1.0000
  C   C465      1.0  0.39710  0.87218  0.09000  1.0000
  P   P13       1.0  0.36340  0.84831  0.12009  1.0000
  C   C466      1.0  0.37334  0.82099  0.10433  1.0000
  C   C467      1.0  0.35763  0.84403  0.15610  1.0000
  C   C468      1.0  0.36582  0.82370  0.16999  1.0000
  C   C469      1.0  0.36212  0.82138  0.19819  1.0000
  C   C470      1.0  0.35014  0.83922  0.21261  1.0000
  C   C471      1.0  0.34159  0.85924  0.19877  1.0000
  C   C472      1.0  0.34541  0.86174  0.17071  1.0000
  C   C473      1.0  0.35831  0.80794  0.08740  1.0000
  C   C474      1.0  0.36670  0.78746  0.07428  1.0000
  C   C475      1.0  0.17558  0.97089  0.18171  1.0000
  H   H374      1.0  0.30408  0.98129  0.18058  1.0000
  C   C476      1.0  0.39683  0.81316  0.10800  1.0000
  C   C477      1.0  0.33622  0.85903  0.10448  1.0000
  C   C478      1.0  0.33613  0.87775  0.08563  1.0000
  C   C479      1.0  0.31498  0.88576  0.07367  1.0000
  C   C480      1.0  0.29371  0.87530  0.08057  1.0000
  C   C481      1.0  0.29359  0.85668  0.09938  1.0000
  C   C482      1.0  0.31474  0.84859  0.11134  1.0000
  H   H375      1.0  0.12920  0.81120  0.46195  1.0000
  H   H376      1.0  0.38841  0.87996  0.15848  1.0000
  H   H377      1.0  0.39063  0.86261  0.07238  1.0000
  H   H378      1.0  0.37547  0.80991  0.15934  1.0000
  H   H379      1.0  0.36908  0.80609  0.20909  1.0000
  H   H380      1.0  0.34811  0.83796  0.23465  1.0000
  H   H381      1.0  0.19463  0.73831  0.45039  1.0000
  H   H382      1.0  0.33969  0.87798  0.16067  1.0000
  H   H383      1.0  0.34026  0.81370  0.08381  1.0000
  H   H384      1.0  0.35512  0.77763  0.06093  1.0000
  C   C483      1.0  0.35259  0.74505  0.15965  1.0000
  H   H385      1.0  0.36646  0.67448  0.48402  1.0000
  H   H386      1.0  0.40880  0.82311  0.12074  1.0000
  H   H387      1.0  0.35221  0.88649  0.08025  1.0000
  H   H388      1.0  0.36638  0.69855  0.20919  1.0000
  H   H389      1.0  0.27732  0.88179  0.07149  1.0000
  H   H390      1.0  0.27705  0.84866  0.10480  1.0000
  H   H391      1.0  0.31437  0.83420  0.12594  1.0000
  H   H392      1.0  0.23887  0.81741  0.45049  1.0000
  H   H393      1.0  0.03250  0.93068  0.07919  1.0000
  C   C484      1.0  0.24685  0.80728  0.49194  1.0000
  H   H394      1.0  0.22171  0.89354  0.49045  1.0000
  H   H395      1.0  0.21089  0.70930  0.40719  1.0000
  C   C485      1.0  0.37457  0.71248  0.24950  1.0000
  C   C486      1.0  0.38273  0.70643  0.27578  1.0000
  C   C487      1.0  0.37840  0.76431  0.26198  1.0000
  C   C488      1.0  0.36667  0.78543  0.26962  1.0000
  C   C489      1.0  0.37880  0.80320  0.28331  1.0000
  C   C490      1.0  0.40262  0.79996  0.28989  1.0000
  C   C491      1.0  0.41442  0.77898  0.28256  1.0000
  C   C492      1.0  0.40244  0.76128  0.26848  1.0000
  C   C493      1.0  0.31690  0.75997  0.23946  1.0000
  C   C494      1.0  0.29308  0.76106  0.24674  1.0000
  C   C495      1.0  0.46637  0.97250  0.03358  1.0000
  H   H396      1.0  0.03195  0.68580  0.49036  1.0000
  H   H397      1.0  0.38330  0.71962  0.29183  1.0000
  H   H398      1.0  0.34816  0.78837  0.26522  1.0000
  H   H399      1.0  0.36970  0.81953  0.28902  1.0000
  H   H400      1.0  0.41186  0.81375  0.30072  1.0000
  H   H401      1.0  0.43289  0.77646  0.28782  1.0000
  H   H402      1.0  0.41199  0.74530  0.26266  1.0000
  H   H403      1.0  0.32344  0.77247  0.22467  1.0000
  H   H404      1.0  0.28136  0.77424  0.23761  1.0000
  H   H405      1.0  0.21466  0.68377  0.24650  1.0000
  C   C496      1.0  0.33222  0.74317  0.25166  1.0000
  C   C497      1.0  0.29414  0.85168  0.45306  1.0000
  P   P14       1.0  0.36306  0.74197  0.24266  1.0000
  C   C498      1.0  0.42333  0.90148  0.10855  1.0000
  H   H406      1.0  0.04998  0.73274  0.06553  1.0000
  H   H407      1.0  0.09458  0.71606  0.01875  1.0000
  C   C499      1.0  0.10272  0.68844  0.07387  1.0000
  H   H408      1.0  0.11759  0.67642  0.07672  1.0000
  C   C500      1.0  0.34278  0.77103  0.41062  1.0000
  S   S84       1.0  0.33273  0.66322  0.31118  1.0000
  C   C501      1.0  0.25964  0.93037  0.41932  1.0000
  H   H409      1.0  0.12302  0.71895  0.08462  1.0000
  H   H410      1.0  0.19752  0.81967  0.41295  1.0000
  C   C502      1.0  0.04118  0.96554  0.18137  1.0000
  C   C503      1.0  0.45691  0.95592  0.01562  1.0000
  C   C504      1.0  0.29822  0.69760  0.47417  1.0000
  H   H411      1.0  0.28788  0.92682  0.47705  1.0000
  C   C505      1.0  0.07608  0.72777  0.48349  1.0000
  H   H412      1.0  0.16068  0.89526  0.43857  1.0000
  H   H413      1.0  0.03571  0.97331  0.08949  1.0000
  C   C506      1.0  0.00070  0.98220  0.07513  1.0000
  H   H414      1.0  0.09450  0.72600  0.48920  1.0000
  C   C507      1.0  0.23721  0.69871  0.27737  1.0000
  H   H415      1.0  0.22923  0.88905  0.40249  1.0000
  C   C508      1.0  0.10855  0.75978  0.43578  1.0000
  H   H416      1.0  0.00736  0.98272  0.17252  1.0000
  C   C509      1.0  0.06475  0.72039  0.06770  1.0000
  C   C510      1.0  0.18987  0.89406  0.46702  1.0000
  H   H417      1.0  0.28714  0.68711  0.46096  1.0000
  H   H418      1.0  0.17868  0.89601  0.48490  1.0000
  C   C511      1.0  0.39059  0.76209  0.16898  1.0000
  C   C512      1.0  0.99689  0.93394  0.06391  1.0000
  C   C513      1.0  0.05446  0.94989  0.24506  1.0000
  C   C514      1.0  0.38809  0.66556  0.26183  1.0000
  H   H419      1.0  0.30262  0.86156  0.46924  1.0000
  H   H420      1.0  0.30407  0.80242  0.41474  1.0000
  C   C515      1.0  0.22456  0.96871  0.19059  1.0000
  C   C516      1.0  0.04832  0.92882  0.15661  1.0000
  C   C517      1.0  0.10589  0.71261  0.07842  1.0000
  H   H421      1.0  0.41987  0.90859  0.15164  1.0000
  C   C518      1.0  0.38744  0.75830  0.19702  1.0000
  C   C519      1.0  0.06884  0.71847  0.45835  1.0000
  H   H422      1.0  0.02040  0.91755  0.12997  1.0000
  C   C520      1.0  0.15923  0.73030  0.36873  1.0000
  C   C521      1.0  0.14929  0.75188  0.37716  1.0000
  C   C522      1.0  0.16194  0.77260  0.37429  1.0000
  C   C523      1.0  0.18423  0.77187  0.36224  1.0000
  C   C524      1.0  0.19353  0.75063  0.35180  1.0000
  C   C525      1.0  0.18129  0.72961  0.35608  1.0000
  P   P15       1.0  0.22126  0.75000  0.33383  1.0000
  C   C526      1.0  0.21918  0.72879  0.30640  1.0000
  C   C527      1.0  0.22776  0.77753  0.31679  1.0000
  C   C528      1.0  0.20950  0.79275  0.30762  1.0000
  C   C529      1.0  0.21472  0.81430  0.29525  1.0000
  C   C530      1.0  0.23815  0.82036  0.29071  1.0000
  C   C531      1.0  0.25641  0.80484  0.29859  1.0000
  C   C532      1.0  0.25125  0.78344  0.31137  1.0000
  C   C533      1.0  0.23877  0.71483  0.29897  1.0000
  C   C534      1.0  0.28453  0.97174  0.24276  1.0000
  C   C535      1.0  0.15063  0.68153  0.47152  1.0000
  C   C536      1.0  0.19636  0.71036  0.27028  1.0000
  C   C537      1.0  0.19802  0.72663  0.29170  1.0000
  C   C538      1.0  0.24344  0.74160  0.35885  1.0000
  C   C539      1.0  0.24630  0.71781  0.36646  1.0000
  C   C540      1.0  0.26369  0.71097  0.38539  1.0000
  C   C541      1.0  0.27793  0.72795  0.39750  1.0000
  C   C542      1.0  0.27454  0.75182  0.39091  1.0000
  C   C543      1.0  0.25734  0.75866  0.37169  1.0000
  H   H423      1.0  0.14919  0.71429  0.37049  1.0000
  H   H424      1.0  0.13153  0.75265  0.38522  1.0000
  H   H425      1.0  0.15430  0.78934  0.38085  1.0000
  H   H426      1.0  0.19395  0.78798  0.36053  1.0000
  H   H427      1.0  0.18820  0.71282  0.34862  1.0000
  H   H428      1.0  0.19117  0.78840  0.31058  1.0000
  H   H429      1.0  0.20052  0.82664  0.29005  1.0000
  H   H430      1.0  0.24217  0.83740  0.28194  1.0000
  H   H431      1.0  0.27464  0.80972  0.29570  1.0000
  H   H432      1.0  0.26574  0.77179  0.31743  1.0000
  H   H433      1.0  0.25515  0.71609  0.31022  1.0000
  C   C544      1.0  0.05599  0.94626  0.17466  1.0000
  C   C545      1.0  0.19478  0.75599  0.44204  1.0000
  H   H434      1.0  0.07498  0.82672  0.48144  1.0000
  H   H435      1.0  0.18265  0.73722  0.29710  1.0000
  H   H436      1.0  0.23541  0.70442  0.35732  1.0000
  H   H437      1.0  0.26643  0.69236  0.39007  1.0000
  H   H438      1.0  0.29177  0.72253  0.41164  1.0000
  H   H439      1.0  0.28569  0.76501  0.40001  1.0000
  H   H440      1.0  0.29320  0.71682  0.29406  1.0000
  C   C546      1.0  0.15089  0.71748  0.44472  1.0000
  C   C547      1.0  0.39011  0.91717  0.00894  1.0000
  C   C548      1.0  0.36673  0.74794  0.20659  1.0000
  H   H441      1.0  0.32114  0.82437  0.45381  1.0000
  H   H442      1.0  0.07741  0.66500  0.00596  1.0000
  H   H443      1.0  0.33926  0.73957  0.14512  1.0000
  C   C549      1.0  0.06152  0.69626  0.06314  1.0000
  H   H444      1.0  0.04411  0.69015  0.05767  1.0000
  C   C550      1.0  0.21537  0.78585  0.41648  1.0000
  H   H445      1.0  0.40186  0.68367  0.39200  1.0000
  C   C551      1.0  0.26909  0.94685  0.40129  1.0000
  H   H446      1.0  0.28621  0.93065  0.11188  1.0000
  C   C552      1.0  0.36049  0.78782  0.41045  1.0000
  C   C553      1.0  0.37311  0.69469  0.22946  1.0000
  C   C554      1.0  0.41362  0.89827  0.13447  1.0000
  C   C555      1.0  0.05587  0.94069  0.27159  1.0000
  H   H447      1.0  0.15139  0.72587  0.42490  1.0000
  H   H448      1.0  0.30799  0.89386  0.42621  1.0000
  C   C556      1.0  0.08047  0.68008  0.06623  1.0000
  C   C557      1.0  0.34942  0.74113  0.18764  1.0000
  C   C558      1.0  0.27328  0.91072  0.42801  1.0000
  C   C559      1.0  0.38005  0.67140  0.23558  1.0000
  C   C560      1.0  0.14293  0.85457  0.48507  1.0000
  H   H449      1.0  0.08139  0.70903  0.44540  1.0000
  C   C561      1.0  0.38954  0.68310  0.28186  1.0000
  C   C562      1.0  0.32343  0.72778  0.27151  1.0000
  H   H450      1.0  0.23175  0.94380  0.24073  1.0000
  C   C563      1.0  0.15035  0.69492  0.49548  1.0000
  C   C564      1.0  0.29960  0.72880  0.27859  1.0000
  C   C565      1.0  0.19032  0.95982  0.16257  1.0000
  C   C566      1.0  0.27350  0.86044  0.44014  1.0000
  H   H451      1.0  0.24877  0.85428  0.40697  1.0000
  H   H452      1.0  0.33367  0.73236  0.19442  1.0000
  H   H453      1.0  0.19923  0.98585  0.09552  1.0000
  C   C567      1.0  0.27487  0.82670  0.40924  1.0000
  H   H454      1.0  0.26814  0.81763  0.39139  1.0000
  C   C568      1.0  0.26997  0.89403  0.48531  1.0000
  C   C569      1.0  0.08944  0.76911  0.42081  1.0000
  C   C570      1.0  0.02914  0.73313  0.46653  1.0000
  H   H455      1.0  0.33490  0.71515  0.28195  1.0000
  H   H456      1.0  0.11161  0.74094  0.43511  1.0000
  H   H457      1.0  0.40130  0.76324  0.21108  1.0000
  H   H458      1.0  0.06007  0.92208  0.27471  1.0000
  H   H459      1.0  0.29961  0.95667  0.37803  1.0000
  C   C571      1.0  0.37314  0.75555  0.15033  1.0000
  C   C572      1.0  0.30623  0.92507  0.40152  1.0000
  H   H460      1.0  0.17396  0.99074  0.21930  1.0000
  C   C573      1.0  0.37466  0.67686  0.46423  1.0000
  C   C574      1.0  0.17715  0.79499  0.43602  1.0000
  C   C575      1.0  0.17569  0.77185  0.44627  1.0000
  C   C576      1.0  0.29053  0.96719  0.27007  1.0000
  H   H461      1.0  0.22893  0.75060  0.42347  1.0000
  C   C577      1.0  0.29681  0.90845  0.41935  1.0000
  H   H462      1.0  0.40668  0.76995  0.16171  1.0000
  S   S85       1.0  0.26895  0.66959  0.33060  1.0000
  H   H463      1.0  0.06322  0.67124  0.11567  1.0000
  H   H464      1.0  0.05758  0.93797  0.22815  1.0000
  H   H465      1.0  0.16329  0.80798  0.43930  1.0000
  H   H466      1.0  0.12988  0.68946  0.01668  1.0000
  H   H467      1.0  0.33004  0.73932  0.42846  1.0000
  H   H468      1.0  0.18599  0.89103  0.39772  1.0000
  H   H469      1.0  0.18290  0.95198  0.14425  1.0000
  H   H470      1.0  0.31517  0.90034  0.05925  1.0000
  C   C578      1.0  0.19397  0.89122  0.41790  1.0000
  S   S86       1.0  0.35372  0.98076  0.05660  1.0000
  C   C579      1.0  0.37649  0.69950  0.45271  1.0000
  C   C580      1.0  0.19958  0.67387  0.41460  1.0000
  Fe  Fe42      1.0  0.35408  0.67392  0.34764  1.0000
  C   C581      1.0  0.29233  0.94410  0.39224  1.0000
  H   H471      1.0  0.05980  0.91377  0.15199  1.0000
  H   H472      1.0  0.37589  0.82876  0.48244  1.0000
  H   H473      1.0  0.15025  0.68237  0.42767  1.0000
  H   H474      1.0  0.24169  0.93300  0.42627  1.0000
  C   C582      1.0  0.48858  0.98180  0.02843  1.0000
  H   H475      1.0  0.38884  0.95515  0.00727  1.0000
  C   C583      1.0  0.27264  0.94651  0.14863  1.0000
  C   C584      1.0  0.29523  0.81814  0.42234  1.0000
  P   P16       1.0  0.15051  0.76324  0.46645  1.0000
  C   C585      1.0  0.12354  0.77475  0.45052  1.0000
  C   C586      1.0  0.21267  0.69392  0.42030  1.0000
  C   C587      1.0  0.08495  0.79344  0.42047  1.0000
  C   C588      1.0  0.29343  0.90880  0.14712  1.0000
  H   H476      1.0  0.08932  0.74726  0.07922  1.0000
  H   H477      1.0  0.07148  0.78334  0.48506  1.0000
  C   C589      1.0  0.08690  0.72857  0.07543  1.0000
  S   S87       1.0  0.28543  0.98989  0.08453  1.0000
  C   C590      1.0  0.15015  0.73120  0.46866  1.0000
  H   H478      1.0  0.18797  0.67363  0.39691  1.0000
  C   C591      1.0  0.40516  0.79270  0.09483  1.0000
  C   C592      1.0  0.36979  0.84673  0.47884  1.0000
  H   H479      1.0  0.23863  0.70935  0.44680  1.0000
  C   C593      1.0  0.06957  0.90493  0.00787  1.0000
  Fe  Fe43      1.0  0.12640  0.66838  0.33328  1.0000
  C   C594      1.0  0.30484  0.83056  0.44427  1.0000
  C   C595      1.0  0.28322  0.91388  0.49230  1.0000
  H   H480      1.0  0.03996  0.71406  0.43023  1.0000
  H   H481      1.0  0.07340  0.94447  0.18364  1.0000
  H   H482      1.0  0.07469  0.95578  0.00002  1.0000
  C   C596      1.0  0.33541  0.71723  0.48236  1.0000
  H   H483      1.0  0.25229  0.68744  0.27252  1.0000
  H   H484      1.0  0.32847  0.77240  0.39601  1.0000
  H   H485      1.0  0.37567  0.75830  0.12861  1.0000
  H   H486      1.0  0.09583  0.82739  0.43517  1.0000
  C   C597      1.0  0.21601  0.69649  0.26297  1.0000
  P   P17       1.0  0.26091  0.88877  0.45034  1.0000
  C   C598      1.0  0.37970  0.78536  0.42828  1.0000
  H   H487      1.0  0.24302  0.67390  0.47609  1.0000
  C   C599      1.0  0.39460  0.68183  0.41237  1.0000
  C   C600      1.0  0.05274  0.95553  0.29417  1.0000
  H   H488      1.0  0.30336  0.89567  0.13569  1.0000
  H   H489      1.0  0.25970  0.69082  0.19980  1.0000
  H   H490      1.0  0.42340  0.78697  0.09742  1.0000
  S   S88       1.0  0.32520  0.66995  0.37843  1.0000
  H   H491      1.0  0.26643  0.96230  0.13805  1.0000
  C   C601      1.0  0.38652  0.70185  0.42661  1.0000
  C   C602      1.0  0.21444  0.76295  0.42704  1.0000
  C   C603      1.0  0.34378  0.75222  0.42911  1.0000
  H   H492      1.0  0.01103  0.73548  0.45971  1.0000
  C   C604      1.0  0.01957  0.96669  0.08075  1.0000
  H   H493      1.0  0.24228  0.93675  0.28927  1.0000
  P   P18       1.0  0.36455  0.72491  0.47071  1.0000
  H   H494      1.0  0.35957  0.80245  0.39610  1.0000
  C   C605      1.0  0.25391  0.94666  0.27619  1.0000
  H   H495      1.0  0.30724  0.97306  0.27821  1.0000
  C   C606      1.0  0.29879  0.66986  0.24732  1.0000
  C   C607      1.0  0.21850  0.88968  0.42079  1.0000
  C   C608      1.0  0.27518  0.95479  0.28681  1.0000
  H   H496      1.0  0.43690  0.91444  0.10555  1.0000
  H   H497      1.0  0.39368  0.79815  0.42781  1.0000
  C   C609      1.0  0.24796  0.95091  0.24877  1.0000
  C   C610      1.0  0.38105  0.76623  0.44640  1.0000
  C   C611      1.0  0.01165  0.95064  0.14978  1.0000
  H   H498      1.0  0.27759  0.92203  0.21230  1.0000
  C   C612      1.0  0.04542  0.72120  0.44983  1.0000
  P   P19       1.0  0.25614  0.96818  0.19606  1.0000
  H   H499      1.0  0.32632  0.69883  0.44495  1.0000
  C   C613      1.0  0.28398  0.92861  0.13372  1.0000
  H   H500      1.0  0.29882  0.89155  0.18588  1.0000
  C   C614      1.0  0.22900  0.88989  0.44693  1.0000
  H   H501      1.0  0.39653  0.76422  0.45932  1.0000
  C   C615      1.0  0.01775  0.94263  0.07494  1.0000
  H   H502      1.0  0.38779  0.71894  0.41682  1.0000
  C   C616      1.0  0.26308  0.96384  0.23192  1.0000
  H   H503      1.0  0.32434  0.92308  0.39475  1.0000
  C   C617      1.0  0.11834  0.79915  0.45062  1.0000
  C   C618      1.0  0.27896  0.92406  0.19035  1.0000
  C   C619      1.0  0.26768  0.67899  0.21477  1.0000
  H   H504      1.0  0.29668  0.70188  0.22360  1.0000
  H   H505      1.0  0.45633  0.97836  0.05129  1.0000
  C   C620      1.0  0.09922  0.80842  0.43565  1.0000
  C   C621      1.0  0.36266  0.74992  0.44763  1.0000
  H   H506      1.0  0.17964  0.70828  0.25973  1.0000
  H   H507      1.0  0.27993  0.95120  0.30796  1.0000
  C   C622      1.0  0.26988  0.94432  0.17703  1.0000
  H   H508      1.0  0.22568  0.95104  0.15116  1.0000
  C   C623      1.0  0.17967  0.89351  0.44096  1.0000
  H   H509      1.0  0.07070  0.80075  0.40797  1.0000
  H   H510      1.0  0.07413  0.67147  0.47870  1.0000
  C   C624      1.0  0.21441  0.89244  0.47004  1.0000
  H   H511      1.0  0.20410  0.84237  0.46297  1.0000
  H   H512      1.0  0.07844  0.75756  0.40876  1.0000
  C   C625      1.0  0.03619  0.74201  0.49198  1.0000
  C   C626      1.0  0.29087  0.90650  0.17540  1.0000
  C   C627      1.0  0.23380  0.81912  0.47167  1.0000
  C   C628      1.0  0.04673  0.98895  0.26374  1.0000
  H   H513      1.0  0.39431  0.87945  0.00431  1.0000
  H   H514      1.0  0.05433  0.94832  0.31468  1.0000
  C   C629      1.0  0.23728  0.98684  0.09152  1.0000
  H   H515      1.0  0.05703  0.96853  0.04350  1.0000
  C   C630      1.0  0.05917  0.98132  0.02727  1.0000
  H   H516      1.0  0.39546  0.67853  0.30237  1.0000
  H   H517      1.0  0.43956  0.94889  0.01944  1.0000
  P   P20       1.0  0.05044  0.98677  0.20677  1.0000
  H   H518      1.0  0.04580  0.99115  0.30783  1.0000
  C   C631      1.0  0.06942  0.97416  0.00261  1.0000
  C   C632      1.0  0.14973  0.71965  0.49412  1.0000
  H   H519      1.0  0.31502  0.67463  0.25745  1.0000
  C   C633      1.0  0.26833  0.99548  0.18375  1.0000
  H   H520      1.0  0.03189  0.90150  0.00490  1.0000
  C   C634      1.0  0.23051  0.67389  0.45926  1.0000
  S   S89       1.0  0.34529  0.99361  0.12043  1.0000
  C   C635      1.0  0.22814  0.69396  0.44266  1.0000
  H   H521      1.0  0.31992  0.93199  0.00898  1.0000
  C   C636      1.0  0.21431  0.83327  0.47872  1.0000
  H   H522      1.0  0.15233  0.94673  0.00768  1.0000
  C   C637      1.0  0.04990  0.97414  0.24085  1.0000
  H   H523      1.0  0.29694  0.98102  0.23017  1.0000
  Fe  Fe44      1.0  0.37612  0.99434  0.09159  1.0000
  H   H524      1.0  0.10736  0.90538  0.00470  1.0000
  C   C638      1.0  0.20969  0.98044  0.20934  1.0000
  C   C639      1.0  0.18532  0.98163  0.20480  1.0000
  H   H525      1.0  0.99555  0.91521  0.05962  1.0000
  C   C640      1.0  0.09959  0.70785  0.99959  1.0000
  C   C641      1.0  0.08038  0.99545  0.19989  1.0000
  H   H526      1.0  0.07583  0.99611  0.15586  1.0000
  S   S90       1.0  0.36424  0.71534  0.58949  1.0000
  H   H527      1.0  0.29055  0.83970  0.67605  1.0000
  S   S91       1.0  0.45477  0.69750  0.85363  1.0000
  Fe  Fe45      1.0  0.33600  0.84092  0.62442  1.0000
  S   S92       1.0  0.37386  0.84436  0.61254  1.0000
  S   S93       1.0  0.31867  0.80809  0.63996  1.0000
  Fe  Fe46      1.0  0.32500  0.89202  0.61235  1.0000
  S   S94       1.0  0.36225  0.89958  0.59919  1.0000
  S   S95       1.0  0.29646  0.92016  0.61451  1.0000
  Fe  Fe47      1.0  0.35986  0.86500  0.57623  1.0000
  S   S96       1.0  0.37325  0.85165  0.53474  1.0000
  Fe  Fe48      1.0  0.37273  0.87813  0.63660  1.0000
  S   S97       1.0  0.40355  0.88516  0.66565  1.0000
  S   S98       1.0  0.32192  0.85928  0.58698  1.0000
  S   S99       1.0  0.33568  0.87319  0.65090  1.0000
  Fe  Fe49      1.0  0.44002  0.84056  0.87374  1.0000
  S   S100      1.0  0.40864  0.86529  0.86935  1.0000
  S   S101      1.0  0.42827  0.80403  0.88835  1.0000
  Fe  Fe50      1.0  0.47359  0.88037  0.85740  1.0000
  S   S102      1.0  0.44395  0.90662  0.85141  1.0000
  C   C642      1.0  0.00996  0.73210  0.94531  1.0000
  Fe  Fe51      1.0  0.42991  0.89252  0.89113  1.0000
  S   S103      1.0  0.41662  0.92168  0.92009  1.0000
  Fe  Fe52      1.0  0.42509  0.87720  0.83010  1.0000
  S   S104      1.0  0.39755  0.88224  0.79615  1.0000
  S   S105      1.0  0.46050  0.86742  0.89830  1.0000
  S   S106      1.0  0.45559  0.85119  0.83330  1.0000
  S   S107      1.0  0.08907  0.70940  0.62814  1.0000
  S   S108      1.0  0.00138  0.84845  0.82870  1.0000
  C   C643      1.0  0.04639  0.74866  0.55888  1.0000
  S   S109      1.0  0.05177  0.83799  0.85926  1.0000
  C   C644      1.0  0.13561  0.92607  0.94520  1.0000
  S   S110      1.0  0.03118  0.89165  0.85829  1.0000
  Fe  Fe53      1.0  0.03831  0.86291  0.82696  1.0000
  S   S111      1.0  0.06689  0.86470  0.79382  1.0000
  Fe  Fe54      1.0  0.04246  0.86541  0.89056  1.0000
  S   S112      1.0  0.07207  0.87295  0.92114  1.0000
  H   H528      1.0  0.27138  0.80530  0.69647  1.0000
  Fe  Fe55      1.0  0.16792  0.87431  0.63901  1.0000
  S   S113      1.0  0.13526  0.88877  0.61794  1.0000
  S   S114      1.0  0.19482  0.89698  0.66012  1.0000
  Fe  Fe56      1.0  0.15444  0.82322  0.62922  1.0000
  S   S115      1.0  0.12095  0.83374  0.60765  1.0000
  S   S116      1.0  0.16827  0.78574  0.63460  1.0000
  Fe  Fe57      1.0  0.14246  0.86066  0.58576  1.0000
  S   S117      1.0  0.15034  0.85726  0.54019  1.0000
  Fe  Fe58      1.0  0.11661  0.86033  0.64192  1.0000
  S   S118      1.0  0.08089  0.86271  0.66367  1.0000
  S   S119      1.0  0.17629  0.84858  0.60587  1.0000
  S   S120      1.0  0.14891  0.84779  0.66462  1.0000
  H   H529      1.0  0.11318  0.76685  0.55984  1.0000
  H   H530      1.0  0.11726  0.67958  0.55184  1.0000
  H   H531      1.0  0.23298  0.75484  0.81236  1.0000
  C   C645      1.0  0.11104  0.95978  0.95856  1.0000
  C   C646      1.0  0.06994  0.86419  0.75752  1.0000
  C   C647      1.0  0.09280  0.86476  0.74642  1.0000
  C   C648      1.0  0.09642  0.86456  0.71786  1.0000
  C   C649      1.0  0.07715  0.86402  0.69990  1.0000
  C   C650      1.0  0.05425  0.86325  0.71097  1.0000
  C   C651      1.0  0.05064  0.86324  0.73960  1.0000
  H   H532      1.0  0.10785  0.86562  0.76004  1.0000
  H   H533      1.0  0.11411  0.86509  0.70976  1.0000
  H   H534      1.0  0.03922  0.86268  0.69730  1.0000
  H   H535      1.0  0.03296  0.86282  0.74778  1.0000
  H   H536      1.0  0.27142  0.87952  0.67856  1.0000
  C   C652      1.0  0.09141  0.89051  0.96835  1.0000
  C   C653      1.0  0.07038  0.88471  0.95477  1.0000
  C   C654      1.0  0.04888  0.88877  0.96806  1.0000
  C   C655      1.0  0.47581  0.94043  0.77491  1.0000
  H   H537      1.0  0.10810  0.88699  0.95842  1.0000
  H   H538      1.0  0.03259  0.88408  0.95801  1.0000
  C   C656      1.0  0.10543  0.76499  0.69724  1.0000
  H   H539      1.0  0.46170  0.93624  0.97840  1.0000
  H   H540      1.0  0.27253  0.76979  0.82458  1.0000
  H   H541      1.0  0.07628  0.78914  0.57322  1.0000
  C   C657      1.0  0.05518  0.79544  0.80203  1.0000
  H   H542      1.0  0.03554  0.73580  0.85496  1.0000
  C   C658      1.0  0.41209  0.95964  0.83264  1.0000
  S   S121      1.0  0.33043  0.68044  0.64531  1.0000
  C   C659      1.0  0.11147  0.73002  0.62969  1.0000
  C   C660      1.0  0.13482  0.72319  0.63555  1.0000
  C   C661      1.0  0.15240  0.74033  0.63669  1.0000
  C   C662      1.0  0.14654  0.76420  0.63215  1.0000
  C   C663      1.0  0.12329  0.77070  0.62585  1.0000
  C   C664      1.0  0.10572  0.75375  0.62487  1.0000
  H   H543      1.0  0.13930  0.70481  0.63938  1.0000
  H   H544      1.0  0.17047  0.73513  0.64117  1.0000
  H   H545      1.0  0.11859  0.78883  0.62223  1.0000
  H   H546      1.0  0.08769  0.75903  0.62024  1.0000
  H   H547      1.0  0.21331  0.85073  0.72222  1.0000
  H   H548      1.0  0.08337  0.78528  0.82934  1.0000
  C   C665      1.0  0.40544  0.89749  0.96775  1.0000
  C   C666      1.0  0.40784  0.91932  0.95481  1.0000
  C   C667      1.0  0.40235  0.94009  0.96950  1.0000
  C   C668      1.0  0.17613  0.73038  0.70023  1.0000
  H   H549      1.0  0.40992  0.88141  0.95679  1.0000
  H   H550      1.0  0.40430  0.95706  0.95969  1.0000
  C   C669      1.0  0.26864  0.91214  0.62715  1.0000
  C   C670      1.0  0.25869  0.92551  0.64838  1.0000
  C   C671      1.0  0.23611  0.92056  0.65808  1.0000
  C   C672      1.0  0.22283  0.90265  0.64614  1.0000
  C   C673      1.0  0.23251  0.88944  0.62448  1.0000
  C   C674      1.0  0.25557  0.89395  0.61525  1.0000
  H   H551      1.0  0.26847  0.93983  0.65735  1.0000
  H   H552      1.0  0.22871  0.93094  0.67468  1.0000
  H   H553      1.0  0.22224  0.87584  0.61487  1.0000
  H   H554      1.0  0.26293  0.88392  0.59839  1.0000
  C   C675      1.0  0.40159  0.88329  0.70189  1.0000
  C   C676      1.0  0.42239  0.88105  0.71759  1.0000
  C   C677      1.0  0.42154  0.88019  0.74644  1.0000
  C   C678      1.0  0.39986  0.88204  0.75991  1.0000
  C   C679      1.0  0.37908  0.88421  0.74420  1.0000
  C   C680      1.0  0.37990  0.88476  0.71537  1.0000
  H   H555      1.0  0.43926  0.88001  0.70735  1.0000
  H   H556      1.0  0.43766  0.87830  0.75819  1.0000
  H   H557      1.0  0.36221  0.88563  0.75439  1.0000
  H   H558      1.0  0.36380  0.88672  0.70359  1.0000
  H   H559      1.0  0.46888  0.97978  0.66875  1.0000
  H   H560      1.0  0.12287  0.72894  0.91839  1.0000
  C   C681      1.0  0.13819  0.72061  0.71963  1.0000
  C   C682      1.0  0.07549  0.81823  0.50132  1.0000
  C   C683      1.0  0.44612  0.72705  0.86223  1.0000
  C   C684      1.0  0.45976  0.74585  0.85264  1.0000
  C   C685      1.0  0.45436  0.76952  0.85993  1.0000
  C   C686      1.0  0.43536  0.77467  0.87728  1.0000
  C   C687      1.0  0.42150  0.75590  0.88654  1.0000
  C   C688      1.0  0.42672  0.73227  0.87894  1.0000
  H   H561      1.0  0.38001  0.84226  0.97868  1.0000
  H   H562      1.0  0.46521  0.78370  0.85265  1.0000
  H   H563      1.0  0.40674  0.75964  0.89991  1.0000
  H   H564      1.0  0.41610  0.71805  0.88657  1.0000
  C   C689      1.0  0.35112  0.74099  0.60310  1.0000
  C   C690      1.0  0.32881  0.74043  0.61528  1.0000
  C   C691      1.0  0.31880  0.76110  0.62661  1.0000
  C   C692      1.0  0.33091  0.78238  0.62528  1.0000
  C   C693      1.0  0.35291  0.78288  0.61258  1.0000
  C   C694      1.0  0.36315  0.76222  0.60185  1.0000
  H   H565      1.0  0.31921  0.72416  0.61596  1.0000
  H   H566      1.0  0.30165  0.76062  0.63619  1.0000
  H   H567      1.0  0.36240  0.79902  0.61156  1.0000
  H   H568      1.0  0.38043  0.76273  0.59268  1.0000
  H   H569      1.0  0.19791  0.77236  0.55030  1.0000
  H   H570      1.0  0.13741  0.76766  0.90340  1.0000
  H   H571      1.0  0.05588  0.73917  0.67514  1.0000
  H   H572      1.0  0.45276  0.99362  0.87294  1.0000
  C   C695      1.0  0.34992  0.86895  0.92611  1.0000
  C   C696      1.0  0.30060  0.88584  0.91968  1.0000
  C   C697      1.0  0.00672  0.71277  0.86333  1.0000
  P   P21       1.0  0.33110  0.89434  0.91836  1.0000
  H   H573      1.0  0.07065  0.72373  0.97758  1.0000
  H   H574      1.0  0.30755  0.84845  0.91299  1.0000
  C   C698      1.0  0.35641  0.85315  0.90508  1.0000
  H   H575      1.0  0.10943  0.79807  0.88475  1.0000
  C   C699      1.0  0.14816  0.92761  0.96983  1.0000
  C   C700      1.0  0.07385  0.78287  0.52948  1.0000
  H   H576      1.0  0.42279  0.93681  0.73829  1.0000
  C   C701      1.0  0.27213  0.88083  0.53267  1.0000
  H   H577      1.0  0.46883  0.93241  0.92185  1.0000
  H   H578      1.0  0.29201  0.75390  0.68934  1.0000
  H   H579      1.0  0.23452  0.86849  0.92083  1.0000
  H   H580      1.0  0.08235  0.70124  0.53434  1.0000
  C   C702      1.0  0.33835  0.90424  0.88429  1.0000
  C   C703      1.0  0.36210  0.90681  0.87717  1.0000
  C   C704      1.0  0.13144  0.73296  0.82875  1.0000
  C   C705      1.0  0.35824  0.86464  0.95280  1.0000
  H   H581      1.0  0.40703  0.99540  0.98772  1.0000
  C   C706      1.0  0.32078  0.90811  0.86431  1.0000
  C   C707      1.0  0.10050  0.75789  0.72412  1.0000
  C   C708      1.0  0.44309  0.66790  0.75320  1.0000
  H   H582      1.0  0.00083  0.71432  0.72099  1.0000
  Fe  Fe59      1.0  0.29613  0.67098  0.62540  1.0000
  H   H583      1.0  0.07589  0.71190  0.86054  1.0000
  C   C709      1.0  0.44977  0.96292  0.73183  1.0000
  C   C710      1.0  0.12776  0.71119  0.81605  1.0000
  H   H584      1.0  0.15034  0.68597  0.51505  1.0000
  C   C711      1.0  0.12420  0.96166  0.98286  1.0000
  C   C712      1.0  0.32522  0.91549  0.96955  1.0000
  C   C713      1.0  0.32104  0.81911  0.52071  1.0000
  H   H585      1.0  0.27301  0.81142  0.75135  1.0000
  C   C714      1.0  0.07427  0.70074  0.75216  1.0000
  C   C715      1.0  0.01264  0.74657  0.60080  1.0000
  H   H586      1.0  0.37590  0.90379  0.89226  1.0000
  C   C716      1.0  0.15540  0.73729  0.71364  1.0000
  C   C717      1.0  0.07087  0.75406  0.89697  1.0000
  H   H587      1.0  0.01919  0.80624  0.67912  1.0000
  H   H588      1.0  0.34144  0.76894  0.55170  1.0000
  H   H589      1.0  0.21318  0.76812  0.76973  1.0000
  C   C718      1.0  0.44822  0.69145  0.74691  1.0000
  H   H590      1.0  0.29223  0.79819  0.79395  1.0000
  Fe  Fe60      1.0  0.34302  0.68443  0.60219  1.0000
  C   C719      1.0  0.41347  0.71751  0.66003  1.0000
  C   C720      1.0  0.39764  0.69935  0.65518  1.0000
  C   C721      1.0  0.39029  0.68522  0.67681  1.0000
  C   C722      1.0  0.39826  0.68954  0.70342  1.0000
  C   C723      1.0  0.41330  0.70847  0.70872  1.0000
  C   C724      1.0  0.42165  0.72179  0.68662  1.0000
  P   P22       1.0  0.42453  0.71293  0.74298  1.0000
  C   C725      1.0  0.40252  0.70774  0.76869  1.0000
  C   C726      1.0  0.40970  0.70323  0.79575  1.0000
  C   C727      1.0  0.39298  0.70009  0.81624  1.0000
  C   C728      1.0  0.36896  0.70103  0.80983  1.0000
  C   C729      1.0  0.36162  0.70575  0.78299  1.0000
  C   C730      1.0  0.37832  0.70942  0.76251  1.0000
  C   C731      1.0  0.43417  0.74260  0.75013  1.0000
  C   C732      1.0  0.42456  0.76210  0.73584  1.0000
  C   C733      1.0  0.43134  0.78507  0.74246  1.0000
  C   C734      1.0  0.44720  0.78881  0.76393  1.0000
  C   C735      1.0  0.45627  0.76959  0.77883  1.0000
  C   C736      1.0  0.44974  0.74659  0.77206  1.0000
  H   H591      1.0  0.41956  0.72804  0.64304  1.0000
  H   H592      1.0  0.39140  0.69590  0.63458  1.0000
  C   C737      1.0  0.04451  0.71025  0.92892  1.0000
  H   H593      1.0  0.28729  0.92167  0.92550  1.0000
  H   H594      1.0  0.43464  0.73528  0.68975  1.0000
  H   H595      1.0  0.42825  0.70203  0.80112  1.0000
  H   H596      1.0  0.39878  0.69649  0.83701  1.0000
  H   H597      1.0  0.35610  0.69751  0.82558  1.0000
  H   H598      1.0  0.22618  0.72015  0.50652  1.0000
  H   H599      1.0  0.37225  0.71344  0.74198  1.0000
  H   H600      1.0  0.41144  0.75971  0.72004  1.0000
  H   H601      1.0  0.42390  0.80006  0.73137  1.0000
  H   H602      1.0  0.45204  0.80666  0.76940  1.0000
  C   C738      1.0  0.37136  0.83375  0.91056  1.0000
  H   H603      1.0  0.45655  0.73198  0.78431  1.0000
  C   C739      1.0  0.38861  0.97317  0.79404  1.0000
  C   C740      1.0  0.30074  0.75669  0.70887  1.0000
  C   C741      1.0  0.29588  0.74218  0.73120  1.0000
  C   C742      1.0  0.30695  0.74607  0.75638  1.0000
  C   C743      1.0  0.32349  0.76399  0.75903  1.0000
  C   C744      1.0  0.32947  0.77773  0.73624  1.0000
  C   C745      1.0  0.31720  0.77461  0.71148  1.0000
  P   P23       1.0  0.35142  0.80037  0.73862  1.0000
  C   C746      1.0  0.36994  0.79982  0.70863  1.0000
  C   C747      1.0  0.33518  0.82796  0.74209  1.0000
  C   C748      1.0  0.33029  0.84226  0.71923  1.0000
  C   C749      1.0  0.31792  0.86374  0.72242  1.0000
  C   C750      1.0  0.30986  0.87078  0.74818  1.0000
  C   C751      1.0  0.31422  0.85637  0.77094  1.0000
  C   C752      1.0  0.32674  0.83498  0.76790  1.0000
  C   C753      1.0  0.37193  0.77943  0.69226  1.0000
  C   C754      1.0  0.38627  0.77929  0.66906  1.0000
  C   C755      1.0  0.39900  0.79932  0.66224  1.0000
  C   C756      1.0  0.39771  0.81937  0.67891  1.0000
  C   C757      1.0  0.38333  0.81961  0.70209  1.0000
  C   C758      1.0  0.37151  0.79690  0.76725  1.0000
  C   C759      1.0  0.37866  0.77434  0.77641  1.0000
  C   C760      1.0  0.39395  0.77190  0.79886  1.0000
  C   C761      1.0  0.40270  0.79197  0.81178  1.0000
  C   C762      1.0  0.02728  0.76488  0.55954  1.0000
  C   C763      1.0  0.38113  0.81694  0.77975  1.0000
  C   C764      1.0  0.13922  0.78944  0.51384  1.0000
  H   H604      1.0  0.28350  0.72795  0.72895  1.0000
  H   H605      1.0  0.30279  0.73511  0.77381  1.0000
  H   H606      1.0  0.33156  0.76695  0.77880  1.0000
  H   H607      1.0  0.32079  0.78568  0.69391  1.0000
  H   H608      1.0  0.33604  0.83694  0.69896  1.0000
  H   H609      1.0  0.31453  0.87501  0.70486  1.0000
  H   H610      1.0  0.30030  0.88745  0.75044  1.0000
  H   H611      1.0  0.30816  0.86193  0.79097  1.0000
  H   H612      1.0  0.33017  0.82410  0.78577  1.0000
  H   H613      1.0  0.36244  0.76359  0.69713  1.0000
  H   H614      1.0  0.38706  0.76380  0.65600  1.0000
  H   H615      1.0  0.40965  0.79945  0.64388  1.0000
  H   H616      1.0  0.40760  0.83490  0.67360  1.0000
  H   H617      1.0  0.38258  0.83528  0.71480  1.0000
  H   H618      1.0  0.37266  0.75866  0.76608  1.0000
  H   H619      1.0  0.39935  0.75448  0.80608  1.0000
  H   H620      1.0  0.37692  0.83458  0.77231  1.0000
  H   H621      1.0  0.23289  0.88471  0.70181  1.0000
  C   C765      1.0  0.32896  0.78190  0.54361  1.0000
  C   C766      1.0  0.30480  0.77900  0.54755  1.0000
  C   C767      1.0  0.28856  0.79608  0.53771  1.0000
  P   P24       1.0  0.25765  0.79412  0.54562  1.0000
  C   C768      1.0  0.24960  0.76340  0.54651  1.0000
  C   C769      1.0  0.25246  0.80733  0.57871  1.0000
  C   C770      1.0  0.23080  0.80429  0.59180  1.0000
  C   C771      1.0  0.22583  0.81618  0.61615  1.0000
  C   C772      1.0  0.24258  0.83067  0.62807  1.0000
  C   C773      1.0  0.26457  0.83307  0.61577  1.0000
  C   C774      1.0  0.26954  0.82144  0.59117  1.0000
  C   C775      1.0  0.24013  0.75232  0.52327  1.0000
  C   C776      1.0  0.23370  0.72859  0.52437  1.0000
  C   C777      1.0  0.23700  0.71570  0.54850  1.0000
  C   C778      1.0  0.24668  0.72649  0.57156  1.0000
  C   C779      1.0  0.25292  0.75025  0.57065  1.0000
  C   C780      1.0  0.24052  0.80956  0.51960  1.0000
  C   C781      1.0  0.20815  0.83599  0.50617  1.0000
  C   C782      1.0  0.22114  0.82423  0.52656  1.0000
  C   C783      1.0  0.07835  0.82149  0.55057  1.0000
  H   H622      1.0  0.29904  0.76385  0.55904  1.0000
  H   H623      1.0  0.21741  0.79335  0.58293  1.0000
  H   H624      1.0  0.20879  0.81437  0.62563  1.0000
  H   H625      1.0  0.23827  0.84033  0.64657  1.0000
  H   H626      1.0  0.27772  0.84420  0.62510  1.0000
  H   H627      1.0  0.28668  0.82361  0.58206  1.0000
  H   H628      1.0  0.01758  0.95691  0.99077  1.0000
  H   H629      1.0  0.03767  0.67417  0.91639  1.0000
  H   H630      1.0  0.23219  0.69731  0.54938  1.0000
  H   H631      1.0  0.24946  0.71640  0.59018  1.0000
  H   H632      1.0  0.26054  0.75825  0.58876  1.0000
  H   H633      1.0  0.19337  0.84741  0.51181  1.0000
  H   H634      1.0  0.21588  0.82696  0.54758  1.0000
  C   C784      1.0  0.15482  0.80751  0.71960  1.0000
  C   C785      1.0  0.14889  0.81958  0.74360  1.0000
  C   C786      1.0  0.16650  0.82521  0.76247  1.0000
  C   C787      1.0  0.19006  0.81883  0.75729  1.0000
  C   C788      1.0  0.19619  0.80659  0.73321  1.0000
  C   C789      1.0  0.17830  0.80107  0.71434  1.0000
  P   P25       1.0  0.22699  0.79994  0.72603  1.0000
  C   C790      1.0  0.24154  0.79078  0.75735  1.0000
  C   C791      1.0  0.22953  0.77665  0.70089  1.0000
  C   C792      1.0  0.23784  0.75381  0.70771  1.0000
  C   C793      1.0  0.23993  0.73642  0.68738  1.0000
  C   C794      1.0  0.23350  0.74172  0.66040  1.0000
  C   C795      1.0  0.22522  0.76428  0.65358  1.0000
  C   C796      1.0  0.22351  0.78173  0.67368  1.0000
  C   C797      1.0  0.26394  0.79915  0.76440  1.0000
  C   C798      1.0  0.27497  0.79167  0.78864  1.0000
  C   C799      1.0  0.26387  0.77567  0.80589  1.0000
  C   C800      1.0  0.24159  0.76727  0.79901  1.0000
  C   C801      1.0  0.23042  0.77484  0.77489  1.0000
  C   C802      1.0  0.24112  0.82541  0.71158  1.0000
  C   C803      1.0  0.23041  0.84798  0.71286  1.0000
  C   C804      1.0  0.24151  0.86742  0.70130  1.0000
  C   C805      1.0  0.26323  0.86450  0.68819  1.0000
  C   C806      1.0  0.27395  0.84208  0.68674  1.0000
  C   C807      1.0  0.26294  0.82258  0.69827  1.0000
  H   H635      1.0  0.14129  0.80375  0.70456  1.0000
  H   H636      1.0  0.13070  0.82503  0.74721  1.0000
  H   H637      1.0  0.16190  0.83508  0.78077  1.0000
  H   H638      1.0  0.20356  0.82390  0.77178  1.0000
  H   H639      1.0  0.18215  0.79216  0.69529  1.0000
  H   H640      1.0  0.24277  0.74933  0.72846  1.0000
  H   H641      1.0  0.24643  0.71876  0.69234  1.0000
  H   H642      1.0  0.19613  0.70137  0.68275  1.0000
  H   H643      1.0  0.21982  0.76813  0.63275  1.0000
  H   H644      1.0  0.21692  0.79917  0.66825  1.0000
  C   C808      1.0  0.47172  0.69770  0.74234  1.0000
  Fe  Fe61      1.0  0.01502  0.82430  0.86247  1.0000
  C   C809      1.0  0.29692  0.81632  0.52458  1.0000
  C   C810      1.0  0.46957  0.94871  0.99246  1.0000
  H   H645      1.0  0.06704  0.93461  0.94923  1.0000
  H   H646      1.0  0.41464  0.79014  0.82903  1.0000
  P   P26       1.0  0.45691  0.96566  0.76771  1.0000
  C   C811      1.0  0.33708  0.80198  0.53029  1.0000
  H   H647      1.0  0.05224  0.75086  0.89494  1.0000
  H   H648      1.0  0.02589  0.80069  0.77473  1.0000
  C   C812      1.0  0.39656  0.89644  0.99466  1.0000
  C   C813      1.0  0.16323  0.68986  0.69953  1.0000
  H   H649      1.0  0.35709  0.97302  0.94994  1.0000
  H   H650      1.0  0.40364  0.83002  0.81177  1.0000
  S   S122      1.0  0.01882  0.78360  0.86130  1.0000
  C   C814      1.0  0.46598  0.91875  0.78208  1.0000
  C   C815      1.0  0.39648  0.81445  0.80207  1.0000
  C   C816      1.0  0.33504  0.91762  0.94331  1.0000
  C   C817      1.0  0.03265  0.76342  0.78245  1.0000
  C   C818      1.0  0.39025  0.96639  0.82149  1.0000
  C   C819      1.0  0.04112  0.93553  0.91712  1.0000
  C   C820      1.0  0.11885  0.76377  0.90146  1.0000
  H   H651      1.0  0.44491  0.95219  0.88636  1.0000
  C   C821      1.0  0.08024  0.68699  0.89391  1.0000
  C   C822      1.0  0.05857  0.94541  0.93362  1.0000
  C   C823      1.0  0.11712  0.94210  0.93953  1.0000
  H   H652      1.0  0.07656  0.74226  0.82425  1.0000
  H   H653      1.0  0.23480  0.72841  0.64464  1.0000
  C   C824      1.0  0.06945  0.77909  0.81610  1.0000
  C   C825      1.0  0.14413  0.79830  0.53992  1.0000
  C   C826      1.0  0.14238  0.69674  0.71284  1.0000
  H   H654      1.0  0.37699  0.82205  0.89411  1.0000
  C   C827      1.0  0.13402  0.73559  0.56662  1.0000
  C   C828      1.0  0.38061  0.75525  0.51145  1.0000
  C   C829      1.0  0.18008  0.70669  0.69323  1.0000
  H   H655      1.0  0.31351  0.91670  0.82201  1.0000
  H   H656      1.0  0.03655  0.91714  0.91971  1.0000
  C   C830      1.0  0.11652  0.69872  0.55309  1.0000
  H   H657      1.0  0.13336  0.77066  0.82309  1.0000
  H   H658      1.0  0.13986  0.91215  0.93068  1.0000
  H   H659      1.0  0.16219  0.91494  0.97446  1.0000
  C   C831      1.0  0.09242  0.70182  0.95100  1.0000
  C   C832      1.0  0.05248  0.67686  0.72001  1.0000
  C   C833      1.0  0.48061  0.89895  0.78665  1.0000
  H   H660      1.0  0.29122  0.90322  0.56031  1.0000
  C   C834      1.0  0.08591  0.77237  0.74043  1.0000
  H   H661      1.0  0.39281  0.67789  0.71974  1.0000
  P   P27       1.0  0.00962  0.75400  0.75951  1.0000
  H   H662      1.0  0.26779  0.86817  0.54843  1.0000
  C   C835      1.0  0.12456  0.75293  0.78547  1.0000
  H   H663      1.0  0.09456  0.70777  0.68712  1.0000
  C   C836      1.0  0.08403  0.70141  0.70394  1.0000
  C   C837      1.0  0.45850  0.97092  0.68407  1.0000
  H   H664      1.0  0.11594  0.75383  0.68383  1.0000
  C   C838      1.0  0.27049  0.85595  0.91656  1.0000
  H   H665      1.0  0.15264  0.75570  0.71895  1.0000
  H   H666      1.0  0.10052  0.79244  0.66686  1.0000
  C   C839      1.0  0.13491  0.86457  0.50976  1.0000
  C   C840      1.0  0.36827  0.91265  0.85039  1.0000
  C   C841      1.0  0.34798  0.95703  0.95529  1.0000
  H   H667      1.0  0.37460  0.96636  0.83416  1.0000
  H   H668      1.0  0.06698  0.78923  0.88057  1.0000
  C   C842      1.0  0.12215  0.71028  0.78816  1.0000
  C   C843      1.0  0.13011  0.75379  0.81339  1.0000
  C   C844      1.0  0.07345  0.79367  0.50356  1.0000
  P   P28       1.0  0.11156  0.72984  0.73704  1.0000
  H   H669      1.0  0.03363  0.71726  0.61639  1.0000
  H   H670      1.0  0.08007  0.83239  0.56871  1.0000
  H   H671      1.0  0.47601  0.71559  0.73662  1.0000
  H   H672      1.0  0.37860  0.67067  0.67288  1.0000
  H   H673      1.0  0.28496  0.83035  0.51809  1.0000
  C   C845      1.0  0.10318  0.78087  0.89089  1.0000
  C   C846      1.0  0.47278  0.95043  0.91621  1.0000
  C   C847      1.0  0.40878  0.97303  0.77765  1.0000
  C   C848      1.0  0.08855  0.70886  0.73083  1.0000
  C   C849      1.0  0.09662  0.78665  0.68738  1.0000
  P   P29       1.0  0.07559  0.70890  0.92043  1.0000
  H   H674      1.0  0.33912  0.73207  0.52316  1.0000
  C   C850      1.0  0.21472  0.67897  0.63529  1.0000
  Fe  Fe62      1.0  0.10306  0.67232  0.62597  1.0000
  H   H675      1.0  0.38670  0.91390  0.84486  1.0000
  H   H676      1.0  0.47306  0.88228  0.79229  1.0000
  H   H677      1.0  0.01713  0.69681  0.86012  1.0000
  H   H678      1.0  0.21195  0.69654  0.62702  1.0000
  H   H679      1.0  0.30232  0.90625  0.86915  1.0000
  C   C851      1.0  0.14252  0.94547  0.98860  1.0000
  H   H680      1.0  0.16888  0.79908  0.57342  1.0000
  H   H681      1.0  0.06645  0.80557  0.74330  1.0000
  C   C852      1.0  0.43069  0.96566  0.78852  1.0000
  H   H682      1.0  0.43704  0.95282  0.65437  1.0000
  H   H683      1.0  0.13147  0.80996  0.54999  1.0000
  C   C853      1.0  0.08631  0.73697  0.90833  1.0000
  C   C854      1.0  0.07923  0.69366  0.86622  1.0000
  H   H684      1.0  0.35579  0.91993  0.80957  1.0000
  H   H685      1.0  0.32737  0.83505  0.51120  1.0000
  H   H686      1.0  0.07937  0.85109  0.52298  1.0000
  H   H687      1.0  0.08122  0.76689  0.76075  1.0000
  H   H688      1.0  0.07556  0.81762  0.69600  1.0000
  C   C855      1.0  0.06555  0.75488  0.81323  1.0000
  C   C856      1.0  0.37990  0.82985  0.93704  1.0000
  C   C857      1.0  0.15590  0.77508  0.50025  1.0000
  C   C858      1.0  0.04729  0.74702  0.79633  1.0000
  H   H689      1.0  0.14827  0.74509  0.57622  1.0000
  H   H690      1.0  0.12415  0.76923  0.77386  1.0000
  C   C859      1.0  0.32703  0.91402  0.83749  1.0000
  H   H691      1.0  0.01639  0.94132  0.88416  1.0000
  H   H692      1.0  0.12928  0.69496  0.82779  1.0000
  H   H693      1.0  0.47485  0.74204  0.83979  1.0000
  C   C860      1.0  0.03684  0.78768  0.78533  1.0000
  H   H694      1.0  0.33976  0.96887  0.99617  1.0000
  H   H695      1.0  0.34302  0.70605  0.77796  1.0000
  C   C861      1.0  0.03036  0.69047  0.92458  1.0000
  H   H696      1.0  0.46809  0.77253  0.79595  1.0000
  H   H697      1.0  0.05815  0.81423  0.80425  1.0000
  C   C862      1.0  0.11048  0.74188  0.91009  1.0000
  H   H698      1.0  0.07678  0.70667  0.77294  1.0000
  H   H699      1.0  0.15041  0.70144  0.57302  1.0000
  C   C863      1.0  0.08263  0.80114  0.70400  1.0000
  C   C864      1.0  0.11407  0.74797  0.55705  1.0000
  H   H700      1.0  0.11959  0.69323  0.77855  1.0000
  C   C865      1.0  0.07924  0.77594  0.88858  1.0000
  H   H701      1.0  0.13561  0.73365  0.85040  1.0000
  H   H702      1.0  0.42191  0.70839  0.54564  1.0000
  C   C866      1.0  0.07733  0.79411  0.73056  1.0000
  C   C867      1.0  0.11965  0.73122  0.77286  1.0000
  C   C868      1.0  0.09535  0.73586  0.54498  1.0000
  C   C869      1.0  0.39397  0.76125  0.53444  1.0000
  H   H703      1.0  0.27404  0.69732  0.50810  1.0000
  C   C870      1.0  0.08174  0.67661  0.84560  1.0000
  H   H704      1.0  0.04457  0.72825  0.79437  1.0000
  H   H705      1.0  0.14894  0.72961  0.51293  1.0000
  H   H706      1.0  0.35035  0.85602  0.88427  1.0000
  C   C871      1.0  0.05656  0.68450  0.74679  1.0000
  C   C872      1.0  0.01720  0.73502  0.86058  1.0000
  C   C873      1.0  0.08599  0.71212  0.97611  1.0000
  H   H707      1.0  0.39244  0.77888  0.54309  1.0000
  H   H708      1.0  0.99593  0.77650  0.58088  1.0000
  H   H709      1.0  0.12243  0.79392  0.50465  1.0000
  C   C874      1.0  0.35079  0.91606  0.83049  1.0000
  C   C875      1.0  0.04828  0.73135  0.57942  1.0000
  C   C876      1.0  0.13518  0.71097  0.56488  1.0000
  C   C877      1.0  0.07795  0.83208  0.52478  1.0000
  H   H710      1.0  0.03910  0.66386  0.71595  1.0000
  S   S123      1.0  0.26171  0.68896  0.63612  1.0000
  C   C878      1.0  0.00394  0.95685  0.97510  1.0000
  C   C879      1.0  0.45900  0.96170  0.89611  1.0000
  C   C880      1.0  0.28531  0.90061  0.53943  1.0000
  C   C881      1.0  0.39355  0.93906  0.99644  1.0000
  C   C882      1.0  0.07625  0.79701  0.55297  1.0000
  C   C883      1.0  0.30559  0.71606  0.51799  1.0000
  H   H711      1.0  0.35383  0.87652  0.96941  1.0000
  H   H712      1.0  0.41886  0.74886  0.56488  1.0000
  H   H713      1.0  0.18885  0.74352  0.69471  1.0000
  C   C884      1.0  0.03582  0.97283  0.89349  1.0000
  C   C885      1.0  0.43231  0.95945  0.81629  1.0000
  H   H714      1.0  0.02707  0.98340  0.87782  1.0000
  C   C886      1.0  0.40895  0.74439  0.54665  1.0000
  C   C887      1.0  0.41071  0.72159  0.53575  1.0000
  C   C888      1.0  0.09676  0.71108  0.54305  1.0000
  C   C889      1.0  0.19527  0.66454  0.63984  1.0000
  C   C890      1.0  0.18173  0.77748  0.53998  1.0000
  C   C891      1.0  0.16531  0.79227  0.55307  1.0000
  H   H715      1.0  0.30015  0.72000  0.53879  1.0000
  H   H716      1.0  0.35548  0.89719  0.51332  1.0000
  C   C892      1.0  0.01991  0.76107  0.72551  1.0000
  H   H717      1.0  0.06281  0.71872  0.57984  1.0000
  H   H718      1.0  0.12965  0.68337  0.71768  1.0000
  H   H719      1.0  0.04498  0.77769  0.65408  1.0000
  H   H720      1.0  0.10757  0.94054  0.92038  1.0000
  H   H721      1.0  0.10963  0.88853  0.52810  1.0000
  C   C893      1.0  0.03151  0.67443  0.50816  1.0000
  C   C894      1.0  0.34659  0.93851  0.93639  1.0000
  C   C895      1.0  0.03418  0.73091  0.94001  1.0000
  C   C896      1.0  0.29425  0.86216  0.91608  1.0000
  H   H722      1.0  0.11890  0.68002  0.93054  1.0000
  H   H723      1.0  0.06308  0.67932  0.67782  1.0000
  C   C897      1.0  0.03156  0.73038  0.60031  1.0000
  P   P30       1.0  0.06910  0.75153  0.53319  1.0000
  H   H724      1.0  0.48944  0.93824  0.85412  1.0000
  C   C898      1.0  0.49126  0.96244  0.92890  1.0000
  C   C899      1.0  0.00626  0.69159  0.93036  1.0000
  C   C900      1.0  0.03534  0.74550  0.71166  1.0000
  C   C901      1.0  0.28282  0.90323  0.92315  1.0000
  H   H725      1.0  0.23750  0.76191  0.50435  1.0000
  S   S124      1.0  0.30796  0.67860  0.58276  1.0000
  C   C902      1.0  0.07348  0.99071  0.98188  1.0000
  C   C903      1.0  0.12618  0.68277  0.97345  1.0000
  H   H726      1.0  0.02903  0.70322  0.53681  1.0000
  C   C904      1.0  0.43246  0.94698  0.72342  1.0000
  C   C905      1.0  0.03783  0.77300  0.67386  1.0000
  C   C906      1.0  0.25909  0.89695  0.92365  1.0000
  H   H727      1.0  0.39208  0.81518  0.94093  1.0000
  C   C907      1.0  0.11292  0.68745  0.94977  1.0000
  C   C908      1.0  0.11576  0.88050  0.50926  1.0000
  H   H728      1.0  0.02561  0.77872  0.54429  1.0000
  C   C909      1.0  0.05331  0.98275  0.90994  1.0000
  H   H729      1.0  0.35462  0.94067  0.91655  1.0000
  H   H730      1.0  0.44305  0.98574  0.96081  1.0000
  C   C910      1.0  0.06609  0.68543  0.69858  1.0000
  H   H731      1.0  0.04087  0.72900  0.72098  1.0000
  C   C911      1.0  0.04397  0.75128  0.68577  1.0000
  C   C912      1.0  0.42771  0.94371  0.69559  1.0000
  C   C913      1.0  0.39759  0.71562  0.51252  1.0000
  S   S125      1.0  0.00652  0.85028  0.89644  1.0000
  H   H732      1.0  0.26569  0.83764  0.91397  1.0000
  H   H733      1.0  0.31617  0.89959  0.97537  1.0000
  H   H734      1.0  0.44920  0.95435  0.82522  1.0000
  C   C914      1.0  0.23764  0.67056  0.64114  1.0000
  C   C915      1.0  0.02979  0.94918  0.89702  1.0000
  H   H735      1.0  0.41325  0.95433  0.85392  1.0000
  C   C916      1.0  0.44064  0.95571  0.67592  1.0000
  C   C917      1.0  0.32780  0.72295  0.50896  1.0000
  C   C918      1.0  0.00415  0.75615  0.86477  1.0000
  H   H736      1.0  0.04464  0.74634  0.94401  1.0000
  C   C919      1.0  0.25292  0.87332  0.92040  1.0000
  C   C920      1.0  0.17725  0.76926  0.51353  1.0000
  H   H737      1.0  0.17764  0.67113  0.63545  1.0000
  H   H738      1.0  0.19025  0.75800  0.50359  1.0000
  H   H739      1.0  0.02812  0.67700  0.57755  1.0000
  H   H740      1.0  0.04619  0.67747  0.76344  1.0000
  C   C921      1.0  0.37315  0.84515  0.95820  1.0000
  H   H741      1.0  0.24548  0.91045  0.92657  1.0000
  C   C922      1.0  0.33826  0.95470  0.98135  1.0000
  C   C923      1.0  0.49206  0.95775  0.98733  1.0000
  H   H742      1.0  0.35584  0.80469  0.52811  1.0000
  C   C924      1.0  0.06521  0.96891  0.92969  1.0000
  P   P31       1.0  0.08806  0.98131  0.95084  1.0000
  C   C925      1.0  0.46335  0.98506  0.88872  1.0000
  H   H743      1.0  0.44705  0.91703  0.78400  1.0000
  C   C926      1.0  0.46326  0.97432  0.71193  1.0000
  C   C927      1.0  0.09105  0.90085  0.99461  1.0000
  C   C928      1.0  0.32704  0.93387  0.98856  1.0000
  Fe  Fe63      1.0  0.99509  0.87580  0.86256  1.0000
  H   H744      1.0  0.41423  0.93152  0.68919  1.0000
  H   H745      1.0  0.30119  0.93234  0.52470  1.0000
  H   H746      1.0  0.00356  0.91882  0.97224  1.0000
  H   H747      1.0  0.39918  0.69782  0.50467  1.0000
  H   H748      1.0  0.08024  0.68159  0.82424  1.0000
  H   H749      1.0  0.16624  0.67146  0.69393  1.0000
  H   H750      1.0  0.25453  0.86201  0.50065  1.0000
  C   C929      1.0  0.26459  0.87747  0.50568  1.0000
  C   C930      1.0  0.29087  0.91708  0.51929  1.0000
  C   C931      1.0  0.02322  0.78902  0.68794  1.0000
  C   C932      1.0  0.01046  0.76377  0.58036  1.0000
  C   C933      1.0  0.04853  0.89871  0.99455  1.0000
  H   H751      1.0  0.00061  0.99462  0.97346  1.0000
  H   H752      1.0  0.49259  0.97771  0.80872  1.0000
  C   C934      1.0  0.02997  0.68422  0.53432  1.0000
  C   C935      1.0  0.01435  0.78315  0.71370  1.0000
  H   H753      1.0  0.14176  0.67139  0.97241  1.0000
  C   C936      1.0  0.00273  0.72317  0.76418  1.0000
  H   H754      1.0  0.99982  0.72629  0.80814  1.0000
  H   H755      1.0  0.99983  0.74591  0.61717  1.0000
  C   C937      1.0  0.48992  0.68078  0.74514  1.0000
  C   C938      1.0  0.99598  0.71249  0.94032  1.0000
  H   H756      1.0  0.09972  0.99046  0.89335  1.0000
  H   H757      1.0  0.00360  0.79607  0.72458  1.0000
  C   C939      1.0  0.47122  0.99298  0.77614  1.0000
  C   C940      1.0  0.99899  0.71453  0.79071  1.0000
  C   C941      1.0  0.02937  0.66946  0.55718  1.0000
  H   H758      1.0  0.00190  0.74840  0.95271  1.0000
  H   H759      1.0  0.02333  0.75128  0.50448  1.0000
  C   C942      1.0  0.36618  0.86203  0.50126  1.0000
  H   H760      1.0  0.47770  0.98551  0.71782  1.0000
  C   C943      1.0  0.99961  0.70793  0.74176  1.0000
  C   C944      1.0  0.05966  0.73909  0.50088  1.0000
  C   C945      1.0  0.38243  0.73244  0.50014  1.0000
  H   H761      1.0  0.36873  0.76837  0.50257  1.0000
  C   C946      1.0  0.08275  0.66289  0.90058  1.0000
  H   H762      1.0  0.40718  0.97870  0.75654  1.0000
  H   H763      1.0  0.12034  0.97562  0.99743  1.0000
  H   H764      1.0  0.99533  0.67650  0.92605  1.0000
  H   H765      1.0  0.37169  0.97851  0.78541  1.0000
  C   C947      1.0  0.29084  0.70334  0.50066  1.0000
  C   C948      1.0  0.48801  0.99356  0.79735  1.0000
  C   C949      1.0  0.99602  0.93535  0.96479  1.0000
  C   C950      1.0  0.11952  0.69297  0.99837  1.0000
  S   S126      1.0  0.51704  0.31083  0.07358  1.0000
  S   S127      1.0  0.59883  0.29327  0.36686  1.0000
  H   H766      1.0  0.85711  0.16400  0.16832  1.0000
  S   S128      1.0  0.55131  0.16375  0.09964  1.0000
  C   C951      1.0  0.73069  0.27649  0.36439  1.0000
  S   S129      1.0  0.54260  0.10699  0.10943  1.0000
  Fe  Fe64      1.0  0.55247  0.13850  0.13550  1.0000
  S   S130      1.0  0.58388  0.14190  0.16483  1.0000
  Fe  Fe65      1.0  0.53815  0.13295  0.07467  1.0000
  S   S131      1.0  0.54438  0.12822  0.02844  1.0000
  Fe  Fe66      1.0  0.66264  0.12479  0.35143  1.0000
  S   S132      1.0  0.62480  0.11610  0.36099  1.0000
  S   S133      1.0  0.69416  0.09970  0.35430  1.0000
  Fe  Fe67      1.0  0.65169  0.17631  0.34252  1.0000
  S   S134      1.0  0.61328  0.17223  0.35136  1.0000
  S   S135      1.0  0.66859  0.21080  0.33207  1.0000
  Fe  Fe68      1.0  0.62502  0.14918  0.38677  1.0000
  S   S136      1.0  0.60798  0.15779  0.42823  1.0000
  Fe  Fe69      1.0  0.61588  0.13990  0.32482  1.0000
  S   S137      1.0  0.58520  0.13360  0.29526  1.0000
  S   S138      1.0  0.66331  0.15602  0.37958  1.0000
  S   S139      1.0  0.65369  0.14564  0.31344  1.0000
  S   S140      1.0  0.93501  0.29622  0.06842  1.0000
  S   S141      1.0  0.81450  0.31642  0.31176  1.0000
  Fe  Fe70      1.0  0.87385  0.12557  0.32433  1.0000
  S   S142      1.0  0.85399  0.15977  0.31849  1.0000
  S   S143      1.0  0.90212  0.11520  0.29317  1.0000
  Fe  Fe71      1.0  0.85107  0.11710  0.38070  1.0000
  S   S144      1.0  0.82945  0.15033  0.37789  1.0000
  S   S145      1.0  0.84514  0.09713  0.42037  1.0000
  Fe  Fe72      1.0  0.82276  0.14021  0.33430  1.0000
  S   S146      1.0  0.78764  0.14888  0.31420  1.0000
  Fe  Fe73      1.0  0.86228  0.16664  0.36259  1.0000
  S   S147      1.0  0.87290  0.20071  0.38231  1.0000
  S   S148      1.0  0.84194  0.10518  0.33764  1.0000
  S   S149      1.0  0.88474  0.13399  0.36786  1.0000
  Fe  Fe74      1.0  0.95393  0.15300  0.09737  1.0000
  S   S150      1.0  0.91524  0.14588  0.09356  1.0000
  S   S151      1.0  0.96962  0.19035  0.09768  1.0000
  Fe  Fe75      1.0  0.96657  0.10045  0.10942  1.0000
  S   S152      1.0  0.92827  0.09076  0.10706  1.0000
  H   H767      1.0  0.94511  0.17849  0.25465  1.0000
  Fe  Fe76      1.0  0.92605  0.11341  0.06936  1.0000
  S   S153      1.0  0.90145  0.09777  0.03683  1.0000
  Fe  Fe77      1.0  0.92037  0.12354  0.13141  1.0000
  S   S154      1.0  0.89115  0.12589  0.16341  1.0000
  S   S155      1.0  0.96492  0.12174  0.07029  1.0000
  S   S156      1.0  0.95859  0.13201  0.13659  1.0000
  C   C952      1.0  0.60094  0.08574  0.12678  1.0000
  P   P32       1.0  0.56493  0.23279  0.27965  1.0000
  C   C953      1.0  0.91787  0.19643  0.27860  1.0000
  H   H768      1.0  0.56571  0.24634  0.33865  1.0000
  C   C954      1.0  0.84913  0.11240  0.45183  1.0000
  C   C955      1.0  0.86092  0.13388  0.45303  1.0000
  H   H769      1.0  0.80336  0.03616  0.44289  1.0000
  C   C956      1.0  0.84061  0.10261  0.47623  1.0000
  H   H770      1.0  0.86755  0.14168  0.43444  1.0000
  H   H771      1.0  0.83156  0.08604  0.47546  1.0000
  C   C957      1.0  0.89889  0.11919  0.25724  1.0000
  C   C958      1.0  0.91899  0.11803  0.24044  1.0000
  C   C959      1.0  0.91701  0.12030  0.21173  1.0000
  C   C960      1.0  0.89482  0.12361  0.19950  1.0000
  C   C961      1.0  0.87477  0.12511  0.21633  1.0000
  C   C962      1.0  0.87676  0.12282  0.24501  1.0000
  H   H772      1.0  0.93618  0.11517  0.24969  1.0000
  H   H773      1.0  0.93260  0.11920  0.19908  1.0000
  H   H774      1.0  0.85752  0.12759  0.20711  1.0000
  H   H775      1.0  0.86114  0.12345  0.25764  1.0000
  C   C963      1.0  0.84061  0.26886  0.33919  1.0000
  C   C964      1.0  0.85553  0.26814  0.36439  1.0000
  C   C965      1.0  0.86534  0.24783  0.37656  1.0000
  C   C966      1.0  0.86200  0.22588  0.36536  1.0000
  C   C967      1.0  0.84941  0.22414  0.34138  1.0000
  C   C968      1.0  0.83945  0.24417  0.32879  1.0000
  H   H776      1.0  0.86003  0.28347  0.37642  1.0000
  H   H777      1.0  0.87553  0.24928  0.39530  1.0000
  H   H778      1.0  0.84670  0.20696  0.33247  1.0000
  H   H779      1.0  0.83021  0.23899  0.31040  1.0000
  C   C969      1.0  0.94337  0.26737  0.08084  1.0000
  C   C970      1.0  0.92855  0.24809  0.07560  1.0000
  C   C971      1.0  0.93561  0.22461  0.08217  1.0000
  C   C972      1.0  0.95821  0.21983  0.09271  1.0000
  C   C973      1.0  0.97296  0.23906  0.09815  1.0000
  C   C974      1.0  0.96552  0.26263  0.09262  1.0000
  H   H780      1.0  0.91172  0.25121  0.06570  1.0000
  H   H781      1.0  0.92408  0.21010  0.07767  1.0000
  H   H782      1.0  0.86012  0.27112  0.44813  1.0000
  H   H783      1.0  0.89567  0.17993  0.20642  1.0000
  C   C975      1.0  0.72030  0.11307  0.34294  1.0000
  C   C976      1.0  0.71960  0.13628  0.33311  1.0000
  C   C977      1.0  0.74035  0.14697  0.32426  1.0000
  C   C978      1.0  0.76215  0.13494  0.32619  1.0000
  C   C979      1.0  0.76302  0.11187  0.33652  1.0000
  C   C980      1.0  0.74207  0.10077  0.34426  1.0000
  H   H784      1.0  0.70304  0.14601  0.33199  1.0000
  H   H785      1.0  0.73943  0.16464  0.31585  1.0000
  H   H786      1.0  0.77974  0.10235  0.33773  1.0000
  H   H787      1.0  0.74288  0.08270  0.35130  1.0000
  C   C981      1.0  0.61469  0.14635  0.46134  1.0000
  H   H788      1.0  0.53513  0.09110  0.22899  1.0000
  H   H789      1.0  0.63924  0.19611  0.43243  1.0000
  H   H790      1.0  0.83742  0.16238  0.25670  1.0000
  C   C982      1.0  0.62272  0.12305  0.46521  1.0000
  C   C983      1.0  0.78242  0.01689  0.37288  1.0000
  H   H791      1.0  0.62616  0.11194  0.44759  1.0000
  C   C984      1.0  0.58310  0.14214  0.20127  1.0000
  C   C985      1.0  0.56274  0.13676  0.21586  1.0000
  C   C986      1.0  0.56355  0.13484  0.24467  1.0000
  C   C987      1.0  0.58462  0.13853  0.25926  1.0000
  C   C988      1.0  0.60461  0.14532  0.24480  1.0000
  C   C989      1.0  0.60380  0.14714  0.21598  1.0000
  H   H792      1.0  0.54653  0.13343  0.20488  1.0000
  H   H793      1.0  0.54785  0.13001  0.25567  1.0000
  H   H794      1.0  0.62085  0.14858  0.25573  1.0000
  H   H795      1.0  0.61946  0.15199  0.20497  1.0000
  H   H796      1.0  0.78320  0.12083  0.48646  1.0000
  H   H797      1.0  0.88346  0.17387  0.13001  1.0000
  H   H798      1.0  0.53273  0.06839  0.01827  1.0000
  C   C990      1.0  0.61929  0.27114  0.35788  1.0000
  C   C991      1.0  0.61745  0.24886  0.36987  1.0000
  C   C992      1.0  0.63314  0.23057  0.36258  1.0000
  C   C993      1.0  0.65029  0.23432  0.34269  1.0000
  C   C994      1.0  0.65249  0.25679  0.33105  1.0000
  C   C995      1.0  0.63704  0.27531  0.33877  1.0000
  H   H799      1.0  0.60381  0.24571  0.38473  1.0000
  H   H800      1.0  0.63197  0.21360  0.37246  1.0000
  H   H801      1.0  0.66580  0.25973  0.31568  1.0000
  H   H802      1.0  0.63849  0.29258  0.32950  1.0000
  C   C996      1.0  0.51288  0.28251  0.08880  1.0000
  C   C997      1.0  0.52422  0.26255  0.07712  1.0000
  C   C998      1.0  0.52036  0.23954  0.08718  1.0000
  H   H803      1.0  0.90543  0.18207  0.34473  1.0000
  H   H804      1.0  0.85270  0.12052  0.06551  1.0000
  H   H805      1.0  0.76446  0.31251  0.32530  1.0000
  H   H806      1.0  0.53589  0.26489  0.05992  1.0000
  H   H807      1.0  0.52910  0.22443  0.07783  1.0000
  C   C999      1.0  0.91542  0.27938  0.28588  1.0000
  H   H808      1.0  0.64646  0.03715  0.47317  1.0000
  H   H809      1.0  0.62087  0.29150  0.17629  1.0000
  C   C1000     1.0  0.50613  0.20958  0.02673  1.0000
  C   C1001     1.0  0.50631  0.32068  0.18735  1.0000
  H   H810      1.0  0.78854  0.32242  0.47124  1.0000
  H   H811      1.0  0.79882  0.10103  0.44091  1.0000
  H   H812      1.0  0.84344  0.23567  0.10188  1.0000
  C   C1002     1.0  0.58887  0.29833  0.19923  1.0000
  C   C1003     1.0  0.99277  0.04104  0.01221  1.0000
  C   C1004     1.0  0.77240  0.13541  0.49396  1.0000
  H   H813      1.0  0.50468  0.10074  0.01333  1.0000
  H   H814      1.0  0.74567  0.13206  0.46309  1.0000
  C   C1005     1.0  0.92542  0.15945  0.00795  1.0000
  P   P33       1.0  0.87322  0.26044  0.14156  1.0000
  C   C1006     1.0  0.55515  0.13081  0.46751  1.0000
  C   C1007     1.0  0.90934  0.25689  0.45361  1.0000
  H   H815      1.0  0.57094  0.31389  0.31682  1.0000
  H   H816      1.0  0.60078  0.19512  0.28819  1.0000
  C   C1008     1.0  0.59058  0.07674  0.00073  1.0000
  C   C1009     1.0  0.61875  0.31901  0.23810  1.0000
  C   C1010     1.0  0.85390  0.22406  0.17265  1.0000
  C   C1011     1.0  0.96513  0.02060  0.04135  1.0000
  Fe  Fe78      1.0  0.50486  0.11667  0.11997  1.0000
  C   C1012     1.0  0.58416  0.32725  0.14427  1.0000
  P   P34       1.0  0.87694  0.23735  0.48962  1.0000
  H   H817      1.0  0.77766  0.99896  0.36779  1.0000
  H   H818      1.0  0.53263  0.25723  0.19535  1.0000
  C   C1013     1.0  0.95990  0.18092  0.02219  1.0000
  C   C1014     1.0  0.53707  0.27315  0.26711  1.0000
  C   C1015     1.0  0.68475  0.11019  0.43483  1.0000
  C   C1016     1.0  0.67765  0.09650  0.45698  1.0000
  H   H819      1.0  0.84911  0.19273  0.09253  1.0000
  H   H820      1.0  0.99052  0.23569  0.10617  1.0000
  C   C1017     1.0  0.69644  0.14135  0.46606  1.0000
  C   C1018     1.0  0.69440  0.13241  0.43933  1.0000
  P   P35       1.0  0.71049  0.16912  0.47294  1.0000
  C   C1019     1.0  0.54015  0.29261  0.45192  1.0000
  H   H821      1.0  0.60616  0.25218  0.19168  1.0000
  C   C1020     1.0  0.84099  0.30114  0.20046  1.0000
  C   C1021     1.0  0.84802  0.25303  0.06328  1.0000
  C   C1022     1.0  0.57335  0.29410  0.11579  1.0000
  H   H822      1.0  0.62048  0.00270  0.47827  1.0000
  C   C1023     1.0  0.92500  0.18091  0.17903  1.0000
  C   C1024     1.0  0.91206  0.18059  0.00716  1.0000
  P   P36       1.0  0.90620  0.21414  0.25062  1.0000
  H   H823      1.0  0.68547  0.04842  0.38759  1.0000
  H   H824      1.0  0.85531  0.21763  0.43965  1.0000
  C   C1025     1.0  0.52495  0.07579  0.19048  1.0000
  C   C1026     1.0  0.71596  0.18490  0.44172  1.0000
  C   C1027     1.0  0.69704  0.18995  0.42399  1.0000
  C   C1028     1.0  0.70050  0.20292  0.40012  1.0000
  C   C1029     1.0  0.72288  0.21103  0.39380  1.0000
  C   C1030     1.0  0.74176  0.20663  0.41175  1.0000
  C   C1031     1.0  0.73836  0.19359  0.43570  1.0000
  H   H825      1.0  0.68274  0.10363  0.41407  1.0000
  H   H826      1.0  0.66968  0.07958  0.45340  1.0000
  C   C1032     1.0  0.64504  0.30446  0.42898  1.0000
  C   C1033     1.0  0.86506  0.14481  0.47850  1.0000
  H   H827      1.0  0.70032  0.14229  0.42184  1.0000
  H   H828      1.0  0.90787  0.25395  0.21269  1.0000
  C   C1034     1.0  0.74900  0.30403  0.33340  1.0000
  H   H829      1.0  0.57191  0.09643  0.46475  1.0000
  H   H830      1.0  0.95471  0.21831  0.02838  1.0000
  C   C1035     1.0  0.91506  0.29448  0.26322  1.0000
  C   C1036     1.0  0.60336  0.24363  0.44526  1.0000
  C   C1037     1.0  0.90360  0.21472  0.44916  1.0000
  C   C1038     1.0  0.66272  0.31944  0.42006  1.0000
  H   H831      1.0  0.67145  0.31601  0.40073  1.0000
  H   H832      1.0  0.67961  0.18359  0.42852  1.0000
  H   H833      1.0  0.68582  0.20646  0.38631  1.0000
  H   H834      1.0  0.72542  0.22054  0.37484  1.0000
  H   H835      1.0  0.75907  0.21309  0.40696  1.0000
  H   H836      1.0  0.75321  0.19025  0.44926  1.0000
  C   C1039     1.0  0.80393  0.21004  0.37846  1.0000
  C   C1040     1.0  0.78915  0.19705  0.36147  1.0000
  C   C1041     1.0  0.77133  0.20844  0.34649  1.0000
  C   C1042     1.0  0.76794  0.23285  0.34885  1.0000
  C   C1043     1.0  0.78201  0.24596  0.36687  1.0000
  C   C1044     1.0  0.80056  0.23446  0.38095  1.0000
  P   P37       1.0  0.77962  0.27772  0.36724  1.0000
  C   C1045     1.0  0.78198  0.29116  0.40063  1.0000
  C   C1046     1.0  0.80349  0.28648  0.34574  1.0000
  C   C1047     1.0  0.82555  0.30414  0.35809  1.0000
  C   C1048     1.0  0.85049  0.30889  0.33839  1.0000
  C   C1049     1.0  0.85308  0.29607  0.30667  1.0000
  C   C1050     1.0  0.83075  0.27920  0.29391  1.0000
  C   C1051     1.0  0.80579  0.27436  0.31353  1.0000
  H   H837      1.0  0.93364  0.27207  0.42506  1.0000
  C   C1052     1.0  0.84963  0.20038  0.17876  1.0000
  H   H838      1.0  0.88302  0.30031  0.05250  1.0000
  C   C1053     1.0  0.78619  0.28894  0.45016  1.0000
  C   C1054     1.0  0.78374  0.27769  0.42476  1.0000
  C   C1055     1.0  0.75114  0.28674  0.35387  1.0000
  H   H839      1.0  0.81879  0.20140  0.38853  1.0000
  H   H840      1.0  0.79184  0.17822  0.35914  1.0000
  H   H841      1.0  0.76062  0.19833  0.33246  1.0000
  H   H842      1.0  0.75471  0.24136  0.33599  1.0000
  H   H843      1.0  0.81309  0.24445  0.39285  1.0000
  H   H844      1.0  0.82453  0.31173  0.37834  1.0000
  H   H845      1.0  0.86478  0.31908  0.34659  1.0000
  H   H846      1.0  0.86847  0.29928  0.29441  1.0000
  H   H847      1.0  0.83210  0.27193  0.27357  1.0000
  H   H848      1.0  0.79185  0.26350  0.30564  1.0000
  C   C1056     1.0  0.94290  0.02399  0.13253  1.0000
  H   H849      1.0  0.78817  0.27858  0.46871  1.0000
  H   H850      1.0  0.78324  0.25863  0.42416  1.0000
  H   H851      1.0  0.73198  0.26345  0.38055  1.0000
  C   C1057     1.0  0.54734  0.19606  0.21017  1.0000
  C   C1058     1.0  0.62421  0.04940  0.12561  1.0000
  H   H852      1.0  0.97363  0.21432  0.18699  1.0000
  H   H853      1.0  0.64346  0.19321  0.27994  1.0000
  C   C1059     1.0  0.60497  0.08909  0.09885  1.0000
  C   C1060     1.0  0.61855  0.07258  0.08423  1.0000
  C   C1061     1.0  0.62818  0.05276  0.09761  1.0000
  H   H854      1.0  0.59756  0.10456  0.08858  1.0000
  H   H855      1.0  0.62165  0.07520  0.06255  1.0000
  H   H856      1.0  0.63877  0.04001  0.08623  1.0000
  H   H857      1.0  0.93801  0.15330  0.33665  1.0000
  P   P38       1.0  0.56972  0.28731  0.17261  1.0000
  C   C1062     1.0  0.70843  0.28303  0.35409  1.0000
  H   H858      1.0  0.83589  0.24173  0.05253  1.0000
  H   H859      1.0  0.91226  0.29695  0.21935  1.0000
  C   C1063     1.0  0.94470  0.25946  0.15619  1.0000
  C   C1064     1.0  0.93077  0.29984  0.16102  1.0000
  C   C1065     1.0  0.87497  0.20832  0.24927  1.0000
  C   C1066     1.0  0.95633  0.20735  0.19104  1.0000
  H   H860      1.0  0.82579  0.03028  0.48563  1.0000
  C   C1067     1.0  0.85479  0.13922  0.06149  1.0000
  C   C1068     1.0  0.84938  0.15591  0.08171  1.0000
  C   C1069     1.0  0.97958  0.06201  0.01518  1.0000
  H   H861      1.0  0.72498  0.32388  0.30746  1.0000
  C   C1070     1.0  0.59839  0.21991  0.17112  1.0000
  H   H862      1.0  0.57914  0.20906  0.22788  1.0000
  C   C1071     1.0  0.59420  0.01473  0.18814  1.0000
  H   H863      1.0  0.59037  0.09867  0.13784  1.0000
  H   H864      1.0  0.63183  0.03393  0.13546  1.0000
  C   C1072     1.0  0.58073  0.31205  0.42952  1.0000
  H   H865      1.0  0.69455  0.02805  0.47191  1.0000
  C   C1073     1.0  0.95905  0.06224  0.03086  1.0000
  H   H866      1.0  0.71660  0.21786  0.49034  1.0000
  C   C1074     1.0  0.58311  0.20823  0.15341  1.0000
  C   C1075     1.0  0.84513  0.30077  0.46985  1.0000
  H   H867      1.0  0.52765  0.05062  0.10320  1.0000
  C   C1076     1.0  0.86247  0.26603  0.49206  1.0000
  H   H868      1.0  0.51165  0.17189  0.02918  1.0000
  S   S157      1.0  0.98929  0.06807  0.12213  1.0000
  C   C1077     1.0  0.49980  0.05272  0.03026  1.0000
  H   H869      1.0  0.84282  0.15015  0.10138  1.0000
  H   H870      1.0  0.82551  0.18711  0.43303  1.0000
  C   C1078     1.0  0.99282  0.03102  0.21518  1.0000
  C   C1079     1.0  0.54255  0.31168  0.28765  1.0000
  C   C1080     1.0  0.94395  0.16486  0.29530  1.0000
  C   C1081     1.0  0.91429  0.18183  0.32518  1.0000
  C   C1082     1.0  0.83236  0.28876  0.14593  1.0000
  C   C1083     1.0  0.82657  0.19885  0.25198  1.0000
  H   H871      1.0  0.56349  0.27501  0.48029  1.0000
  C   C1084     1.0  0.91932  0.21400  0.42720  1.0000
  C   C1085     1.0  0.52007  0.05085  0.08284  1.0000
  C   C1086     1.0  0.55497  0.19060  0.35972  1.0000
  C   C1087     1.0  0.85340  0.21685  0.48404  1.0000
  H   H872      1.0  0.90602  0.27357  0.46392  1.0000
  C   C1088     1.0  0.80651  0.05099  0.36491  1.0000
  C   C1089     1.0  0.79498  0.06309  0.38607  1.0000
  C   C1090     1.0  0.77684  0.05224  0.40069  1.0000
  C   C1091     1.0  0.77091  0.02889  0.39418  1.0000
  P   P39       1.0  0.76243  0.06727  0.42890  1.0000
  C   C1092     1.0  0.76402  0.09877  0.42298  1.0000
  C   C1093     1.0  0.73237  0.05713  0.43017  1.0000
  C   C1094     1.0  0.72344  0.04661  0.45394  1.0000
  C   C1095     1.0  0.70106  0.03659  0.45369  1.0000
  C   C1096     1.0  0.68735  0.03717  0.42982  1.0000
  C   C1097     1.0  0.69600  0.04778  0.40621  1.0000
  C   C1098     1.0  0.71851  0.05735  0.40627  1.0000
  C   C1099     1.0  0.78458  0.11050  0.43067  1.0000
  C   C1100     1.0  0.78746  0.13430  0.42428  1.0000
  C   C1101     1.0  0.76986  0.14663  0.40982  1.0000
  C   C1102     1.0  0.74909  0.13532  0.40252  1.0000
  C   C1103     1.0  0.74606  0.11150  0.40923  1.0000
  C   C1104     1.0  0.85906  0.27126  0.04927  1.0000
  C   C1105     1.0  0.54122  0.08249  0.21043  1.0000
  C   C1106     1.0  0.78158  0.31589  0.40246  1.0000
  C   C1107     1.0  0.83972  0.31047  0.49543  1.0000
  H   H873      1.0  0.78235  0.31358  0.26453  1.0000
  H   H874      1.0  0.61348  0.21042  0.17972  1.0000
  H   H875      1.0  0.82054  0.05946  0.35382  1.0000
  H   H876      1.0  0.80050  0.08081  0.39092  1.0000
  H   H877      1.0  0.75742  0.01991  0.40555  1.0000
  H   H878      1.0  0.60312  0.17829  0.48181  1.0000
  C   C1108     1.0  0.94352  0.00010  0.09116  1.0000
  H   H879      1.0  0.67009  0.02930  0.42945  1.0000
  H   H880      1.0  0.92070  0.01188  0.16505  1.0000
  H   H881      1.0  0.72522  0.06454  0.38741  1.0000
  C   C1109     1.0  0.59439  0.31906  0.24228  1.0000
  H   H882      1.0  0.80380  0.14277  0.42973  1.0000
  H   H883      1.0  0.77255  0.16474  0.40375  1.0000
  H   H884      1.0  0.73566  0.14475  0.39073  1.0000
  H   H885      1.0  0.73005  0.10313  0.40278  1.0000
  C   C1110     1.0  0.56509  0.11004  0.47835  1.0000
  H   H886      1.0  0.77957  0.32659  0.38415  1.0000
  H   H887      1.0  0.89561  0.19845  0.45575  1.0000
  C   C1111     1.0  0.57861  0.30721  0.09242  1.0000
  C   C1112     1.0  0.91224  0.18825  0.20208  1.0000
  C   C1113     1.0  0.86868  0.22989  0.15074  1.0000
  C   C1114     1.0  0.53272  0.06013  0.06104  1.0000
  H   H888      1.0  0.84448  0.30620  0.22148  1.0000
  C   C1115     1.0  0.58283  0.29674  0.45202  1.0000
  H   H889      1.0  0.55018  0.06702  0.06442  1.0000
  C   C1116     1.0  0.87430  0.28618  0.06327  1.0000
  H   H890      1.0  0.96378  0.03171  0.09741  1.0000
  C   C1117     1.0  0.94924  0.28319  0.16141  1.0000
  C   C1118     1.0  0.93661  0.18016  0.27433  1.0000
  C   C1119     1.0  0.53933  0.29305  0.18187  1.0000
  C   C1120     1.0  0.86021  0.18237  0.16332  1.0000
  H   H891      1.0  0.97741  0.27703  0.09625  1.0000
  C   C1121     1.0  0.63590  0.09896  0.18489  1.0000
  C   C1122     1.0  0.60916  0.21023  0.27907  1.0000
  H   H892      1.0  0.58087  0.09168  0.04008  1.0000
  C   C1123     1.0  0.70643  0.30020  0.33361  1.0000
  H   H893      1.0  0.69270  0.27487  0.36197  1.0000
  H   H894      1.0  0.82871  0.28437  0.12479  1.0000
  H   H895      1.0  0.95773  0.15172  0.29157  1.0000
  H   H896      1.0  0.91814  0.16735  0.16575  1.0000
  H   H897      1.0  0.89391  0.30625  0.15401  1.0000
  C   C1124     1.0  0.61048  0.06591  0.14041  1.0000
  C   C1125     1.0  0.93281  0.16569  0.32070  1.0000
  C   C1126     1.0  0.81820  0.18336  0.47597  1.0000
  C   C1127     1.0  0.94358  0.21493  0.21397  1.0000
  H   H898      1.0  0.62995  0.09529  0.49458  1.0000
  C   C1128     1.0  0.56190  0.22781  0.33685  1.0000
  C   C1129     1.0  0.60969  0.16036  0.48452  1.0000
  C   C1130     1.0  0.86750  0.17051  0.03121  1.0000
  C   C1131     1.0  0.77802  0.06100  0.46056  1.0000
  C   C1132     1.0  0.82099  0.31015  0.18689  1.0000
  C   C1133     1.0  0.86727  0.18507  0.25242  1.0000
  C   C1134     1.0  0.56311  0.22002  0.14313  1.0000
  C   C1135     1.0  0.94659  0.20196  0.02210  1.0000
  H   H899      1.0  0.55632  0.18773  0.19306  1.0000
  C   C1136     1.0  0.56158  0.30255  0.30279  1.0000
  H   H900      1.0  0.86824  0.13322  0.02115  1.0000
  H   H901      1.0  0.66083  0.12666  0.19149  1.0000
  C   C1137     1.0  0.90659  0.19690  0.30416  1.0000
  C   C1138     1.0  0.63934  0.09128  0.24136  1.0000
  C   C1139     1.0  0.86849  0.26396  0.10518  1.0000
  H   H902      1.0  0.51506  0.22237  0.27333  1.0000
  C   C1140     1.0  0.95124  0.01970  0.10608  1.0000
  H   H903      1.0  0.94871  0.03947  0.14364  1.0000
  C   C1141     1.0  0.89795  0.23631  0.46199  1.0000
  H   H904      1.0  0.89142  0.20843  0.30771  1.0000
  H   H905      1.0  0.56265  0.05253  0.14340  1.0000
  C   C1142     1.0  0.53828  0.30785  0.42951  1.0000
  C   C1143     1.0  0.80019  0.02796  0.35821  1.0000
  C   C1144     1.0  0.62008  0.25942  0.45552  1.0000
  C   C1145     1.0  0.73791  0.16144  0.49007  1.0000
  C   C1146     1.0  0.55606  0.26372  0.28253  1.0000
  H   H906      1.0  0.95135  0.22769  0.22768  1.0000
  C   C1147     1.0  0.63347  0.30897  0.45386  1.0000
  C   C1148     1.0  0.92172  0.25230  0.15060  1.0000
  C   C1149     1.0  0.64384  0.25202  0.45722  1.0000
  C   C1150     1.0  0.65072  0.22929  0.44899  1.0000
  H   H907      1.0  0.66908  0.22392  0.45003  1.0000
  H   H908      1.0  0.55086  0.21081  0.13000  1.0000
  C   C1151     1.0  0.55693  0.06095  0.16219  1.0000
  H   H909      1.0  0.91900  0.23386  0.14617  1.0000
  H   H910      1.0  0.89089  0.29438  0.10143  1.0000
  C   C1152     1.0  0.91240  0.28520  0.23691  1.0000
  C   C1153     1.0  0.57346  0.06787  0.18202  1.0000
  C   C1154     1.0  0.55315  0.17940  0.33434  1.0000
  C   C1155     1.0  0.81038  0.04194  0.48545  1.0000
  C   C1156     1.0  0.56088  0.10799  0.00748  1.0000
  C   C1157     1.0  0.86370  0.14649  0.03630  1.0000
  H   H911      1.0  0.91748  0.28659  0.30630  1.0000
  H   H912      1.0  0.61470  0.06348  0.23517  1.0000
  C   C1158     1.0  0.85313  0.17989  0.07678  1.0000
  C   C1159     1.0  0.84670  0.21029  0.45741  1.0000
  C   C1160     1.0  0.63396  0.21367  0.43909  1.0000
  H   H913      1.0  0.93430  0.31832  0.16469  1.0000
  P   P40       1.0  0.60454  0.06187  0.17647  1.0000
  C   C1161     1.0  0.61179  0.03178  0.18620  1.0000
  C   C1162     1.0  0.69191  0.18924  0.49249  1.0000
  C   C1163     1.0  0.59615  0.23088  0.27253  1.0000
  C   C1164     1.0  0.59414  0.24368  0.17780  1.0000
  H   H914      1.0  0.87995  0.17061  0.25478  1.0000
  C   C1165     1.0  0.56866  0.27888  0.29980  1.0000
  H   H915      1.0  0.94195  0.23406  0.40112  1.0000
  C   C1166     1.0  0.84318  0.18036  0.25365  1.0000
  C   C1167     1.0  0.52547  0.27497  0.19264  1.0000
  C   C1168     1.0  0.85255  0.27968  0.15934  1.0000
  C   C1169     1.0  0.78399  0.32704  0.42778  1.0000
  C   C1170     1.0  0.62469  0.07720  0.22536  1.0000
  H   H916      1.0  0.64014  0.28964  0.41620  1.0000
  C   C1171     1.0  0.87914  0.21162  0.13519  1.0000
  H   H917      1.0  0.59800  0.26582  0.25447  1.0000
  H   H918      1.0  0.92288  0.19740  0.41675  1.0000
  H   H919      1.0  0.73389  0.04541  0.47245  1.0000
  C   C1172     1.0  0.85256  0.24949  0.09119  1.0000
  C   C1173     1.0  0.56021  0.20809  0.23011  1.0000
  C   C1174     1.0  0.56540  0.07869  0.20621  1.0000
  H   H920      1.0  0.59616  0.31965  0.42027  1.0000
  H   H921      1.0  0.64028  0.08870  0.26334  1.0000
  C   C1175     1.0  0.92516  0.25608  0.43170  1.0000
  H   H922      1.0  0.66207  0.16587  0.49594  1.0000
  H   H923      1.0  0.97579  0.03060  0.22514  1.0000
  C   C1176     1.0  0.63532  0.02524  0.19200  1.0000
  H   H924      1.0  0.60370  0.06470  0.00930  1.0000
  C   C1177     1.0  0.55577  0.19232  0.31020  1.0000
  C   C1178     1.0  0.63340  0.20893  0.27414  1.0000
  C   C1179     1.0  0.91030  0.24549  0.25592  1.0000
  C   C1180     1.0  0.62281  0.08094  0.19697  1.0000
  C   C1181     1.0  0.90780  0.29285  0.15511  1.0000
  H   H925      1.0  0.65723  0.26400  0.46421  1.0000
  C   C1182     1.0  0.50203  0.27964  0.20002  1.0000
  H   H926      1.0  0.83500  0.20375  0.00665  1.0000
  H   H927      1.0  0.80794  0.19511  0.25372  1.0000
  C   C1183     1.0  0.64486  0.22817  0.26271  1.0000
  C   C1184     1.0  0.55881  0.24372  0.14974  1.0000
  C   C1185     1.0  0.92996  0.23468  0.41833  1.0000
  C   C1186     1.0  0.90301  0.26897  0.14996  1.0000
  C   C1187     1.0  0.52418  0.21544  0.25551  1.0000
  C   C1188     1.0  0.54866  0.21807  0.25287  1.0000
  H   H928      1.0  0.56132  0.22342  0.38061  1.0000
  H   H929      1.0  0.59746  0.20875  0.42901  1.0000
  H   H930      1.0  0.56070  0.30965  0.22647  1.0000
  H   H931      1.0  0.91330  0.24377  0.30020  1.0000
  C   C1189     1.0  0.92132  0.20557  0.21955  1.0000
  C   C1190     1.0  0.85814  0.22681  0.24691  1.0000
  H   H932      1.0  0.95916  0.24670  0.15544  1.0000
  C   C1191     1.0  0.61336  0.29865  0.19498  1.0000
  C   C1192     1.0  0.52267  0.06102  0.03489  1.0000
  C   C1193     1.0  0.91301  0.25499  0.28230  1.0000
  C   C1194     1.0  0.83402  0.22204  0.24831  1.0000
  H   H933      1.0  0.86577  0.07762  0.00300  1.0000
  C   C1195     1.0  0.55855  0.31749  0.41831  1.0000
  C   C1196     1.0  0.81668  0.30395  0.15969  1.0000
  H   H934      1.0  0.52400  0.21286  0.02014  1.0000
  H   H935      1.0  0.64088  0.26353  0.24684  1.0000
  C   C1197     1.0  0.63197  0.24857  0.25555  1.0000
  C   C1198     1.0  0.91000  0.26083  0.23325  1.0000
  H   H936      1.0  0.57540  0.29984  0.07229  1.0000
  C   C1199     1.0  0.60766  0.24987  0.26019  1.0000
  C   C1200     1.0  0.87888  0.28266  0.09113  1.0000
  H   H937      1.0  0.87485  0.16101  0.47925  1.0000
  H   H938      1.0  0.82105  0.23631  0.24694  1.0000
  H   H939      1.0  0.86350  0.24493  0.24464  1.0000
  H   H940      1.0  0.66380  0.22729  0.25985  1.0000
  H   H941      1.0  0.56651  0.27662  0.11301  1.0000
  S   S158      1.0  0.51534  0.14631  0.14837  1.0000
  H   H942      1.0  0.52749  0.26235  0.25285  1.0000
  H   H943      1.0  0.58404  0.27248  0.31102  1.0000
  C   C1201     1.0  0.53039  0.29701  0.26969  1.0000
  H   H944      1.0  0.86666  0.20558  0.04887  1.0000
  Fe  Fe79      1.0  0.51367  0.17051  0.11167  1.0000
  C   C1202     1.0  0.65092  0.11268  0.20090  1.0000
  C   C1203     1.0  0.65258  0.10891  0.22912  1.0000
  H   H945      1.0  0.91689  0.31339  0.26605  1.0000
  H   H946      1.0  0.66378  0.11991  0.24161  1.0000
  P   P41       1.0  0.61152  0.28899  0.46615  1.0000
  H   H947      1.0  0.63453  0.10264  0.16322  1.0000
  C   C1204     1.0  0.78643  0.31362  0.45165  1.0000
  C   C1205     1.0  0.56010  0.21671  0.31117  1.0000
  H   H948      1.0  0.83814  0.19586  0.19549  1.0000
  C   C1206     1.0  0.61031  0.22083  0.43723  1.0000
  H   H949      1.0  0.87215  0.27916  0.19743  1.0000
  C   C1207     1.0  0.75141  0.14206  0.48067  1.0000
  H   H950      1.0  0.84543  0.23764  0.18493  1.0000
  H   H951      1.0  0.53967  0.16484  0.47619  1.0000
  C   C1208     1.0  0.52961  0.31600  0.17944  1.0000
  C   C1209     1.0  0.57764  0.09202  0.01828  1.0000
  C   C1210     1.0  0.95164  0.04159  0.04359  1.0000
  H   H952      1.0  0.80886  0.32203  0.19734  1.0000
  H   H953      1.0  0.72935  0.31487  0.43841  1.0000
  C   C1211     1.0  0.94693  0.19054  0.17341  1.0000
  C   C1212     1.0  0.90109  0.09098  0.00123  1.0000
  H   H954      1.0  0.93547  0.04217  0.05537  1.0000
  H   H955      1.0  0.55443  0.13330  0.44551  1.0000
  C   C1213     1.0  0.55935  0.21479  0.36096  1.0000
  C   C1214     1.0  0.50461  0.23607  0.10869  1.0000
  C   C1215     1.0  0.87505  0.18798  0.14167  1.0000
  H   H956      1.0  0.98518  0.07809  0.00533  1.0000
  C   C1216     1.0  0.85668  0.28590  0.18677  1.0000
  H   H957      1.0  0.89046  0.21560  0.11802  1.0000
  C   C1217     1.0  0.72668  0.31063  0.32331  1.0000
  C   C1218     1.0  0.57455  0.25597  0.16661  1.0000
  C   C1219     1.0  0.94933  0.15969  0.01499  1.0000
  C   C1220     1.0  0.64114  0.00202  0.19967  1.0000
  H   H958      1.0  0.57591  0.01924  0.18389  1.0000
  H   H959      1.0  0.57757  0.08462  0.22172  1.0000
  H   H960      1.0  0.91199  0.03670  0.00281  1.0000
  H   H961      1.0  0.96715  0.28875  0.16512  1.0000
  H   H962      1.0  0.51310  0.18481  0.19693  1.0000
  C   C1221     1.0  0.82943  0.19330  0.45347  1.0000
  H   H963      1.0  0.51589  0.30424  0.25759  1.0000
  H   H964      1.0  0.94881  0.07847  0.03326  1.0000
  H   H965      1.0  0.54326  0.25260  0.14144  1.0000
  H   H966      1.0  0.95954  0.14332  0.01543  1.0000
  H   H967      1.0  0.95681  0.18467  0.15561  1.0000
  C   C1222     1.0  0.62824  0.30876  0.21447  1.0000
  H   H968      1.0  0.58507  0.24885  0.44277  1.0000
  C   C1223     1.0  0.53281  0.06489  0.16648  1.0000
  H   H969      1.0  0.64709  0.30915  0.21104  1.0000
  H   H970      1.0  0.84096  0.31071  0.45141  1.0000
  C   C1224     1.0  0.57950  0.30874  0.22301  1.0000
  C   C1225     1.0  0.79753  0.04532  0.46119  1.0000
  C   C1226     1.0  0.52294  0.19411  0.21254  1.0000
  C   C1227     1.0  0.77160  0.07323  0.48453  1.0000
  H   H971      1.0  0.68918  0.30557  0.32575  1.0000
  H   H972      1.0  0.55368  0.18038  0.37839  1.0000
  C   C1228     1.0  0.85620  0.27848  0.46813  1.0000
  H   H973      1.0  0.58647  0.18987  0.14810  1.0000
  C   C1229     1.0  0.56233  0.28697  0.46305  1.0000
  C   C1230     1.0  0.51135  0.20375  0.23525  1.0000
  H   H974      1.0  0.85581  0.27396  0.02762  1.0000
  H   H975      1.0  0.72325  0.31954  0.38841  1.0000
  H   H976      1.0  0.50623  0.07923  0.19340  1.0000
  C   C1231     1.0  0.68961  0.12731  0.48813  1.0000
  H   H977      1.0  0.55520  0.18294  0.29085  1.0000
  C   C1232     1.0  0.98565  0.02039  0.02531  1.0000
  H   H978      1.0  0.80555  0.16954  0.47292  1.0000
  H   H979      1.0  0.80921  0.01869  0.34175  1.0000
  H   H980      1.0  0.64918  0.03810  0.19058  1.0000
  C   C1233     1.0  0.86267  0.18713  0.05187  1.0000
  H   H981      1.0  0.52116  0.31213  0.42065  1.0000
  H   H982      1.0  0.52443  0.28512  0.46060  1.0000
  C   C1234     1.0  0.57630  0.30392  0.14200  1.0000
  H   H983      1.0  0.52008  0.05975  0.15111  1.0000
  C   C1235     1.0  0.68039  0.10493  0.48365  1.0000
  H   H984      1.0  0.77767  0.23104  0.49786  1.0000
  C   C1236     1.0  0.54698  0.14873  0.48500  1.0000
  H   H985      1.0  0.55057  0.16047  0.33327  1.0000
  H   H986      1.0  0.75678  0.08561  0.48432  1.0000
  H   H987      1.0  0.80126  0.31106  0.14915  1.0000
  C   C1237     1.0  0.62488  0.11367  0.49190  1.0000
  H   H988      1.0  0.83132  0.32777  0.49687  1.0000
  H   H989      1.0  0.98599  0.06493  0.19614  1.0000
  C   C1238     1.0  0.49796  0.27914  0.11117  1.0000
  H   H990      1.0  0.91246  0.21813  0.01649  1.0000
  H   H991      1.0  0.58032  0.23704  0.49639  1.0000
  C   C1239     1.0  0.49914  0.18647  0.03187  1.0000
  C   C1240     1.0  0.92264  0.20178  0.01510  1.0000
  C   C1241     1.0  0.92722  0.00841  0.14458  1.0000
  S   S159      1.0  0.49998  0.14136  0.08444  1.0000
  H   H992      1.0  0.56390  0.31429  0.00203  1.0000
  H   H993      1.0  0.65933  0.99713  0.20420  1.0000
  C   C1242     1.0  0.64475  0.02873  0.49295  1.0000
  S   S160      1.0  0.49737  0.20730  0.12064  1.0000
  H   H994      1.0  0.52988  0.02371  0.99972  1.0000
  C   C1243     1.0  0.62995  0.00945  0.49586  1.0000
  H   H995      1.0  0.55029  0.20606  0.49630  1.0000
  C   C1244     1.0  0.69960  0.21230  0.49768  1.0000
  C   C1245     1.0  0.49744  0.04228  0.07846  1.0000
  H   H996      1.0  0.58691  0.32773  0.26012  1.0000
  H   H997      1.0  0.63022  0.32736  0.25291  1.0000
  H   H998      1.0  0.97823  0.18102  0.02864  1.0000
  H   H999      1.0  0.49567  0.24641  0.02672  1.0000
  H   H1000     1.0  0.55715  0.32897  0.40064  1.0000
  C   C1246     1.0  0.63945  0.32893  0.46931  1.0000
  H   H1001     1.0  0.91722  0.14275  0.00354  1.0000
  P   P42       1.0  0.88092  0.17962  0.99963  1.0000
  Fe  Fe80      1.0  0.60853  0.32938  0.35268  1.0000
  H   H1002     1.0  0.90335  0.99631  0.05635  1.0000
  C   C1247     1.0  0.57460  0.32931  0.00730  1.0000
  S   S161      1.0  0.63812  0.29750  0.63104  1.0000
  Fe  Fe81      1.0  0.58753  0.01682  0.86165  1.0000
  S   S162      1.0  0.57872  0.05467  0.87335  1.0000
  Fe  Fe82      1.0  0.64164  0.02705  0.86294  1.0000
  S   S163      1.0  0.63525  0.06475  0.87572  1.0000
  C   C1248     1.0  0.54874  0.14598  0.51352  1.0000
  Fe  Fe83      1.0  0.60764  0.05091  0.90468  1.0000
  S   S164      1.0  0.60471  0.05799  0.95108  1.0000
  Fe  Fe84      1.0  0.60671  0.06505  0.84323  1.0000
  S   S165      1.0  0.60382  0.09680  0.81419  1.0000
  S   S166      1.0  0.61588  0.01269  0.89399  1.0000
  S   S167      1.0  0.61372  0.02782  0.82938  1.0000
  Fe  Fe85      1.0  0.60048  0.17085  0.62755  1.0000
  S   S168      1.0  0.58622  0.13500  0.61719  1.0000
  S   S169      1.0  0.57818  0.20423  0.62811  1.0000
  Fe  Fe86      1.0  0.64995  0.15213  0.63511  1.0000
  S   S170      1.0  0.63996  0.11503  0.62516  1.0000
  S   S171      1.0  0.68611  0.16414  0.64680  1.0000
  Fe  Fe87      1.0  0.61854  0.13122  0.59059  1.0000
  S   S172      1.0  0.62104  0.11426  0.54802  1.0000
  Fe  Fe88      1.0  0.60896  0.12229  0.65271  1.0000
  S   S173      1.0  0.59898  0.09366  0.68330  1.0000
  S   S174      1.0  0.63103  0.16778  0.59879  1.0000
  S   S175      1.0  0.62051  0.15849  0.66474  1.0000
  S   S176      1.0  0.86000  0.29283  0.59490  1.0000
  Fe  Fe89      1.0  0.80056  0.12248  0.59778  1.0000
  S   S177      1.0  0.83534  0.10426  0.59077  1.0000
  S   S178      1.0  0.76629  0.10614  0.58641  1.0000
  Fe  Fe90      1.0  0.82221  0.16637  0.62206  1.0000
  S   S179      1.0  0.85914  0.15191  0.61684  1.0000
  S   S180      1.0  0.80968  0.20143  0.63924  1.0000
  Fe  Fe91      1.0  0.84642  0.13974  0.57518  1.0000
  S   S181      1.0  0.86384  0.14854  0.53464  1.0000
  Fe  Fe92      1.0  0.84442  0.11776  0.63316  1.0000
  S   S182      1.0  0.86133  0.09253  0.66455  1.0000
  S   S183      1.0  0.81079  0.15697  0.57977  1.0000
  S   S184      1.0  0.80845  0.13320  0.64086  1.0000
  Fe  Fe93      1.0  0.86822  0.01070  0.84498  1.0000
  S   S185      1.0  0.88305  0.04700  0.83935  1.0000
  Fe  Fe94      1.0  0.82210  0.03157  0.86968  1.0000
  S   S186      1.0  0.83562  0.06866  0.86706  1.0000
  S   S187      1.0  0.78555  0.02850  0.88985  1.0000
  Fe  Fe95      1.0  0.84709  0.05843  0.82444  1.0000
  S   S188      1.0  0.83548  0.08529  0.79170  1.0000
  Fe  Fe96      1.0  0.87041  0.05406  0.88238  1.0000
  S   S189      1.0  0.89826  0.07195  0.90929  1.0000
  S   S190      1.0  0.83261  0.02172  0.82664  1.0000
  S   S191      1.0  0.85650  0.01740  0.88837  1.0000
  C   C1249     1.0  0.89866  0.07903  0.94480  1.0000
  C   C1250     1.0  0.91887  0.08951  0.95598  1.0000
  C   C1251     1.0  0.67467  0.26800  0.79048  1.0000
  C   C1252     1.0  0.87950  0.07490  0.96194  1.0000
  H   H1003     1.0  0.93349  0.09341  0.94273  1.0000
  C   C1253     1.0  0.69169  0.18252  0.77493  1.0000
  H   H1004     1.0  0.86374  0.06711  0.95361  1.0000
  C   C1254     1.0  0.85376  0.09070  0.69984  1.0000
  C   C1255     1.0  0.86401  0.07261  0.71605  1.0000
  C   C1256     1.0  0.85868  0.07065  0.74417  1.0000
  C   C1257     1.0  0.84300  0.08680  0.75642  1.0000
  C   C1258     1.0  0.83268  0.10481  0.74022  1.0000
  C   C1259     1.0  0.83798  0.10678  0.71213  1.0000
  H   H1005     1.0  0.87638  0.06018  0.70683  1.0000
  H   H1006     1.0  0.86694  0.05686  0.75642  1.0000
  H   H1007     1.0  0.82077  0.11753  0.74958  1.0000
  H   H1008     1.0  0.83010  0.12093  0.70008  1.0000
  C   C1260     1.0  0.59542  0.22646  0.53501  1.0000
  C   C1261     1.0  0.62916  0.28345  0.77587  1.0000
  C   C1262     1.0  0.51994  0.14386  0.62279  1.0000
  H   H1009     1.0  0.88790  0.19185  0.51629  1.0000
  C   C1263     1.0  0.84595  0.26743  0.60698  1.0000
  C   C1264     1.0  0.82695  0.26949  0.62500  1.0000
  C   C1265     1.0  0.81608  0.24913  0.63484  1.0000
  C   C1266     1.0  0.82371  0.22660  0.62626  1.0000
  C   C1267     1.0  0.84239  0.22452  0.60771  1.0000
  C   C1268     1.0  0.85362  0.24491  0.59827  1.0000
  H   H1010     1.0  0.82086  0.28676  0.63174  1.0000
  H   H1011     1.0  0.80189  0.25091  0.64933  1.0000
  H   H1012     1.0  0.84844  0.20722  0.60099  1.0000
  H   H1013     1.0  0.86826  0.24321  0.58427  1.0000
  C   C1269     1.0  0.70873  0.14741  0.63143  1.0000
  C   C1270     1.0  0.73051  0.15777  0.62665  1.0000
  C   C1271     1.0  0.74833  0.14504  0.61294  1.0000
  C   C1272     1.0  0.74456  0.12174  0.60463  1.0000
  C   C1273     1.0  0.72324  0.11101  0.61071  1.0000
  C   C1274     1.0  0.70519  0.12396  0.62367  1.0000
  H   H1014     1.0  0.73337  0.17585  0.63285  1.0000
  H   H1015     1.0  0.76489  0.15338  0.60865  1.0000
  H   H1016     1.0  0.72057  0.09278  0.60506  1.0000
  H   H1017     1.0  0.68874  0.11561  0.62796  1.0000
  C   C1275     1.0  0.61984  0.12764  0.51506  1.0000
  C   C1276     1.0  0.85694  0.13479  0.50297  1.0000
  H   H1018     1.0  0.83115  0.12460  0.94718  1.0000
  C   C1277     1.0  0.70811  0.02012  0.86029  1.0000
  C   C1278     1.0  0.84422  0.11385  0.50165  1.0000
  C   C1279     1.0  0.75077  0.01789  0.85086  1.0000
  C   C1280     1.0  0.75594  0.02604  0.87724  1.0000
  C   C1281     1.0  0.73698  0.03180  0.89475  1.0000
  C   C1282     1.0  0.71327  0.02916  0.88628  1.0000
  H   H1019     1.0  0.87832  0.99831  0.93822  1.0000
  H   H1020     1.0  0.51068  0.11109  0.60351  1.0000
  H   H1021     1.0  0.74064  0.03813  0.91521  1.0000
  H   H1022     1.0  0.69901  0.03331  0.90023  1.0000
  C   C1283     1.0  0.60327  0.09537  0.77779  1.0000
  C   C1284     1.0  0.60728  0.11602  0.76252  1.0000
  C   C1285     1.0  0.60633  0.11580  0.73362  1.0000
  C   C1286     1.0  0.60095  0.09496  0.71965  1.0000
  C   C1287     1.0  0.59700  0.07432  0.73491  1.0000
  C   C1288     1.0  0.59832  0.07446  0.76377  1.0000
  H   H1023     1.0  0.61108  0.13229  0.77315  1.0000
  H   H1024     1.0  0.60942  0.13182  0.72222  1.0000
  H   H1025     1.0  0.59282  0.05810  0.72437  1.0000
  H   H1026     1.0  0.59512  0.05848  0.77521  1.0000
  C   C1289     1.0  0.53303  0.17469  0.59237  1.0000
  C   C1290     1.0  0.58705  0.07717  0.97213  1.0000
  C   C1291     1.0  0.56997  0.09283  0.96139  1.0000
  H   H1027     1.0  0.53865  0.19273  0.58972  1.0000
  H   H1028     1.0  0.58658  0.06789  0.63488  1.0000
  H   H1029     1.0  0.56691  0.09333  0.93952  1.0000
  C   C1292     1.0  0.89552  0.20582  0.52841  1.0000
  C   C1293     1.0  0.62104  0.27187  0.62961  1.0000
  C   C1294     1.0  0.63248  0.24970  0.63037  1.0000
  C   C1295     1.0  0.61944  0.22890  0.62964  1.0000
  C   C1296     1.0  0.59481  0.23016  0.62810  1.0000
  C   C1297     1.0  0.58333  0.25233  0.62697  1.0000
  C   C1298     1.0  0.59642  0.27317  0.62764  1.0000
  H   H1030     1.0  0.65149  0.24857  0.63169  1.0000
  H   H1031     1.0  0.62846  0.21193  0.63099  1.0000
  H   H1032     1.0  0.56428  0.25339  0.62577  1.0000
  H   H1033     1.0  0.58747  0.29021  0.62696  1.0000
  H   H1034     1.0  0.79608  0.14224  0.52718  1.0000
  H   H1035     1.0  0.90103  0.13364  0.91619  1.0000
  C   C1299     1.0  0.63108  0.28224  0.51819  1.0000
  C   C1300     1.0  0.76041  0.11708  0.70674  1.0000
  C   C1301     1.0  0.50819  0.05380  0.94428  1.0000
  H   H1036     1.0  0.63545  0.00070  0.56444  1.0000
  C   C1302     1.0  0.80409  0.05443  0.50910  1.0000
  C   C1303     1.0  0.55704  0.10813  0.97894  1.0000
  C   C1304     1.0  0.77973  0.14760  0.73322  1.0000
  C   C1305     1.0  0.69006  0.10746  0.55802  1.0000
  C   C1306     1.0  0.68682  0.30808  0.58222  1.0000
  C   C1307     1.0  0.77162  0.29418  0.72838  1.0000
  C   C1308     1.0  0.79289  0.29414  0.71399  1.0000
  H   H1037     1.0  0.66772  0.05287  0.51298  1.0000
  C   C1309     1.0  0.55967  0.12548  0.52421  1.0000
  C   C1310     1.0  0.56122  0.19128  0.53535  1.0000
  H   H1038     1.0  0.72377  0.11805  0.54228  1.0000
  C   C1311     1.0  0.69986  0.02869  0.61211  1.0000
  C   C1312     1.0  0.84527  0.29792  0.51927  1.0000
  H   H1039     1.0  0.62089  0.04882  0.65789  1.0000
  H   H1040     1.0  0.72341  0.00758  0.82251  1.0000
  H   H1041     1.0  0.83797  0.10587  0.52031  1.0000
  H   H1042     1.0  0.57837  0.31057  0.50611  1.0000
  H   H1043     1.0  0.81615  0.18238  0.52008  1.0000
  H   H1044     1.0  0.58731  0.20126  0.77584  1.0000
  C   C1313     1.0  0.65441  0.25510  0.70144  1.0000
  H   H1045     1.0  0.76418  0.27767  0.73494  1.0000
  H   H1046     1.0  0.80185  0.27761  0.70891  1.0000
  H   H1047     1.0  0.57874  0.31260  0.55608  1.0000
  H   H1048     1.0  0.81489  0.24918  0.51307  1.0000
  C   C1314     1.0  0.65493  0.19914  0.51517  1.0000
  C   C1315     1.0  0.61395  0.28795  0.71131  1.0000
  C   C1316     1.0  0.93661  0.01011  0.94681  1.0000
  C   C1317     1.0  0.61174  0.23698  0.72772  1.0000
  H   H1049     1.0  0.67370  0.04698  0.69431  1.0000
  C   C1318     1.0  0.59483  0.21020  0.55646  1.0000
  C   C1319     1.0  0.68321  0.13719  0.88387  1.0000
  C   C1320     1.0  0.65894  0.13330  0.88451  1.0000
  C   C1321     1.0  0.64753  0.12452  0.86135  1.0000
  C   C1322     1.0  0.66039  0.11918  0.83773  1.0000
  C   C1323     1.0  0.68485  0.12244  0.83714  1.0000
  C   C1324     1.0  0.69612  0.13201  0.86017  1.0000
  P   P43       1.0  0.70129  0.11569  0.80647  1.0000
  C   C1325     1.0  0.73100  0.10644  0.81609  1.0000
  C   C1326     1.0  0.68656  0.09159  0.78954  1.0000
  C   C1327     1.0  0.68818  0.06850  0.80011  1.0000
  C   C1328     1.0  0.67570  0.05021  0.78783  1.0000
  C   C1329     1.0  0.66104  0.05486  0.76540  1.0000
  C   C1330     1.0  0.65902  0.07778  0.75504  1.0000
  C   C1331     1.0  0.67157  0.09610  0.76705  1.0000
  C   C1332     1.0  0.75066  0.11499  0.80203  1.0000
  C   C1333     1.0  0.77349  0.10747  0.80929  1.0000
  C   C1334     1.0  0.68635  0.02018  0.59014  1.0000
  C   C1335     1.0  0.73476  0.09106  0.83839  1.0000
  C   C1336     1.0  0.70143  0.14117  0.78400  1.0000
  C   C1337     1.0  0.69209  0.16310  0.79269  1.0000
  C   C1338     1.0  0.70071  0.18025  0.74845  1.0000
  C   C1339     1.0  0.71009  0.15855  0.73967  1.0000
  C   C1340     1.0  0.71026  0.13901  0.75724  1.0000
  H   H1050     1.0  0.49902  0.14987  0.50457  1.0000
  H   H1051     1.0  0.62870  0.12139  0.86176  1.0000
  H   H1052     1.0  0.65119  0.11224  0.82011  1.0000
  H   H1053     1.0  0.71489  0.13520  0.85999  1.0000
  H   H1054     1.0  0.69841  0.06447  0.81827  1.0000
  H   H1055     1.0  0.67674  0.03254  0.79635  1.0000
  H   H1056     1.0  0.65065  0.04086  0.75663  1.0000
  H   H1057     1.0  0.64703  0.08155  0.73827  1.0000
  H   H1058     1.0  0.66869  0.11383  0.75929  1.0000
  H   H1059     1.0  0.74862  0.12758  0.78563  1.0000
  H   H1060     1.0  0.95425  0.05589  0.93750  1.0000
  H   H1061     1.0  0.72010  0.08472  0.85031  1.0000
  H   H1062     1.0  0.68489  0.16525  0.81305  1.0000
  H   H1063     1.0  0.71713  0.15692  0.71914  1.0000
  H   H1064     1.0  0.71725  0.12217  0.75000  1.0000
  C   C1341     1.0  0.77869  0.23919  0.51789  1.0000
  C   C1342     1.0  0.79975  0.24930  0.52647  1.0000
  C   C1343     1.0  0.80126  0.25974  0.55233  1.0000
  C   C1344     1.0  0.78172  0.26018  0.56965  1.0000
  C   C1345     1.0  0.76051  0.24999  0.56125  1.0000
  C   C1346     1.0  0.75902  0.23980  0.53508  1.0000
  P   P44       1.0  0.73461  0.25265  0.58246  1.0000
  C   C1347     1.0  0.71659  0.22675  0.57918  1.0000
  C   C1348     1.0  0.74400  0.25324  0.61779  1.0000
  C   C1349     1.0  0.75127  0.23218  0.63084  1.0000
  C   C1350     1.0  0.75748  0.23224  0.65852  1.0000
  C   C1351     1.0  0.75712  0.25340  0.67322  1.0000
  C   C1352     1.0  0.75089  0.27461  0.66012  1.0000
  C   C1353     1.0  0.74443  0.27455  0.63245  1.0000
  C   C1354     1.0  0.69222  0.22808  0.58424  1.0000
  C   C1355     1.0  0.67869  0.20773  0.58323  1.0000
  C   C1356     1.0  0.68926  0.18592  0.57684  1.0000
  C   C1357     1.0  0.71346  0.18437  0.57197  1.0000
  C   C1358     1.0  0.72715  0.20460  0.57362  1.0000
  C   C1359     1.0  0.71799  0.27910  0.57290  1.0000
  C   C1360     1.0  0.70004  0.28807  0.58995  1.0000
  C   C1361     1.0  0.85274  0.14894  0.96973  1.0000
  H   H1065     1.0  0.81932  0.07223  0.64371  1.0000
  C   C1362     1.0  0.62692  0.99920  0.52160  1.0000
  H   H1066     1.0  0.95204  0.00278  0.81490  1.0000
  H   H1067     1.0  0.70645  0.23922  0.65286  1.0000
  C   C1363     1.0  0.76007  0.31557  0.73461  1.0000
  H   H1068     1.0  0.81756  0.26765  0.55904  1.0000
  H   H1069     1.0  0.78323  0.26869  0.58946  1.0000
  H   H1070     1.0  0.74260  0.23259  0.52794  1.0000
  H   H1071     1.0  0.75250  0.21566  0.61975  1.0000
  H   H1072     1.0  0.76349  0.21596  0.66824  1.0000
  H   H1073     1.0  0.76252  0.25335  0.69443  1.0000
  H   H1074     1.0  0.75154  0.29125  0.67112  1.0000
  H   H1075     1.0  0.74018  0.29121  0.62254  1.0000
  H   H1076     1.0  0.68351  0.24455  0.58959  1.0000
  H   H1077     1.0  0.66004  0.20888  0.58783  1.0000
  H   H1078     1.0  0.67890  0.17005  0.57656  1.0000
  H   H1079     1.0  0.72175  0.16727  0.56810  1.0000
  H   H1080     1.0  0.74608  0.20281  0.57134  1.0000
  H   H1081     1.0  0.69628  0.27975  0.60935  1.0000
  C   C1364     1.0  0.78877  0.05264  0.76267  1.0000
  C   C1365     1.0  0.96067  0.00407  0.89394  1.0000
  C   C1366     1.0  0.90736  0.19980  0.55264  1.0000
  C   C1367     1.0  0.54587  0.02418  0.96021  1.0000
  C   C1368     1.0  0.78211  0.06381  0.73824  1.0000
  H   H1082     1.0  0.69158  0.24596  0.51662  1.0000
  Fe  Fe97      1.0  0.83931  0.32674  0.60237  1.0000
  H   H1083     1.0  0.78868  0.11366  0.79813  1.0000
  H   H1084     1.0  0.86219  0.11482  0.91317  1.0000
  C   C1369     1.0  0.69144  0.31951  0.55757  1.0000
  H   H1085     1.0  0.83690  0.02709  0.72642  1.0000
  C   C1370     1.0  0.51134  0.18232  0.52283  1.0000
  H   H1086     1.0  0.73583  0.18897  0.52070  1.0000
  H   H1087     1.0  0.63830  0.31352  0.72772  1.0000
  H   H1088     1.0  0.60717  0.21151  0.57335  1.0000
  H   H1089     1.0  0.63749  0.19414  0.52170  1.0000
  C   C1371     1.0  0.83527  0.01116  0.73858  1.0000
  H   H1090     1.0  0.77255  0.17672  0.54433  1.0000
  C   C1372     1.0  0.76660  0.16711  0.52648  1.0000
  C   C1373     1.0  0.75765  0.08391  0.84583  1.0000
  C   C1374     1.0  0.52771  0.16687  0.61873  1.0000
  H   H1091     1.0  0.71349  0.32033  0.52190  1.0000
  H   H1092     1.0  0.50229  0.05163  0.79478  1.0000
  C   C1375     1.0  0.51707  0.12880  0.60039  1.0000
  C   C1376     1.0  0.71503  0.01340  0.62664  1.0000
  P   P45       1.0  0.53845  0.16939  0.53588  1.0000
  H   H1093     1.0  0.67112  0.12202  0.68118  1.0000
  C   C1377     1.0  0.86554  0.12757  0.92927  1.0000
  C   C1378     1.0  0.77867  0.16278  0.71067  1.0000
  C   C1379     1.0  0.56252  0.20714  0.51331  1.0000
  C   C1380     1.0  0.71842  0.08651  0.69787  1.0000
  H   H1094     1.0  0.65209  0.23402  0.53253  1.0000
  H   H1095     1.0  0.65598  0.03681  0.63135  1.0000
  H   H1096     1.0  0.90827  0.18146  0.55914  1.0000
  H   H1097     1.0  0.84618  0.21219  0.52727  1.0000
  C   C1381     1.0  0.59281  0.30200  0.51701  1.0000
  H   H1098     1.0  0.81924  0.24229  0.99039  1.0000
  C   C1382     1.0  0.84616  0.21504  0.99462  1.0000
  C   C1383     1.0  0.53139  0.15930  0.56992  1.0000
  H   H1099     1.0  0.97948  0.09051  0.94309  1.0000
  H   H1100     1.0  0.60827  0.16192  0.52881  1.0000
  C   C1384     1.0  0.63867  0.00825  0.54443  1.0000
  C   C1385     1.0  0.54446  0.03248  0.93336  1.0000
  C   C1386     1.0  0.86931  0.20784  0.98807  1.0000
  H   H1101     1.0  0.60816  0.24040  0.53532  1.0000
  C   C1387     1.0  0.67620  0.08844  0.56571  1.0000
  H   H1102     1.0  0.67607  0.25149  0.75099  1.0000
  H   H1103     1.0  0.51274  0.01469  0.81979  1.0000
  H   H1104     1.0  0.68588  0.20751  0.67722  1.0000
  C   C1388     1.0  0.66183  0.23143  0.69788  1.0000
  C   C1389     1.0  0.70681  0.06478  0.69883  1.0000
  H   H1105     1.0  0.60877  0.23130  0.68412  1.0000
  H   H1106     1.0  0.86019  0.26622  0.53649  1.0000
  C   C1390     1.0  0.66305  0.22174  0.52102  1.0000
  H   H1107     1.0  0.64626  0.27461  0.50802  1.0000
  H   H1108     1.0  0.61111  0.23705  0.77217  1.0000
  H   H1109     1.0  0.69856  0.04716  0.61805  1.0000
  C   C1391     1.0  0.64130  0.04520  0.62080  1.0000
  C   C1392     1.0  0.98752  0.07305  0.94102  1.0000
  C   C1393     1.0  0.63849  0.28933  0.80148  1.0000
  H   H1110     1.0  0.65312  0.21720  0.70835  1.0000
  C   C1394     1.0  0.88752  0.13819  0.93104  1.0000
  P   P46       1.0  0.66686  0.04037  0.57180  1.0000
  C   C1395     1.0  0.72708  0.01469  0.84261  1.0000
  C   C1396     1.0  0.78912  0.07834  0.66952  1.0000
  H   H1111     1.0  0.83902  0.15299  0.98444  1.0000
  C   C1397     1.0  0.83710  0.23679  0.98529  1.0000
  H   H1112     1.0  0.70036  0.19526  0.73465  1.0000
  H   H1113     1.0  0.78639  0.18014  0.71181  1.0000
  C   C1398     1.0  0.62134  0.05178  0.63596  1.0000
  C   C1399     1.0  0.60192  0.06258  0.62302  1.0000
  H   H1114     1.0  0.58442  0.19589  0.68817  1.0000
  H   H1115     1.0  0.71379  0.04329  0.54794  1.0000
  C   C1400     1.0  0.68059  0.22582  0.68044  1.0000
  H   H1116     1.0  0.69122  0.13387  0.50883  1.0000
  C   C1401     1.0  0.76328  0.05675  0.62801  1.0000
  C   C1402     1.0  0.82411  0.19054  0.50245  1.0000
  C   C1403     1.0  0.64191  0.04944  0.59247  1.0000
  H   H1117     1.0  0.84119  0.30556  0.53912  1.0000
  H   H1118     1.0  0.95072  0.02893  0.98157  1.0000
  C   C1404     1.0  0.61146  0.29064  0.50310  1.0000
  C   C1405     1.0  0.94617  0.02110  0.88092  1.0000
  C   C1406     1.0  0.91770  0.21737  0.56854  1.0000
  H   H1119     1.0  0.56298  0.12366  0.54597  1.0000
  C   C1407     1.0  0.62224  0.06025  0.57969  1.0000
  C   C1408     1.0  0.70691  0.06113  0.55067  1.0000
  C   C1409     1.0  0.58042  0.30513  0.68663  1.0000
  C   C1410     1.0  0.64262  0.26995  0.75727  1.0000
  H   H1120     1.0  0.68426  0.19931  0.78169  1.0000
  S   S192      1.0  0.55279  0.99632  0.85761  1.0000
  C   C1411     1.0  0.78475  0.07012  0.50864  1.0000
  C   C1412     1.0  0.68448  0.06516  0.56202  1.0000
  C   C1413     1.0  0.85642  0.27570  0.51765  1.0000
  H   H1121     1.0  0.62806  0.29987  0.81568  1.0000
  C   C1414     1.0  0.60243  0.06694  0.59493  1.0000
  C   C1415     1.0  0.74577  0.17404  0.51298  1.0000
  H   H1122     1.0  0.58761  0.07583  0.58498  1.0000
  H   H1123     1.0  0.76053  0.07223  0.86315  1.0000
  C   C1416     1.0  0.77983  0.14770  0.51701  1.0000
  C   C1417     1.0  0.85491  0.00184  0.75253  1.0000
  H   H1124     1.0  0.72522  0.01994  0.64376  1.0000
  C   C1418     1.0  0.72273  0.29091  0.54823  1.0000
  H   H1125     1.0  0.90412  0.26532  0.52925  1.0000
  C   C1419     1.0  0.88285  0.22220  0.97107  1.0000
  H   H1126     1.0  0.61143  0.28944  0.77059  1.0000
  C   C1420     1.0  0.89419  0.00499  0.94757  1.0000
  H   H1127     1.0  0.57814  0.17978  0.57308  1.0000
  C   C1421     1.0  0.65683  0.03758  0.51566  1.0000
  P   P47       1.0  0.63035  0.26246  0.72426  1.0000
  C   C1422     1.0  0.61256  0.15116  0.51122  1.0000
  H   H1128     1.0  0.66118  0.29140  0.69006  1.0000
  H   H1129     1.0  0.93203  0.03377  0.84253  1.0000
  H   H1130     1.0  0.51971  0.12480  0.55685  1.0000
  C   C1423     1.0  0.56734  0.10737  0.50669  1.0000
  H   H1131     1.0  0.73852  0.07708  0.53566  1.0000
  C   C1424     1.0  0.68536  0.22837  0.51219  1.0000
  C   C1425     1.0  0.57802  0.19244  0.55647  1.0000
  C   C1426     1.0  0.52560  0.04722  0.92535  1.0000
  H   H1132     1.0  0.79466  0.08595  0.83648  1.0000
  H   H1133     1.0  0.62229  0.06381  0.55790  1.0000
  C   C1427     1.0  0.84812  0.13301  0.94854  1.0000
  C   C1428     1.0  0.89319  0.22960  0.52035  1.0000
  S   S193      1.0  0.80431  0.32891  0.58124  1.0000
  H   H1134     1.0  0.75320  0.04953  0.61122  1.0000
  C   C1429     1.0  0.94335  0.02073  0.85248  1.0000
  C   C1430     1.0  0.58441  0.19626  0.73229  1.0000
  H   H1135     1.0  0.73682  0.28493  0.53493  1.0000
  H   H1136     1.0  0.88447  0.25513  0.94903  1.0000
  C   C1431     1.0  0.66540  0.26211  0.76482  1.0000
  H   H1137     1.0  0.79935  0.08785  0.68450  1.0000
  C   C1432     1.0  0.69231  0.24374  0.66677  1.0000
  H   H1138     1.0  0.52480  0.05380  0.90452  1.0000
  C   C1433     1.0  0.68878  0.99633  0.58247  1.0000
  C   C1434     1.0  0.74837  0.05423  0.77801  1.0000
  H   H1139     1.0  0.58635  0.26799  0.69152  1.0000
  H   H1140     1.0  0.81459  0.05242  0.52761  1.0000
  C   C1435     1.0  0.85098  0.25134  0.96909  1.0000
  H   H1141     1.0  0.71362  0.12400  0.68954  1.0000
  S   S194      1.0  0.67867  0.01363  0.84958  1.0000
  H   H1142     1.0  0.71656  0.04864  0.70364  1.0000
  C   C1436     1.0  0.59192  0.20802  0.75584  1.0000
  H   H1143     1.0  0.68364  0.12538  0.56151  1.0000
  C   C1437     1.0  0.91606  0.00098  0.93507  1.0000
  H   H1144     1.0  0.78040  0.08026  0.52687  1.0000
  H   H1145     1.0  0.79819  0.00773  0.73035  1.0000
  C   C1438     1.0  0.62208  0.31088  0.71644  1.0000
  C   C1439     1.0  0.66653  0.27303  0.68790  1.0000
  C   C1440     1.0  0.88072  0.08090  0.98996  1.0000
  C   C1441     1.0  0.72087  0.08018  0.54332  1.0000
  C   C1442     1.0  0.61246  0.29492  0.56027  1.0000
  C   C1443     1.0  0.77076  0.12479  0.73124  1.0000
  C   C1444     1.0  0.92021  0.09526  0.98404  1.0000
  H   H1146     1.0  0.90041  0.21657  0.96485  1.0000
  H   H1147     1.0  0.77737  0.03959  0.80162  1.0000
  H   H1148     1.0  0.87170  0.01062  0.75139  1.0000
  C   C1445     1.0  0.52249  0.13657  0.57400  1.0000
  C   C1446     1.0  0.97323  0.05333  0.93816  1.0000
  H   H1149     1.0  0.69228  0.26200  0.79618  1.0000
  C   C1447     1.0  0.80053  0.06980  0.64613  1.0000
  C   C1448     1.0  0.75184  0.06499  0.65158  1.0000
  H   H1150     1.0  0.74373  0.31537  0.74599  1.0000
  C   C1449     1.0  0.76474  0.07550  0.67285  1.0000
  H   H1151     1.0  0.67319  0.31497  0.59564  1.0000
  H   H1152     1.0  0.69205  0.14399  0.90184  1.0000
  C   C1450     1.0  0.75842  0.07052  0.73348  1.0000
  H   H1153     1.0  0.65094  0.08363  0.68285  1.0000
  C   C1451     1.0  0.89272  0.01802  0.97182  1.0000
  C   C1452     1.0  0.81348  0.00021  0.74076  1.0000
  H   H1154     1.0  0.78828  0.15321  0.75195  1.0000
  C   C1453     1.0  0.59302  0.28527  0.69622  1.0000
  C   C1454     1.0  0.59033  0.20490  0.70650  1.0000
  C   C1455     1.0  0.68108  0.10601  0.68617  1.0000
  C   C1456     1.0  0.52835  0.03039  0.97906  1.0000
  C   C1457     1.0  0.63155  0.28439  0.54672  1.0000
  C   C1458     1.0  0.66975  0.08434  0.68694  1.0000
  C   C1459     1.0  0.90469  0.24699  0.53565  1.0000
  C   C1460     1.0  0.70533  0.10708  0.69125  1.0000
  C   C1461     1.0  0.77695  0.09184  0.83106  1.0000
  H   H1155     1.0  0.70813  0.32808  0.63525  1.0000
  H   H1156     1.0  0.93593  0.10316  0.99225  1.0000
  H   H1157     1.0  0.72342  0.07157  0.75148  1.0000
  C   C1462     1.0  0.95487  0.00341  0.83684  1.0000
  C   C1463     1.0  0.89224  0.15409  0.95223  1.0000
  C   C1464     1.0  0.68547  0.26736  0.67071  1.0000
  C   C1465     1.0  0.71249  0.10334  0.54701  1.0000
  H   H1158     1.0  0.75261  0.12636  0.66483  1.0000
  H   H1159     1.0  0.76844  0.16669  0.66842  1.0000
  C   C1466     1.0  0.74163  0.06587  0.75383  1.0000
  C   C1467     1.0  0.76849  0.15521  0.68621  1.0000
  H   H1160     1.0  0.57406  0.18041  0.73400  1.0000
  C   C1468     1.0  0.78764  0.05901  0.62538  1.0000
  H   H1161     1.0  0.79578  0.06786  0.72379  1.0000
  H   H1162     1.0  0.90936  0.16216  0.95313  1.0000
  C   C1469     1.0  0.75959  0.13239  0.68419  1.0000
  H   H1163     1.0  0.52992  0.17866  0.63603  1.0000
  C   C1470     1.0  0.49928  0.01459  0.80389  1.0000
  H   H1164     1.0  0.79645  0.05332  0.60681  1.0000
  H   H1165     1.0  0.64679  0.27833  0.55843  1.0000
  C   C1471     1.0  0.91659  0.24092  0.55988  1.0000
  H   H1166     1.0  0.69444  0.28131  0.66001  1.0000
  C   C1472     1.0  0.60545  0.22837  0.75363  1.0000
  H   H1167     1.0  0.84398  0.26819  0.96181  1.0000
  C   C1473     1.0  0.68260  0.06372  0.69333  1.0000
  H   H1168     1.0  0.92464  0.25455  0.57217  1.0000
  C   C1474     1.0  0.98339  0.03061  0.93550  1.0000
  H   H1169     1.0  0.80720  0.04833  0.76665  1.0000
  H   H1170     1.0  0.93691  0.03463  0.89267  1.0000
  C   C1475     1.0  0.59311  0.30361  0.54550  1.0000
  C   C1476     1.0  0.77195  0.04777  0.78248  1.0000
  H   H1171     1.0  0.55815  0.02762  0.91886  1.0000
  H   H1172     1.0  0.65923  0.09204  0.57489  1.0000
  H   H1173     1.0  0.61288  0.29717  0.58215  1.0000
  H   H1174     1.0  0.54407  0.12030  0.97029  1.0000
  P   P48       1.0  0.96484  0.00536  0.93057  1.0000
  C   C1477     1.0  0.58853  0.32780  0.69205  1.0000
  H   H1175     1.0  0.73289  0.06387  0.65250  1.0000
  P   P49       1.0  0.75012  0.08718  0.70303  1.0000
  H   H1176     1.0  0.73549  0.05070  0.79372  1.0000
  H   H1177     1.0  0.77274  0.11304  0.74854  1.0000
  H   H1178     1.0  0.92658  0.21270  0.58753  1.0000
  H   H1179     1.0  0.56090  0.01332  0.96646  1.0000
  H   H1180     1.0  0.64896  0.13692  0.90297  1.0000
  C   C1478     1.0  0.87501  0.15921  0.97208  1.0000
  C   C1479     1.0  0.70950  0.31103  0.54066  1.0000
  C   C1480     1.0  0.60401  0.22507  0.70423  1.0000
  H   H1181     1.0  0.81943  0.31550  0.69544  1.0000
  C   C1481     1.0  0.65402  0.02727  0.54159  1.0000
  C   C1482     1.0  0.87380  0.24399  0.96189  1.0000
  C   C1483     1.0  0.91319  0.02645  0.98409  1.0000
  H   H1182     1.0  0.56443  0.30294  0.67476  1.0000
  C   C1484     1.0  0.57954  0.22469  0.51322  1.0000
  H   H1183     1.0  0.67471  0.09450  0.50089  1.0000
  H   H1184     1.0  0.51703  0.21665  0.54112  1.0000
  C   C1485     1.0  0.93510  0.02220  0.97186  1.0000
  H   H1185     1.0  0.66844  0.28621  0.82864  1.0000
  H   H1186     1.0  0.60522  0.31646  0.98558  1.0000
  C   C1486     1.0  0.84153  0.20729  0.50650  1.0000
  C   C1487     1.0  0.50526  0.20589  0.52905  1.0000
  C   C1488     1.0  0.66918  0.18297  0.50081  1.0000
  H   H1187     1.0  0.76505  0.01318  0.83721  1.0000
  H   H1188     1.0  0.57614  0.09180  0.51507  1.0000
  H   H1189     1.0  0.51609  0.13777  0.64329  1.0000
  C   C1489     1.0  0.80280  0.31553  0.70630  1.0000
  C   C1490     1.0  0.50952  0.04555  0.97138  1.0000
  H   H1190     1.0  0.87569  0.02175  0.98103  1.0000
  C   C1491     1.0  0.66124  0.28163  0.80877  1.0000
  C   C1492     1.0  0.49516  0.16838  0.50856  1.0000
  Fe  Fe98      1.0  0.52081  0.39935  0.06861  1.0000
  H   H1191     1.0  0.84956  0.44682  0.16243  1.0000
  S   S195      1.0  0.53270  0.42524  0.03546  1.0000
  Fe  Fe99      1.0  0.52972  0.38459  0.12950  1.0000
  S   S196      1.0  0.64024  0.34773  0.36856  1.0000
  S   S197      1.0  0.55959  0.38528  0.16127  1.0000
  C   C1493     1.0  0.78658  0.37378  0.22665  1.0000
  S   S198      1.0  0.54225  0.37056  0.08893  1.0000
  S   S199      1.0  0.51106  0.41570  0.10935  1.0000
  Fe  Fe100     1.0  0.64335  0.36249  0.32631  1.0000
  S   S200      1.0  0.62051  0.39461  0.33495  1.0000
  S   S201      1.0  0.67769  0.36031  0.30305  1.0000
  C   C1494     1.0  0.95923  0.58379  0.48684  1.0000
  S   S202      1.0  0.58311  0.35873  0.36285  1.0000
  Fe  Fe101     1.0  0.59067  0.37173  0.32009  1.0000
  S   S203      1.0  0.55906  0.37961  0.29209  1.0000
  Fe  Fe102     1.0  0.61519  0.37799  0.37684  1.0000
  S   S204      1.0  0.62091  0.39522  0.41880  1.0000
  C   C1495     1.0  0.91255  0.46543  0.25041  1.0000
  H   H1192     1.0  0.97707  0.55289  0.47058  1.0000
  Fe  Fe103     1.0  0.95674  0.38502  0.09529  1.0000
  S   S205      1.0  0.92084  0.39916  0.10773  1.0000
  C   C1496     1.0  0.65676  0.34417  0.45995  1.0000
  H   H1193     1.0  0.94112  0.41552  0.18810  1.0000
  S   S206      1.0  0.89954  0.34811  0.09365  1.0000
  Fe  Fe104     1.0  0.90754  0.38101  0.06984  1.0000
  S   S207      1.0  0.88202  0.40358  0.04371  1.0000
  Fe  Fe105     1.0  0.91625  0.36510  0.13032  1.0000
  S   S208      1.0  0.89900  0.35567  0.17113  1.0000
  S   S209      1.0  0.94312  0.36734  0.05684  1.0000
  S   S210      1.0  0.95306  0.35152  0.12076  1.0000
  Fe  Fe106     1.0  0.84663  0.39794  0.31125  1.0000
  S   S211      1.0  0.81119  0.38300  0.30182  1.0000
  S   S212      1.0  0.86793  0.41475  0.27695  1.0000
  Fe  Fe107     1.0  0.84328  0.38347  0.37233  1.0000
  S   S213      1.0  0.80797  0.36707  0.36654  1.0000
  S   S214      1.0  0.86181  0.38192  0.41383  1.0000
  Fe  Fe108     1.0  0.82330  0.35243  0.32784  1.0000
  Fe  Fe109     1.0  0.79917  0.39916  0.34139  1.0000
  S   S215      1.0  0.76406  0.41762  0.34900  1.0000
  S   S216      1.0  0.85961  0.36635  0.33495  1.0000
  S   S217      1.0  0.83370  0.41691  0.34937  1.0000
  C   C1497     1.0  0.84571  0.37865  0.44465  1.0000
  C   C1498     1.0  0.85757  0.37824  0.47003  1.0000
  C   C1499     1.0  0.65133  0.35836  0.05420  1.0000
  C   C1500     1.0  0.82121  0.37671  0.44429  1.0000
  C   C1501     1.0  0.98645  0.37661  0.17743  1.0000
  H   H1194     1.0  0.81191  0.37714  0.42499  1.0000
  C   C1502     1.0  0.89021  0.37273  0.20000  1.0000
  C   C1503     1.0  0.89275  0.39725  0.20113  1.0000
  C   C1504     1.0  0.88559  0.40993  0.22464  1.0000
  C   C1505     1.0  0.87593  0.39827  0.24730  1.0000
  C   C1506     1.0  0.87312  0.37378  0.24600  1.0000
  C   C1507     1.0  0.88020  0.36111  0.22247  1.0000
  H   H1195     1.0  0.89997  0.40646  0.18380  1.0000
  H   H1196     1.0  0.88746  0.42888  0.22521  1.0000
  H   H1197     1.0  0.86568  0.36458  0.26326  1.0000
  P   P50       1.0  0.99365  0.49034  0.00236  1.0000
  C   C1508     1.0  0.73295  0.43777  0.17575  1.0000
  H   H1198     1.0  0.75893  0.44602  0.20616  1.0000
  C   C1509     1.0  0.82319  0.42770  0.18455  1.0000
  C   C1510     1.0  0.85175  0.40953  0.15387  1.0000
  C   C1511     1.0  0.70100  0.37788  0.31456  1.0000
  C   C1512     1.0  0.72365  0.37374  0.30399  1.0000
  C   C1513     1.0  0.74305  0.38581  0.31454  1.0000
  C   C1514     1.0  0.73976  0.40300  0.33478  1.0000
  C   C1515     1.0  0.71686  0.40838  0.34401  1.0000
  C   C1516     1.0  0.69755  0.39544  0.33442  1.0000
  C   C1517     1.0  0.70831  0.42352  0.44365  1.0000
  H   H1199     1.0  0.76051  0.38189  0.30684  1.0000
  H   H1200     1.0  0.71414  0.42206  0.35923  1.0000
  H   H1201     1.0  0.68006  0.39900  0.34238  1.0000
  C   C1518     1.0  0.61056  0.38389  0.45049  1.0000
  C   C1519     1.0  0.62127  0.39107  0.47512  1.0000
  C   C1520     1.0  0.76297  0.34207  0.24486  1.0000
  C   C1521     1.0  0.59107  0.36916  0.45180  1.0000
  H   H1202     1.0  0.63622  0.40263  0.47441  1.0000
  H   H1203     1.0  0.58238  0.36392  0.43309  1.0000
  C   C1522     1.0  0.55878  0.38189  0.19749  1.0000
  C   C1523     1.0  0.53762  0.38186  0.21213  1.0000
  C   C1524     1.0  0.53801  0.38076  0.24103  1.0000
  C   C1525     1.0  0.55949  0.37943  0.25561  1.0000
  C   C1526     1.0  0.58061  0.37870  0.24090  1.0000
  C   C1527     1.0  0.58023  0.37999  0.21205  1.0000
  H   H1204     1.0  0.52100  0.38334  0.20126  1.0000
  H   H1205     1.0  0.52157  0.38137  0.25218  1.0000
  H   H1206     1.0  0.59726  0.37770  0.25178  1.0000
  H   H1207     1.0  0.59670  0.37993  0.20097  1.0000
  C   C1528     1.0  0.72452  0.33491  0.40132  1.0000
  H   H1208     1.0  0.87033  0.50646  0.05020  1.0000
  H   H1209     1.0  0.72630  0.36088  0.28791  1.0000
  C   C1529     1.0  0.79167  0.42472  0.42524  1.0000
  C   C1530     1.0  0.66813  0.33961  0.43517  1.0000
  H   H1210     1.0  0.59043  0.34048  0.07687  1.0000
  H   H1211     1.0  0.65946  0.46221  0.47879  1.0000
  C   C1531     1.0  0.75835  0.41343  0.45328  1.0000
  C   C1532     1.0  0.76956  0.41445  0.42771  1.0000
  P   P51       1.0  0.72912  0.40127  0.45588  1.0000
  C   C1533     1.0  0.72773  0.37514  0.43464  1.0000
  H   H1212     1.0  0.82872  0.44999  0.28393  1.0000
  C   C1534     1.0  0.58210  0.36216  0.47739  1.0000
  C   C1535     1.0  0.95906  0.40931  0.18484  1.0000
  H   H1213     1.0  0.72438  0.45504  0.17690  1.0000
  C   C1536     1.0  0.60202  0.40761  0.11150  1.0000
  C   C1537     1.0  0.94860  0.46093  0.21137  1.0000
  C   C1538     1.0  0.72446  0.37741  0.40627  1.0000
  C   C1539     1.0  0.88339  0.50818  0.00885  1.0000
  H   H1214     1.0  0.89832  0.46663  0.26518  1.0000
  H   H1215     1.0  0.87657  0.37962  0.47055  1.0000
  C   C1540     1.0  0.72967  0.35239  0.44614  1.0000
  Fe  Fe110     1.0  0.50946  0.34879  0.08878  1.0000
  C   C1541     1.0  0.84232  0.38739  0.15917  1.0000
  C   C1542     1.0  0.67733  0.45815  0.42198  1.0000
  C   C1543     1.0  0.58987  0.42363  0.05913  1.0000
  C   C1544     1.0  0.69208  0.38254  0.04021  1.0000
  C   C1545     1.0  0.73574  0.39860  0.15589  1.0000
  H   H1216     1.0  0.80034  0.42499  0.40549  1.0000
  C   C1546     1.0  0.68681  0.41702  0.43166  1.0000
  C   C1547     1.0  0.58956  0.34020  0.12087  1.0000
  C   C1548     1.0  0.69394  0.36074  0.05358  1.0000
  H   H1217     1.0  0.76144  0.40741  0.40949  1.0000
  C   C1549     1.0  0.98002  0.51033  0.02672  1.0000
  C   C1550     1.0  0.76446  0.36395  0.23171  1.0000
  C   C1551     1.0  0.55382  0.49444  0.49293  1.0000
  C   C1552     1.0  0.91223  0.47982  0.22715  1.0000
  C   C1553     1.0  0.58411  0.42467  0.10821  1.0000
  H   H1218     1.0  0.72312  0.39472  0.39696  1.0000
  P   P52       1.0  0.62048  0.39243  0.03208  1.0000
  C   C1554     1.0  0.56496  0.34765  0.02306  1.0000
  C   C1555     1.0  0.60217  0.36824  0.02145  1.0000
  H   H1219     1.0  0.73258  0.34994  0.46783  1.0000
  C   C1556     1.0  0.80549  0.34020  0.24924  1.0000
  H   H1220     1.0  0.73022  0.45313  0.45451  1.0000
  H   H1221     1.0  0.60624  0.40114  0.13188  1.0000
  C   C1557     1.0  0.93091  0.44895  0.25435  1.0000
  C   C1558     1.0  0.64930  0.38027  0.04074  1.0000
  H   H1222     1.0  0.95045  0.55615  0.07586  1.0000
  C   C1559     1.0  0.72785  0.33236  0.42951  1.0000
  C   C1560     1.0  0.56452  0.42227  0.43730  1.0000
  H   H1223     1.0  0.94442  0.50258  0.01401  1.0000
  H   H1224     1.0  0.49900  0.33847  0.18557  1.0000
  H   H1225     1.0  0.76078  0.42425  0.49588  1.0000
  H   H1226     1.0  0.57048  0.38151  0.04132  1.0000
  C   C1561     1.0  0.62379  0.45784  0.49276  1.0000
  C   C1562     1.0  0.96088  0.46804  0.15298  1.0000
  C   C1563     1.0  0.96336  0.49205  0.14645  1.0000
  C   C1564     1.0  0.95613  0.50064  0.12084  1.0000
  C   C1565     1.0  0.94617  0.48538  0.10168  1.0000
  C   C1566     1.0  0.94334  0.46160  0.10817  1.0000
  C   C1567     1.0  0.95067  0.45294  0.13369  1.0000
  H   H1227     1.0  0.59473  0.43571  0.45776  1.0000
  H   H1228     1.0  0.71118  0.35316  0.05837  1.0000
  C   C1568     1.0  0.71382  0.44759  0.44530  1.0000
  C   C1569     1.0  0.78971  0.42199  0.24233  1.0000
  H   H1229     1.0  0.78964  0.37392  0.46829  1.0000
  H   H1230     1.0  0.87480  0.52512  0.00480  1.0000
  C   C1570     1.0  0.97755  0.42541  0.18299  1.0000
  H   H1231     1.0  0.70788  0.39185  0.03461  1.0000
  C   C1571     1.0  0.94898  0.44681  0.23505  1.0000
  C   C1572     1.0  0.78349  0.33016  0.25353  1.0000
  H   H1232     1.0  0.54472  0.48977  0.04418  1.0000
  C   C1573     1.0  0.93017  0.47759  0.20765  1.0000
  C   C1574     1.0  0.95863  0.54332  0.06224  1.0000
  C   C1575     1.0  0.69839  0.46481  0.43446  1.0000
  H   H1233     1.0  0.92567  0.53124  0.04584  1.0000
  C   C1576     1.0  0.82337  0.38533  0.17717  1.0000
  C   C1577     1.0  0.80704  0.36201  0.23609  1.0000
  H   H1234     1.0  0.95858  0.51904  0.11575  1.0000
  H   H1235     1.0  0.94090  0.49179  0.08168  1.0000
  H   H1236     1.0  0.93621  0.44959  0.09309  1.0000
  C   C1578     1.0  0.67153  0.43430  0.42070  1.0000
  H   H1237     1.0  0.67498  0.33174  0.07092  1.0000
  H   H1238     1.0  0.76387  0.37610  0.17099  1.0000
  C   C1579     1.0  0.58695  0.33015  0.09497  1.0000
  H   H1239     1.0  0.94898  0.43430  0.13786  1.0000
  C   C1580     1.0  0.62326  0.41396  0.00496  1.0000
  H   H1240     1.0  0.68194  0.39863  0.43028  1.0000
  P   P53       1.0  0.97117  0.45680  0.18565  1.0000
  C   C1581     1.0  0.81197  0.44380  0.27626  1.0000
  C   C1582     1.0  0.89045  0.47516  0.03954  1.0000
  H   H1241     1.0  0.92942  0.48868  0.18962  1.0000
  C   C1583     1.0  0.76344  0.41007  0.19137  1.0000
  H   H1242     1.0  0.81578  0.44351  0.19394  1.0000
  C   C1584     1.0  0.94471  0.52940  0.04519  1.0000
  C   C1585     1.0  0.84494  0.37650  0.49480  1.0000
  H   H1243     1.0  0.74587  0.33471  0.24913  1.0000
  H   H1244     1.0  0.74832  0.37343  0.22629  1.0000
  C   C1586     1.0  0.54434  0.41939  0.00230  1.0000
  C   C1587     1.0  0.75522  0.39329  0.17262  1.0000
  H   H1245     1.0  0.54161  0.48288  0.48273  1.0000
  H   H1246     1.0  0.89788  0.49248  0.22408  1.0000
  C   C1588     1.0  0.67357  0.34867  0.06060  1.0000
  S   S218      1.0  0.98153  0.41667  0.09040  1.0000
  H   H1247     1.0  0.90553  0.37686  0.99978  1.0000
  H   H1248     1.0  0.63141  0.44284  0.03234  1.0000
  H   H1249     1.0  0.87806  0.34217  0.22175  1.0000
  H   H1250     1.0  0.82752  0.42697  0.24125  1.0000
  H   H1251     1.0  0.56385  0.44560  0.07940  1.0000
  H   H1252     1.0  0.57437  0.41748  0.41907  1.0000
  H   H1253     1.0  0.72933  0.38553  0.14161  1.0000
  H   H1254     1.0  0.75265  0.41804  0.25176  1.0000
  H   H1255     1.0  0.58440  0.42957  0.03896  1.0000
  C   C1589     1.0  0.56354  0.43869  0.48331  1.0000
  H   H1256     1.0  0.70939  0.42490  0.14465  1.0000
  C   C1590     1.0  0.57605  0.43275  0.45945  1.0000
  C   C1591     1.0  0.81391  0.40544  0.19039  1.0000
  H   H1257     1.0  0.75431  0.44108  0.29452  1.0000
  H   H1258     1.0  0.66554  0.47141  0.41312  1.0000
  H   H1259     1.0  0.97311  0.45995  0.04412  1.0000
  H   H1260     1.0  0.56661  0.35132  0.47808  1.0000
  C   C1592     1.0  0.61367  0.39825  0.08860  1.0000
  H   H1261     1.0  0.82413  0.37005  0.23411  1.0000
  C   C1593     1.0  0.79143  0.44768  0.29145  1.0000
  H   H1262     1.0  0.88768  0.46643  0.05900  1.0000
  C   C1594     1.0  0.72198  0.39267  0.49049  1.0000
  H   H1263     1.0  0.66084  0.35991  0.47150  1.0000
  H   H1264     1.0  0.93081  0.43749  0.27216  1.0000
  H   H1265     1.0  0.50925  0.41965  0.46352  1.0000
  H   H1266     1.0  0.53183  0.40896  0.42171  1.0000
  C   C1595     1.0  0.96351  0.38504  0.18222  1.0000
  C   C1596     1.0  0.80288  0.43397  0.44828  1.0000
  H   H1267     1.0  0.63041  0.33309  0.48825  1.0000
  C   C1597     1.0  0.57855  0.36724  0.02972  1.0000
  C   C1598     1.0  0.98317  0.54060  0.06179  1.0000
  H   H1268     1.0  0.81621  0.36803  0.18064  1.0000
  C   C1599     1.0  0.75245  0.43252  0.19248  1.0000
  H   H1269     1.0  0.65528  0.42917  0.41079  1.0000
  H   H1270     1.0  0.72062  0.35928  0.36773  1.0000
  C   C1600     1.0  0.79162  0.43363  0.47366  1.0000
  H   H1271     1.0  0.68060  0.35208  0.42727  1.0000
  H   H1272     1.0  0.97117  0.50409  0.16099  1.0000
  H   H1273     1.0  0.82042  0.44106  0.44649  1.0000
  C   C1601     1.0  0.95535  0.51302  0.02740  1.0000
  H   H1274     1.0  0.86663  0.41095  0.14013  1.0000
  C   C1602     1.0  0.54774  0.51871  0.01571  1.0000
  C   C1603     1.0  0.84218  0.42968  0.16653  1.0000
  C   C1604     1.0  0.72298  0.35738  0.38967  1.0000
  C   C1605     1.0  0.77005  0.43873  0.28221  1.0000
  C   C1606     1.0  0.88067  0.49761  0.03451  1.0000
  H   H1275     1.0  0.54683  0.34678  0.02999  1.0000
  H   H1276     1.0  0.57448  0.43114  0.12593  1.0000
  C   C1607     1.0  0.76920  0.42573  0.25791  1.0000
  C   C1608     1.0  0.81118  0.43084  0.25187  1.0000
  H   H1277     1.0  0.61622  0.46782  0.47585  1.0000
  H   H1278     1.0  0.58559  0.33580  0.16405  1.0000
  C   C1609     1.0  0.60755  0.40610  0.06215  1.0000
  C   C1610     1.0  0.76926  0.42385  0.47609  1.0000
  P   P54       1.0  0.78869  0.40309  0.21264  1.0000
  C   C1611     1.0  0.57817  0.43281  0.08206  1.0000
  C   C1612     1.0  0.52788  0.42340  0.46236  1.0000
  C   C1613     1.0  0.96867  0.45285  0.02421  1.0000
  H   H1279     1.0  0.85002  0.37177  0.14957  1.0000
  C   C1614     1.0  0.72453  0.42080  0.15755  1.0000
  H   H1280     1.0  0.70299  0.48329  0.43531  1.0000
  H   H1281     1.0  0.79219  0.45690  0.31089  1.0000
  C   C1615     1.0  0.80861  0.37501  0.46893  1.0000
  H   H1282     1.0  0.62696  0.38459  0.09172  1.0000
  C   C1616     1.0  0.54053  0.41742  0.43881  1.0000
  C   C1617     1.0  0.97604  0.46406  0.00014  1.0000
  H   H1283     1.0  0.55712  0.65793  0.01960  1.0000
  H   H1284     1.0  0.56295  0.52607  0.02587  1.0000
  H   H1285     1.0  0.63571  0.34875  0.05975  1.0000
  H   H1286     1.0  0.95110  0.42292  0.04150  1.0000
  H   H1287     1.0  0.59482  0.35838  0.12294  1.0000
  H   H1288     1.0  0.90952  0.44552  0.02261  1.0000
  S   S219      1.0  0.49760  0.36187  0.13017  1.0000
  C   C1618     1.0  0.66987  0.39231  0.03383  1.0000
  H   H1289     1.0  0.94906  0.37280  0.18355  1.0000
  H   H1290     1.0  0.66892  0.40914  0.02333  1.0000
  C   C1619     1.0  0.95619  0.43182  0.02283  1.0000
  C   C1620     1.0  0.51811  0.48856  0.01277  1.0000
  Fe  Fe111     1.0  0.93627  0.33507  0.08335  1.0000
  H   H1291     1.0  0.80043  0.44058  0.49159  1.0000
  C   C1621     1.0  0.82031  0.37522  0.49431  1.0000
  C   C1622     1.0  0.53748  0.49836  0.02607  1.0000
  H   H1292     1.0  0.53569  0.52591  0.47847  1.0000
  H   H1293     1.0  0.53375  0.38319  0.00013  1.0000
  S   S220      1.0  0.61396  0.34072  0.30945  1.0000
  H   H1294     1.0  0.78369  0.34616  0.42881  1.0000
  H   H1295     1.0  0.99417  0.55137  0.07486  1.0000
  H   H1296     1.0  0.53748  0.33022  0.28964  1.0000
  C   C1623     1.0  0.99382  0.52411  0.04424  1.0000
  H   H1297     1.0  0.68460  0.40111  0.48685  1.0000
  C   C1624     1.0  0.53925  0.43416  0.48441  1.0000
  C   C1625     1.0  0.90301  0.46338  0.01900  1.0000
  H   H1298     1.0  0.94219  0.57915  0.47848  1.0000
  H   H1299     1.0  0.96299  0.43380  0.23838  1.0000
  C   C1626     1.0  0.97888  0.56900  0.48237  1.0000
  H   H1300     1.0  0.85467  0.43367  0.00752  1.0000
  C   C1627     1.0  0.64832  0.45491  0.49449  1.0000
  H   H1301     1.0  0.51097  0.47250  0.02099  1.0000
  H   H1302     1.0  0.98984  0.35782  0.17496  1.0000
  C   C1628     1.0  0.88039  0.40506  0.00728  1.0000
  C   C1629     1.0  0.62929  0.43733  0.01126  1.0000
  H   H1303     1.0  0.98694  0.47979  0.23694  1.0000
  C   C1630     1.0  0.61163  0.34990  0.00519  1.0000
  C   C1631     1.0  0.55038  0.51890  0.49045  1.0000
  H   H1304     1.0  0.53999  0.33039  0.17166  1.0000
  H   H1305     1.0  0.82133  0.33152  0.25706  1.0000
  Fe  Fe112     1.0  0.57256  0.48024  0.86057  1.0000
  S   S221      1.0  0.56591  0.44205  0.85004  1.0000
  S   S222      1.0  0.54077  0.50433  0.87086  1.0000
  Fe  Fe113     1.0  0.62606  0.46973  0.86996  1.0000
  S   S223      1.0  0.62196  0.43108  0.86165  1.0000
  S   S224      1.0  0.66114  0.48801  0.87741  1.0000
  Fe  Fe114     1.0  0.59957  0.44293  0.82569  1.0000
  S   S225      1.0  0.61210  0.42717  0.78487  1.0000
  Fe  Fe115     1.0  0.58869  0.43388  0.88685  1.0000
  S   S226      1.0  0.57634  0.40564  0.91673  1.0000
  S   S227      1.0  0.60464  0.48189  0.83348  1.0000
  S   S228      1.0  0.59457  0.47173  0.89806  1.0000
  Fe  Fe116     1.0  0.59784  0.36413  0.57577  1.0000
  S   S229      1.0  0.63481  0.35039  0.58134  1.0000
  S   S230      1.0  0.58008  0.36110  0.53380  1.0000
  Fe  Fe117     1.0  0.59310  0.37675  0.63733  1.0000
  S   S231      1.0  0.62977  0.36385  0.64696  1.0000
  S   S232      1.0  0.56928  0.39197  0.67088  1.0000
  Fe  Fe118     1.0  0.63937  0.38205  0.60805  1.0000
  S   S233      1.0  0.67214  0.40305  0.60529  1.0000
  H   H1306     1.0  0.51257  0.52774  0.96008  1.0000
  S   S234      1.0  0.60338  0.39752  0.59998  1.0000
  S   S235      1.0  0.58408  0.34430  0.61253  1.0000
  P   P55       1.0  0.52818  0.61593  0.93729  1.0000
  S   S236      1.0  0.96421  0.55741  0.86293  1.0000
  Fe  Fe119     1.0  0.80277  0.44892  0.86290  1.0000
  S   S237      1.0  0.82374  0.41503  0.85779  1.0000
  S   S238      1.0  0.76407  0.43955  0.87063  1.0000
  Fe  Fe120     1.0  0.84734  0.47776  0.85180  1.0000
  S   S239      1.0  0.87018  0.44531  0.84498  1.0000
  S   S240      1.0  0.86024  0.51593  0.84848  1.0000
  Fe  Fe121     1.0  0.83944  0.43157  0.82045  1.0000
  S   S241      1.0  0.83918  0.40551  0.78445  1.0000
  Fe  Fe122     1.0  0.85237  0.43132  0.88283  1.0000
  S   S242      1.0  0.87458  0.40883  0.91290  1.0000
  S   S243      1.0  0.81754  0.46491  0.82452  1.0000
  S   S244      1.0  0.83066  0.46428  0.89074  1.0000
  Fe  Fe123     1.0  0.83442  0.37664  0.62599  1.0000
  Fe  Fe124     1.0  0.98280  0.59334  0.86217  1.0000
  S   S245      1.0  0.84660  0.40669  0.65378  1.0000
  Fe  Fe125     1.0  0.81553  0.36489  0.56778  1.0000
  C   C1632     1.0  0.78427  0.37079  0.78416  1.0000
  H   H1307     1.0  0.88839  0.51300  0.79448  1.0000
  P   P56       1.0  0.75610  0.36442  0.73807  1.0000
  C   C1633     1.0  0.88082  0.47718  0.78293  1.0000
  H   H1308     1.0  0.51467  0.56731  0.92571  1.0000
  S   S246      1.0  0.79956  0.38276  0.60474  1.0000
  S   S247      1.0  0.85153  0.36212  0.58727  1.0000
  C   C1634     1.0  0.55394  0.44981  0.59086  1.0000
  H   H1309     1.0  0.67994  0.47472  0.81478  1.0000
  C   C1635     1.0  0.91441  0.39688  0.85556  1.0000
  C   C1636     1.0  0.63089  0.44684  0.96294  1.0000
  C   C1637     1.0  0.84037  0.40685  0.74807  1.0000
  C   C1638     1.0  0.84302  0.42802  0.73367  1.0000
  C   C1639     1.0  0.84465  0.42777  0.70482  1.0000
  C   C1640     1.0  0.84313  0.40647  0.69000  1.0000
  C   C1641     1.0  0.84007  0.38542  0.70441  1.0000
  C   C1642     1.0  0.83886  0.38561  0.73322  1.0000
  H   H1310     1.0  0.84390  0.44455  0.74468  1.0000
  H   H1311     1.0  0.84713  0.44414  0.69388  1.0000
  H   H1312     1.0  0.83933  0.36889  0.69339  1.0000
  H   H1313     1.0  0.83699  0.36910  0.74408  1.0000
  C   C1643     1.0  0.51692  0.43074  0.91085  1.0000
  C   C1644     1.0  0.89196  0.39163  0.96180  1.0000
  C   C1645     1.0  0.87654  0.40825  0.94931  1.0000
  C   C1646     1.0  0.86325  0.42354  0.96600  1.0000
  C   C1647     1.0  0.94965  0.47762  0.90848  1.0000
  H   H1314     1.0  0.90230  0.37969  0.94912  1.0000
  H   H1315     1.0  0.85133  0.43642  0.95674  1.0000
  C   C1648     1.0  0.93512  0.54647  0.85822  1.0000
  C   C1649     1.0  0.91544  0.56132  0.85371  1.0000
  C   C1650     1.0  0.89272  0.55167  0.85097  1.0000
  C   C1651     1.0  0.88927  0.52712  0.85281  1.0000
  C   C1652     1.0  0.90894  0.51231  0.85750  1.0000
  C   C1653     1.0  0.93167  0.52192  0.85999  1.0000
  H   H1316     1.0  0.91769  0.58022  0.85231  1.0000
  H   H1317     1.0  0.87769  0.56334  0.84730  1.0000
  H   H1318     1.0  0.90667  0.49341  0.85874  1.0000
  H   H1319     1.0  0.94673  0.51025  0.86332  1.0000
  C   C1654     1.0  0.69575  0.38491  0.61617  1.0000
  C   C1655     1.0  0.69202  0.36122  0.62282  1.0000
  C   C1656     1.0  0.55855  0.41964  0.54582  1.0000
  C   C1657     1.0  0.73391  0.35521  0.63092  1.0000
  C   C1658     1.0  0.73757  0.37899  0.62477  1.0000
  C   C1659     1.0  0.71852  0.39385  0.61739  1.0000
  H   H1320     1.0  0.67455  0.35412  0.62181  1.0000
  H   H1321     1.0  0.54681  0.54484  0.98369  1.0000
  H   H1322     1.0  0.75499  0.38607  0.62601  1.0000
  H   H1323     1.0  0.72148  0.41218  0.61236  1.0000
  H   H1324     1.0  0.79790  0.37610  0.77010  1.0000
  C   C1660     1.0  0.97041  0.40173  0.79045  1.0000
  C   C1661     1.0  0.92387  0.40806  0.83266  1.0000
  C   C1662     1.0  0.91575  0.40776  0.74517  1.0000
  C   C1663     1.0  0.68960  0.47434  0.87434  1.0000
  C   C1664     1.0  0.69293  0.44989  0.87690  1.0000
  C   C1665     1.0  0.71587  0.43981  0.87617  1.0000
  C   C1666     1.0  0.73576  0.45381  0.87189  1.0000
  C   C1667     1.0  0.73245  0.47826  0.86890  1.0000
  C   C1668     1.0  0.70950  0.48846  0.87037  1.0000
  H   H1325     1.0  0.67789  0.43880  0.88019  1.0000
  H   H1326     1.0  0.71823  0.42097  0.87906  1.0000
  H   H1327     1.0  0.74754  0.48932  0.86581  1.0000
  H   H1328     1.0  0.70716  0.50742  0.86850  1.0000
  C   C1669     1.0  0.59932  0.41695  0.75384  1.0000
  C   C1670     1.0  0.61451  0.41047  0.73231  1.0000
  C   C1671     1.0  0.60556  0.40268  0.70699  1.0000
  C   C1672     1.0  0.58121  0.40106  0.70290  1.0000
  C   C1673     1.0  0.56598  0.40711  0.72461  1.0000
  C   C1674     1.0  0.57495  0.41503  0.74997  1.0000
  H   H1329     1.0  0.63335  0.41163  0.73521  1.0000
  H   H1330     1.0  0.61752  0.39821  0.69056  1.0000
  H   H1331     1.0  0.54714  0.40551  0.72188  1.0000
  H   H1332     1.0  0.56307  0.41932  0.76656  1.0000
  C   C1675     1.0  0.55273  0.39329  0.96371  1.0000
  C   C1676     1.0  0.56394  0.41155  0.94955  1.0000
  C   C1677     1.0  0.56523  0.43381  0.96193  1.0000
  C   C1678     1.0  0.76806  0.38974  0.72089  1.0000
  H   H1333     1.0  0.55158  0.37601  0.95436  1.0000
  H   H1334     1.0  0.57387  0.44802  0.95143  1.0000
  H   H1335     1.0  0.76494  0.37436  0.68043  1.0000
  C   C1679     1.0  0.54984  0.41108  0.57055  1.0000
  C   C1680     1.0  0.51416  0.55525  0.81878  1.0000
  C   C1681     1.0  0.52849  0.53682  0.82977  1.0000
  C   C1682     1.0  0.52385  0.52789  0.85586  1.0000
  H   H1336     1.0  0.63382  0.45946  0.94664  1.0000
  H   H1337     1.0  0.61554  0.34836  0.71104  1.0000
  H   H1338     1.0  0.54301  0.52946  0.81805  1.0000
  C   C1683     1.0  0.49584  0.42590  0.92423  1.0000
  H   H1339     1.0  0.65400  0.50895  0.82452  1.0000
  C   C1684     1.0  0.77469  0.40992  0.73561  1.0000
  C   C1685     1.0  0.78419  0.42921  0.72196  1.0000
  C   C1686     1.0  0.78675  0.42870  0.69353  1.0000
  C   C1687     1.0  0.77968  0.40895  0.67870  1.0000
  H   H1340     1.0  0.65663  0.40346  0.81970  1.0000
  H   H1341     1.0  0.62137  0.38870  0.51941  1.0000
  C   C1688     1.0  0.96898  0.43399  0.75781  1.0000
  H   H1342     1.0  0.79026  0.44424  0.73357  1.0000
  H   H1343     1.0  0.79489  0.44328  0.68302  1.0000
  H   H1344     1.0  0.78222  0.40839  0.65674  1.0000
  H   H1345     1.0  0.66180  0.43463  0.78528  1.0000
  P   P57       1.0  0.51037  0.48341  0.76048  1.0000
  H   H1346     1.0  0.73643  0.47498  0.72231  1.0000
  H   H1347     1.0  0.51768  0.56182  0.79844  1.0000
  H   H1348     1.0  0.62308  0.41841  0.93529  1.0000
  H   H1349     1.0  0.91007  0.35469  0.71272  1.0000
  H   H1350     1.0  0.56079  0.40755  0.52879  1.0000
  C   C1689     1.0  0.76193  0.36443  0.77446  1.0000
  C   C1690     1.0  0.77016  0.38961  0.69226  1.0000
  S   S248      1.0  0.80312  0.37414  0.52452  1.0000
  H   H1351     1.0  0.98489  0.62640  0.52518  1.0000
  H   H1352     1.0  0.53794  0.53050  0.91872  1.0000
  H   H1353     1.0  0.60903  0.42854  0.55106  1.0000
  H   H1354     1.0  0.52991  0.53124  0.75420  1.0000
  C   C1691     1.0  0.52025  0.61602  0.88059  1.0000
  H   H1355     1.0  0.87003  0.36741  0.82436  1.0000
  C   C1692     1.0  0.50827  0.45591  0.83779  1.0000
  C   C1693     1.0  0.90161  0.38856  0.69482  1.0000
  H   H1356     1.0  0.87835  0.44022  0.77349  1.0000
  C   C1694     1.0  0.73400  0.37559  0.53419  1.0000
  C   C1695     1.0  0.50708  0.46738  0.72863  1.0000
  H   H1357     1.0  0.91513  0.46404  0.97761  1.0000
  C   C1696     1.0  0.57286  0.48521  0.50832  1.0000
  C   C1697     1.0  0.83795  0.53160  0.91283  1.0000
  C   C1698     1.0  0.82039  0.51788  0.92438  1.0000
  C   C1699     1.0  0.82624  0.50143  0.94474  1.0000
  C   C1700     1.0  0.84964  0.49872  0.95355  1.0000
  C   C1701     1.0  0.86735  0.51303  0.94268  1.0000
  C   C1702     1.0  0.86131  0.52919  0.92186  1.0000
  P   P58       1.0  0.89761  0.50940  0.95430  1.0000
  C   C1703     1.0  0.86515  0.42189  0.99481  1.0000
  C   C1704     1.0  0.91329  0.48970  0.93127  1.0000
  P   P59       1.0  0.92549  0.41992  0.77739  1.0000
  H   H1358     1.0  0.95906  0.44669  0.74549  1.0000
  C   C1705     1.0  0.91438  0.44979  0.78170  1.0000
  C   C1706     1.0  0.91394  0.45606  0.90040  1.0000
  C   C1707     1.0  0.90161  0.47113  0.91825  1.0000
  C   C1708     1.0  0.66154  0.51773  0.75624  1.0000
  H   H1359     1.0  0.72877  0.34276  0.69372  1.0000
  H   H1360     1.0  0.79989  0.35328  0.70742  1.0000
  H   H1361     1.0  0.80636  0.37614  0.81944  1.0000
  C   C1709     1.0  0.91226  0.53766  0.95450  1.0000
  C   C1710     1.0  0.91868  0.54807  0.92959  1.0000
  C   C1711     1.0  0.93048  0.56952  0.92917  1.0000
  C   C1712     1.0  0.53377  0.56780  0.92659  1.0000
  H   H1362     1.0  0.93529  0.57888  0.99765  1.0000
  C   C1713     1.0  0.89385  0.38998  0.99055  1.0000
  H   H1363     1.0  0.83366  0.54359  0.89614  1.0000
  H   H1364     1.0  0.80241  0.51940  0.91686  1.0000
  C   C1714     1.0  0.56726  0.52714  0.75935  1.0000
  H   H1365     1.0  0.54443  0.45947  0.72288  1.0000
  H   H1366     1.0  0.87447  0.53967  0.91196  1.0000
  H   H1367     1.0  0.73728  0.42990  0.79747  1.0000
  H   H1368     1.0  0.70662  0.37195  0.56408  1.0000
  H   H1369     1.0  0.90481  0.44193  0.89020  1.0000
  H   H1370     1.0  0.88304  0.46822  0.92175  1.0000
  C   C1715     1.0  0.52784  0.45233  0.91516  1.0000
  C   C1716     1.0  0.65346  0.52156  0.78291  1.0000
  H   H1371     1.0  0.91485  0.53941  0.91039  1.0000
  H   H1372     1.0  0.54555  0.39255  0.57238  1.0000
  H   H1373     1.0  0.92133  0.40029  0.87587  1.0000
  C   C1717     1.0  0.90110  0.41302  0.69869  1.0000
  H   H1374     1.0  0.59683  0.53726  0.52872  1.0000
  H   H1375     1.0  0.60306  0.49416  0.53335  1.0000
  H   H1376     1.0  0.58144  0.53100  0.91827  1.0000
  H   H1377     1.0  0.73176  0.40008  0.83292  1.0000
  C   C1718     1.0  0.58832  0.50085  0.52124  1.0000
  C   C1719     1.0  0.54580  0.63726  0.95532  1.0000
  H   H1378     1.0  0.96175  0.38905  0.80337  1.0000
  H   H1379     1.0  0.52566  0.59756  0.88048  1.0000
  C   C1720     1.0  0.89568  0.49544  0.79064  1.0000
  C   C1721     1.0  0.93787  0.45934  0.89539  1.0000
  H   H1380     1.0  0.86201  0.48056  0.78097  1.0000
  H   H1381     1.0  0.89541  0.38122  0.67563  1.0000
  H   H1382     1.0  0.95191  0.42625  0.95372  1.0000
  C   C1722     1.0  0.71669  0.35264  0.70677  1.0000
  H   H1383     1.0  0.90738  0.44164  0.72627  1.0000
  C   C1723     1.0  0.88552  0.37817  0.82662  1.0000
  C   C1724     1.0  0.91450  0.40393  0.80646  1.0000
  H   H1384     1.0  0.69157  0.38611  0.84397  1.0000
  H   H1385     1.0  0.68283  0.49575  0.72987  1.0000
  H   H1386     1.0  0.88745  0.37390  0.87039  1.0000
  C   C1725     1.0  0.55549  0.43767  0.98811  1.0000
  H   H1387     1.0  0.57046  0.54574  0.75609  1.0000
  C   C1726     1.0  0.89508  0.38911  0.80367  1.0000
  C   C1727     1.0  0.79150  0.33697  0.71291  1.0000
  H   H1388     1.0  0.65851  0.36873  0.70975  1.0000
  S   S249      1.0  0.75754  0.33616  0.63943  1.0000
  H   H1389     1.0  0.88662  0.38663  0.78401  1.0000
  Fe  Fe126     1.0  0.62185  0.33306  0.61967  1.0000
  C   C1728     1.0  0.57009  0.58929  0.93160  1.0000
  C   C1729     1.0  0.58309  0.56838  0.92693  1.0000
  C   C1730     1.0  0.67626  0.49823  0.75048  1.0000
  H   H1390     1.0  0.67753  0.44086  0.51825  1.0000
  H   H1391     1.0  0.52505  0.41770  0.89742  1.0000
  C   C1731     1.0  0.51820  0.46880  0.93346  1.0000
  C   C1732     1.0  0.69308  0.38669  0.52635  1.0000
  C   C1733     1.0  0.68516  0.37964  0.73843  1.0000
  H   H1392     1.0  0.57950  0.60547  0.93499  1.0000
  H   H1393     1.0  0.60220  0.56859  0.92661  1.0000
  C   C1734     1.0  0.93749  0.49260  0.92654  1.0000
  C   C1735     1.0  0.93637  0.58068  0.95368  1.0000
  C   C1736     1.0  0.52377  0.44463  0.69083  1.0000
  C   C1737     1.0  0.57146  0.54720  0.92230  1.0000
  C   C1738     1.0  0.98503  0.52706  0.96465  1.0000
  H   H1394     1.0  0.71531  0.38870  0.76264  1.0000
  C   C1739     1.0  0.66776  0.43330  0.69693  1.0000
  C   C1740     1.0  0.68558  0.42170  0.68215  1.0000
  C   C1741     1.0  0.70871  0.42121  0.69213  1.0000
  C   C1742     1.0  0.71407  0.43254  0.71680  1.0000
  C   C1743     1.0  0.69644  0.44492  0.73133  1.0000
  C   C1744     1.0  0.67308  0.44462  0.72160  1.0000
  P   P60       1.0  0.70300  0.45809  0.76413  1.0000
  C   C1745     1.0  0.69981  0.43492  0.78907  1.0000
  C   C1746     1.0  0.73161  0.47145  0.76614  1.0000
  C   C1747     1.0  0.74105  0.47712  0.79190  1.0000
  C   C1748     1.0  0.76300  0.48776  0.79399  1.0000
  C   C1749     1.0  0.77550  0.49335  0.77036  1.0000
  C   C1750     1.0  0.76581  0.48867  0.74459  1.0000
  C   C1751     1.0  0.74384  0.47794  0.74244  1.0000
  C   C1752     1.0  0.67721  0.42688  0.79522  1.0000
  C   C1753     1.0  0.67426  0.40912  0.81470  1.0000
  C   C1754     1.0  0.69391  0.39927  0.82818  1.0000
  C   C1755     1.0  0.71652  0.40695  0.82181  1.0000
  C   C1756     1.0  0.71954  0.42447  0.80208  1.0000
  C   C1757     1.0  0.68270  0.48223  0.77131  1.0000
  C   C1758     1.0  0.67469  0.48633  0.79809  1.0000
  H   H1395     1.0  0.64975  0.43325  0.68937  1.0000
  H   H1396     1.0  0.68139  0.41280  0.66315  1.0000
  H   H1397     1.0  0.72237  0.41173  0.68088  1.0000
  H   H1398     1.0  0.73189  0.43142  0.72463  1.0000
  H   H1399     1.0  0.65887  0.45284  0.73320  1.0000
  H   H1400     1.0  0.73148  0.47322  0.81047  1.0000
  H   H1401     1.0  0.77030  0.49162  0.81403  1.0000
  H   H1402     1.0  0.79260  0.50149  0.77209  1.0000
  H   H1403     1.0  0.77535  0.49340  0.72628  1.0000
  H   H1404     1.0  0.93112  0.50499  0.80117  1.0000
  C   C1759     1.0  0.50463  0.59237  0.97890  1.0000
  C   C1760     1.0  0.56488  0.44339  0.54330  1.0000
  C   C1761     1.0  0.51924  0.62907  0.90505  1.0000
  C   C1762     1.0  0.66004  0.50587  0.80377  1.0000
  C   C1763     1.0  0.78925  0.37052  0.81218  1.0000
  H   H1405     1.0  0.85381  0.48514  0.96852  1.0000
  H   H1406     1.0  0.92343  0.37146  0.75677  1.0000
  H   H1407     1.0  0.52131  0.58338  0.98297  1.0000
  H   H1408     1.0  0.49900  0.43105  0.66158  1.0000
  H   H1409     1.0  0.93813  0.42029  0.83541  1.0000
  S   S250      1.0  0.98245  0.62354  0.83146  1.0000
  C   C1764     1.0  0.51404  0.62677  0.85573  1.0000
  H   H1410     1.0  0.94717  0.44783  0.88120  1.0000
  H   H1411     1.0  0.65666  0.53004  0.74011  1.0000
  H   H1412     1.0  0.64229  0.53679  0.78756  1.0000
  C   C1765     1.0  0.54530  0.58913  0.93151  1.0000
  C   C1766     1.0  0.54439  0.63967  0.98390  1.0000
  C   C1767     1.0  0.92911  0.46806  0.79035  1.0000
  H   H1413     1.0  0.77272  0.41093  0.75759  1.0000
  C   C1768     1.0  0.53858  0.52932  0.99201  1.0000
  C   C1769     1.0  0.58482  0.52530  0.51872  1.0000
  H   H1414     1.0  0.94696  0.50662  0.93645  1.0000
  C   C1770     1.0  0.58196  0.48762  0.76926  1.0000
  C   C1771     1.0  0.71081  0.37756  0.54353  1.0000
  C   C1772     1.0  0.98750  0.53818  0.93925  1.0000
  C   C1773     1.0  0.72496  0.36452  0.73007  1.0000
  C   C1774     1.0  0.95684  0.43361  0.97338  1.0000
  H   H1415     1.0  0.74781  0.36854  0.54754  1.0000
  H   H1416     1.0  0.93537  0.57730  0.90975  1.0000
  Fe  Fe127     1.0  0.98712  0.64725  0.86838  1.0000
  C   C1775     1.0  0.58614  0.51151  0.76458  1.0000
  C   C1776     1.0  0.51915  0.51957  0.97869  1.0000
  H   H1417     1.0  0.51467  0.61660  0.83694  1.0000
  C   C1777     1.0  0.62495  0.42365  0.95653  1.0000
  C   C1778     1.0  0.98351  0.61045  0.51306  1.0000
  H   H1418     1.0  0.52220  0.48662  0.81849  1.0000
  C   C1779     1.0  0.89524  0.38195  0.85252  1.0000
  H   H1419     1.0  0.67509  0.38803  0.53373  1.0000
  C   C1780     1.0  0.61278  0.38338  0.50068  1.0000
  H   H1420     1.0  0.81276  0.49016  0.95297  1.0000
  H   H1421     1.0  0.73739  0.34944  0.83558  1.0000
  C   C1781     1.0  0.89012  0.45442  0.77862  1.0000
  Fe  Fe128     1.0  0.79159  0.34642  0.61962  1.0000
  C   C1782     1.0  0.61965  0.43603  0.53506  1.0000
  H   H1422     1.0  0.98880  0.65679  0.77602  1.0000
  C   C1783     1.0  0.54275  0.39725  0.98977  1.0000
  C   C1784     1.0  0.77227  0.36311  0.83074  1.0000
  H   H1423     1.0  0.54415  0.45610  0.90476  1.0000
  C   C1785     1.0  0.91979  0.49088  0.79442  1.0000
  H   H1424     1.0  0.89460  0.42446  0.68239  1.0000
  H   H1425     1.0  0.77615  0.36324  0.85250  1.0000
  C   C1786     1.0  0.54766  0.42612  0.59315  1.0000
  C   C1787     1.0  0.65852  0.44282  0.51664  1.0000
  H   H1426     1.0  0.52711  0.48534  0.93646  1.0000
  C   C1788     1.0  0.91703  0.38322  0.74078  1.0000
  C   C1789     1.0  0.90810  0.42264  0.72375  1.0000
  H   H1427     1.0  0.53903  0.43679  0.68067  1.0000
  C   C1790     1.0  0.90969  0.37366  0.71580  1.0000
  C   C1791     1.0  0.62095  0.40729  0.97740  1.0000
  C   C1792     1.0  0.71106  0.34643  0.63034  1.0000
  H   H1428     1.0  0.68642  0.34486  0.68165  1.0000
  S   S251      1.0  0.82558  0.34086  0.64243  1.0000
  C   C1793     1.0  0.54686  0.54694  0.92236  1.0000
  C   C1794     1.0  0.59787  0.33053  0.99815  1.0000
  H   H1429     1.0  0.62966  0.35055  0.99802  1.0000
  C   C1795     1.0  0.70911  0.37847  0.74545  1.0000
  H   H1430     1.0  0.67304  0.39052  0.75034  1.0000
  H   H1431     1.0  0.65207  0.42423  0.55430  1.0000
  H   H1432     1.0  0.59661  0.47547  0.77324  1.0000
  H   H1433     1.0  0.94765  0.46479  0.79437  1.0000
  H   H1434     1.0  0.50100  0.53091  0.89090  1.0000
  C   C1796     1.0  0.95726  0.41874  0.77563  1.0000
  C   C1797     1.0  0.67697  0.36737  0.71556  1.0000
  C   C1798     1.0  0.95026  0.42221  0.99745  1.0000
  H   H1435     1.0  0.61594  0.38959  0.97177  1.0000
  C   C1799     1.0  0.74524  0.35609  0.79312  1.0000
  H   H1436     1.0  0.56764  0.47673  0.56487  1.0000
  C   C1800     1.0  0.75041  0.35550  0.82117  1.0000
  C   C1801     1.0  0.53988  0.49475  0.76295  1.0000
  H   H1437     1.0  0.97502  0.46261  0.95581  1.0000
  C   C1802     1.0  0.64418  0.43344  0.53693  1.0000
  H   H1438     1.0  0.75749  0.38073  0.50068  1.0000
  C   C1803     1.0  0.91847  0.54894  0.97906  1.0000
  H   H1439     1.0  0.60400  0.51788  0.76520  1.0000
  C   C1804     1.0  0.90604  0.47397  0.99342  1.0000
  H   H1440     1.0  0.55681  0.45490  0.99748  1.0000
  C   C1805     1.0  0.52675  0.45756  0.71498  1.0000
  H   H1441     1.0  0.57873  0.34316  0.68459  1.0000
  C   C1806     1.0  0.60933  0.33069  0.70696  1.0000
  C   C1807     1.0  0.60919  0.44817  0.51288  1.0000
  H   H1442     1.0  0.96813  0.48045  0.90434  1.0000
  H   H1443     1.0  0.50081  0.65848  0.83596  1.0000
  C   C1808     1.0  0.55891  0.47935  0.76908  1.0000
  H   H1444     1.0  0.68123  0.33515  0.55185  1.0000
  C   C1809     1.0  0.56251  0.45846  0.56603  1.0000
  C   C1810     1.0  0.69272  0.35392  0.69973  1.0000
  C   C1811     1.0  0.54421  0.51879  0.75833  1.0000
  H   H1445     1.0  0.54166  0.41923  0.61259  1.0000
  H   H1446     1.0  0.55600  0.46085  0.77327  1.0000
  C   C1812     1.0  0.63297  0.45371  0.99031  1.0000
  H   H1447     1.0  0.94571  0.59722  0.95323  1.0000
  C   C1813     1.0  0.56170  0.65119  0.94076  1.0000
  H   H1448     1.0  0.56318  0.55328  0.50134  1.0000
  H   H1449     1.0  0.56330  0.64945  0.91873  1.0000
  H   H1450     1.0  0.72833  0.34990  0.78611  1.0000
  C   C1814     1.0  0.50643  0.65041  0.85511  1.0000
  C   C1815     1.0  0.50585  0.46361  0.78891  1.0000
  H   H1451     1.0  0.94050  0.40595  0.99650  1.0000
  H   H1452     1.0  0.94625  0.61583  0.50584  1.0000
  C   C1816     1.0  0.49682  0.43451  0.83411  1.0000
  H   H1453     1.0  0.55256  0.46134  0.60852  1.0000
  C   C1817     1.0  0.50489  0.53776  0.87081  1.0000
  P   P61       1.0  0.57760  0.45365  0.51167  1.0000
  C   C1818     1.0  0.49742  0.46380  0.94766  1.0000
  H   H1454     1.0  0.49879  0.64436  0.75438  1.0000
  C   C1819     1.0  0.96983  0.45437  0.97469  1.0000
  C   C1820     1.0  0.50872  0.49909  0.98896  1.0000
  C   C1821     1.0  0.51309  0.47021  0.81527  1.0000
  C   C1822     1.0  0.76988  0.33712  0.72684  1.0000
  H   H1455     1.0  0.85422  0.37655  0.51420  1.0000
  S   S252      1.0  0.98422  0.61742  0.89917  1.0000
  H   H1456     1.0  0.51365  0.46142  0.85810  1.0000
  C   C1823     1.0  0.89639  0.49660  0.98820  1.0000
  C   C1824     1.0  0.93048  0.57033  0.97863  1.0000
  H   H1457     1.0  0.97920  0.55527  0.93540  1.0000
  H   H1458     1.0  0.97474  0.53592  0.98030  1.0000
  H   H1459     1.0  0.91436  0.54132  0.99858  1.0000
  C   C1825     1.0  0.50259  0.60901  0.95759  1.0000
  C   C1826     1.0  0.49525  0.56515  0.83382  1.0000
  C   C1827     1.0  0.59282  0.36929  0.50200  1.0000
  C   C1828     1.0  0.50121  0.44134  0.68012  1.0000
  C   C1829     1.0  0.73951  0.38286  0.50770  1.0000
  H   H1460     1.0  0.63758  0.47171  0.99523  1.0000
  C   C1830     1.0  0.99357  0.43292  0.75574  1.0000
  C   C1831     1.0  0.51182  0.65293  0.90420  1.0000
  H   H1461     1.0  0.52906  0.43892  0.50235  1.0000
  C   C1832     1.0  0.56587  0.53433  0.50332  1.0000
  C   C1833     1.0  0.96153  0.60447  0.50222  1.0000
  H   H1462     1.0  0.53243  0.62913  0.99571  1.0000
  C   C1834     1.0  0.69860  0.39422  0.49988  1.0000
  C   C1835     1.0  0.55841  0.65602  0.99758  1.0000
  H   H1463     1.0  0.99463  0.95254  0.13977  1.0000
  H   H1464     1.0  0.58642  0.97848  0.19742  1.0000
  C   C1836     1.0  0.92016  0.98830  0.13030  1.0000
  C   C1837     1.0  0.50128  0.97465  0.00526  1.0000
  H   H1465     1.0  0.96156  0.94213  0.05087  1.0000
  H   H1466     1.0  0.90827  0.97604  0.13983  1.0000
  H   H1467     1.0  0.49585  0.99472  0.04230  1.0000
  H   H1468     1.0  0.87415  0.97917  0.02494  1.0000
  P   P62       1.0  0.95537  0.99391  0.05762  1.0000
  C   C1838     1.0  0.92850  0.98399  0.10379  1.0000
  C   C1839     1.0  0.62354  0.98517  0.20160  1.0000
  H   H1469     1.0  0.92325  0.96811  0.09318  1.0000
  C   C1840     1.0  0.97781  0.94935  0.05860  1.0000
  H   H1470     1.0  0.62806  0.96720  0.20764  1.0000
  C   C1841     1.0  0.97981  0.97370  0.06360  1.0000
  C   C1842     1.0  0.60009  0.99152  0.19583  1.0000
  H   H1471     1.0  0.95953  0.96733  0.00648  1.0000
  C   C1843     1.0  0.94097  0.96965  0.01101  1.0000
  H   H1472     1.0  0.51806  0.98262  0.00125  1.0000
  C   C1844     1.0  0.93367  0.98194  0.03458  1.0000
  C   C1845     1.0  0.89282  0.97622  0.02128  1.0000
  C   C1846     1.0  0.90946  0.98577  0.03918  1.0000
  H   H1473     1.0  0.99150  0.68405  0.81554  1.0000
  H   H1474     1.0  0.82156  0.93454  0.73218  1.0000
  S   S253      1.0  0.96291  0.89939  0.87500  1.0000
  H   H1475     1.0  0.77742  0.97623  0.88471  1.0000
  C   C1847     1.0  0.58611  0.96896  0.95286  1.0000
  C   C1848     1.0  0.91265  0.95917  0.84266  1.0000
  C   C1849     1.0  0.92975  0.94874  0.82532  1.0000
  C   C1850     1.0  0.94566  0.93096  0.83490  1.0000
  C   C1851     1.0  0.94436  0.92287  0.86193  1.0000
  C   C1852     1.0  0.92726  0.93332  0.87928  1.0000
  C   C1853     1.0  0.91174  0.95151  0.86988  1.0000
  H   H1476     1.0  0.93056  0.95433  0.80418  1.0000
  H   H1477     1.0  0.95855  0.92314  0.82118  1.0000
  H   H1478     1.0  0.92581  0.92707  0.90011  1.0000
  H   H1479     1.0  0.89853  0.95901  0.88341  1.0000
  H   H1480     1.0  0.75569  0.96094  0.84460  1.0000
  H   H1481     1.0  0.88343  0.89844  0.85068  1.0000
  C   C1854     1.0  0.52328  0.92049  0.85321  1.0000
  H   H1482     1.0  0.96988  0.77071  0.87455  1.0000
  C   C1855     1.0  0.51782  0.96330  0.85543  1.0000
  C   C1856     1.0  0.54235  0.96674  0.85559  1.0000
  C   C1857     1.0  0.55735  0.94680  0.85466  1.0000
  C   C1858     1.0  0.54785  0.92386  0.85337  1.0000
  C   C1859     1.0  0.55269  0.95522  0.97883  1.0000
  H   H1483     1.0  0.58750  0.96018  0.99571  1.0000
  C   C1860     1.0  0.49531  0.98604  0.92169  1.0000
  C   C1861     1.0  0.87290  0.92589  0.77878  1.0000
  H   H1484     1.0  0.51636  0.88546  0.78877  1.0000
  S   S254      1.0  0.96874  0.68346  0.87325  1.0000
  C   C1862     1.0  0.83117  0.97003  0.77027  1.0000
  H   H1485     1.0  0.58780  0.67831  0.94309  1.0000
  H   H1486     1.0  0.82090  0.97825  0.88376  1.0000
  C   C1863     1.0  0.85288  0.98137  0.76833  1.0000
  C   C1864     1.0  0.98272  0.76990  0.76791  1.0000
  C   C1865     1.0  0.96455  0.77222  0.74843  1.0000
  C   C1866     1.0  0.94352  0.78423  0.75509  1.0000
  C   C1867     1.0  0.94041  0.79369  0.78132  1.0000
  C   C1868     1.0  0.95824  0.79099  0.80097  1.0000
  C   C1869     1.0  0.97924  0.77899  0.79438  1.0000
  H   H1487     1.0  0.97836  0.97306  0.83744  1.0000
  H   H1488     1.0  0.53390  0.92341  0.77501  1.0000
  C   C1870     1.0  0.57646  0.96140  0.97758  1.0000
  C   C1871     1.0  0.99445  0.97819  0.96502  1.0000
  C   C1872     1.0  0.92430  0.96020  0.99311  1.0000
  H   H1489     1.0  0.49922  0.90962  0.99524  1.0000
  C   C1873     1.0  0.99230  0.67535  0.77264  1.0000
  C   C1874     1.0  0.78719  0.95316  0.82129  1.0000
  H   H1490     1.0  0.60448  0.97387  0.95182  1.0000
  C   C1875     1.0  0.50034  0.94179  0.77144  1.0000
  C   C1876     1.0  0.51111  0.86779  0.94717  1.0000
  C   C1877     1.0  0.81197  0.95358  0.82089  1.0000
  H   H1491     1.0  0.90730  0.91140  0.76894  1.0000
  C   C1878     1.0  0.70410  0.98113  0.59695  1.0000
  H   H1492     1.0  0.51070  0.66333  0.92279  1.0000
  H   H1493     1.0  0.96662  0.76469  0.72818  1.0000
  H   H1494     1.0  0.92957  0.78609  0.73998  1.0000
  H   H1495     1.0  0.92413  0.80296  0.78652  1.0000
  H   H1496     1.0  0.95585  0.79806  0.82144  1.0000
  H   H1497     1.0  0.67915  0.98934  0.56524  1.0000
  H   H1498     1.0  0.99278  0.67219  0.72878  1.0000
  C   C1879     1.0  0.81148  0.92209  0.77234  1.0000
  C   C1880     1.0  0.81136  0.97987  0.75677  1.0000
  H   H1499     1.0  0.50607  0.97853  0.85628  1.0000
  C   C1881     1.0  0.97843  0.93511  0.94469  1.0000
  C   C1882     1.0  0.77481  0.96102  0.84437  1.0000
  H   H1500     1.0  0.86824  0.97470  0.77922  1.0000
  C   C1883     1.0  0.96964  0.98666  0.84958  1.0000
  S   S255      1.0  0.51212  0.89116  0.85196  1.0000
  H   H1501     1.0  0.98418  0.97392  0.88727  1.0000
  H   H1502     1.0  0.55965  0.90861  0.85261  1.0000
  C   C1884     1.0  0.79988  0.90397  0.72934  1.0000
  C   C1885     1.0  0.98281  0.71124  0.86988  1.0000
  H   H1503     1.0  0.50916  0.99580  0.93159  1.0000
  C   C1886     1.0  0.50832  0.94044  0.85428  1.0000
  H   H1504     1.0  0.52163  0.87470  0.90571  1.0000
  H   H1505     1.0  0.77866  0.87291  0.73260  1.0000
  C   C1887     1.0  0.57402  0.66996  0.98289  1.0000
  H   H1506     1.0  0.70589  0.96272  0.59100  1.0000
  P   P63       1.0  0.82800  0.94382  0.79095  1.0000
  C   C1888     1.0  0.54838  0.96386  0.93053  1.0000
  H   H1507     1.0  0.51930  0.91807  0.91070  1.0000
  C   C1889     1.0  0.51651  0.88242  0.92515  1.0000
  H   H1508     1.0  0.51187  0.84876  0.94466  1.0000
  S   S256      1.0  0.89181  0.98013  0.82860  1.0000
  H   H1509     1.0  0.57626  0.94903  0.85488  1.0000
  C   C1890     1.0  0.97718  0.97810  0.94428  1.0000
  C   C1891     1.0  0.50474  0.87775  0.97233  1.0000
  H   H1510     1.0  0.50830  0.95806  0.76490  1.0000
  C   C1892     1.0  0.81161  0.97079  0.86647  1.0000
  H   H1511     1.0  0.79427  0.97183  0.75869  1.0000
  H   H1512     1.0  0.77899  0.87291  0.78341  1.0000
  H   H1513     1.0  0.84309  0.96465  0.84301  1.0000
  H   H1514     1.0  0.50806  0.68574  0.74200  1.0000
  C   C1893     1.0  0.51509  0.90700  0.92803  1.0000
  H   H1515     1.0  0.58482  0.68266  0.99351  1.0000
  C   C1894     1.0  0.85934  0.91844  0.82488  1.0000
  H   H1516     1.0  0.84609  0.91978  0.84068  1.0000
  C   C1895     1.0  0.98023  0.75469  0.87135  1.0000
  C   C1896     1.0  0.85569  0.92901  0.79913  1.0000
  C   C1897     1.0  0.97266  0.98705  0.87798  1.0000
  C   C1898     1.0  0.79998  0.90414  0.78659  1.0000
  H   H1517     1.0  0.97709  0.71357  0.94359  1.0000
  H   H1518     1.0  0.77734  0.94705  0.80372  1.0000
  H   H1519     1.0  0.53810  0.96422  0.91184  1.0000
  C   C1899     1.0  0.96880  0.95638  0.93479  1.0000
  H   H1520     1.0  0.57956  0.97536  0.90992  1.0000
  C   C1900     1.0  0.53825  0.95718  0.95547  1.0000
  C   C1901     1.0  0.78704  0.96966  0.86702  1.0000
  C   C1902     1.0  0.50541  0.66350  0.87933  1.0000
  C   C1903     1.0  0.89380  0.91322  0.78445  1.0000
  C   C1904     1.0  0.89750  0.90324  0.81031  1.0000
  H   H1521     1.0  0.87023  0.93331  0.75856  1.0000
  H   H1522     1.0  0.80037  0.90366  0.80877  1.0000
  H   H1523     1.0  0.91390  0.89384  0.81492  1.0000
  C   C1905     1.0  0.81185  0.92155  0.74360  1.0000
  C   C1906     1.0  0.78800  0.88661  0.77228  1.0000
  H   H1524     1.0  0.95113  0.73143  0.87888  1.0000
  C   C1907     1.0  0.88031  0.90589  0.83052  1.0000
  C   C1908     1.0  0.78785  0.88658  0.74367  1.0000
  H   H1525     1.0  0.50071  0.86638  0.98944  1.0000
  H   H1526     1.0  0.80014  0.90370  0.70716  1.0000
  H   H1527     1.0  0.97243  0.91843  0.93643  1.0000
  C   C1909     1.0  0.96964  0.73236  0.87383  1.0000
  H   H1528     1.0  0.93003  0.95065  0.97501  1.0000
  H   H1529     1.0  0.95507  0.95587  0.91934  1.0000
  C   C1910     1.0  0.51492  0.92208  0.77664  1.0000
  H   H1530     1.0  0.61506  0.98455  0.52396  1.0000
  H   H1531     1.0  0.91680  0.99116  0.91603  1.0000
  C   C1911     1.0  0.57209  0.96996  0.92930  1.0000
  C   C1912     1.0  0.82407  0.96300  0.84340  1.0000
  H   H1532     1.0  0.49915  0.68174  0.87885  1.0000
  C   C1913     1.0  0.50364  0.90234  0.97541  1.0000
  C   C1914     1.0  0.50838  0.91714  0.95308  1.0000
  H   H1533     1.0  0.72898  0.97783  0.63029  1.0000
  H   H1534     1.0  0.88734  0.95615  0.98435  1.0000
  P   P64       1.0  0.50764  0.94888  0.95669  1.0000
  H   H1535     1.0  0.99262  0.77677  0.81010  1.0000
  C   C1915     1.0  0.57568  0.66752  0.95450  1.0000
  C   C1916     1.0  0.71715  0.98964  0.61907  1.0000
  C   C1917     1.0  0.50505  0.90066  0.78425  1.0000
  C   C1918     1.0  0.99410  0.69067  0.79494  1.0000
  H   H1536     1.0  0.54564  0.94877  0.99793  1.0000
  C   C1919     1.0  0.90024  0.96330  0.99838  1.0000
  C   C1920     1.0  0.99469  0.68405  0.74605  1.0000
