data_image0
_chemical_formula_structural       FeS2FeS2FeSFeCS2HFeS2HFeS5FeSCHFeS2FeS2FeSFeS3CHC6H4CHC6H4CHCH2CHC7H4C3SCHC7PCH2C3HCHSHC4H7CHCH2C4H2PC3H2C9H2CH6C7PC17H16C4H6CHCHC4H2C3HCHCH3CFeCHCH3C2HCH3CHC3H3C2H3C2H2FeC8HC3HSH2C3HCH2PH4C4H4C3HPHC2HC2HC5PC9HCSHCHCH6CHCH2CH2C2HFeC4H2CHC3HSHCHCH2C2H3CHC3H2C2H5C4H2FeS2FeS2FeSFeHS4FeSFeCFeS2C2FeCPSFeS2FeS2FeSFeS3C2HC6H4CH4CH2C6H4C6H4C2H2C2H2C3HCHC2H3C9PC4SHC9HC2H16CHCHC6PC18H20CHPC3H3CHCHCH3CSH2C2HCH3PH3CH2C3HC2SC2H3CH3C7H2C2HCH2C5H2C5H3CHCHSPCH4FeHCHCHCSFeHC6H4C3HCHCHCH3C2SCHCHC3HC3HCH2CHCHCHC3H2CHC5FeC3H3C4HCH2CHC3HCHCHSC4H2SCHC4H2C2FeS2FeSCFeSFeS3HFeS2CH2CH2FeS2FeCSFeS2FeS2FeSFeS3H2C2HC7H4PCH2C6H4CH2C2HCFeHC6H4C4H3CH2C6SCH3CHC4PC18H18C3PC11H9C4HC3HCSHC5HSC2HC3SHCHC3H2C3HC2H4CHC3HPCPC9H2C11H2CH6SH7CFeH3CH3C3HC5HC2HC2HCHC4HCHCH3C3H5CH3FeC3H2CHSCH2C2H5C4HCHCH2CH4C2H9C3FeS2FeSCFeSFeS3HFeS2FeSH2SCH2FeS2H2FeCS2FeS2FeS2FeSFeS3H3C7H4C2H2CH2C7H4C5H3C7H4C3HCH2CH3C2H2C3HC5HC2SHCHSC2HC2HCH2CH2C8H2C3HC2PC2HC2HC7HC6HCPCHCH4C4H4CHC2HCHPH4C2HC2HC3PH2PHC3H2CHC2H4C2HC4FeHC10HCHPC2H4CSCHCH4CH2C4HC4HC7SFeCSH2C3HFeCH4C3H4CH4CH2CHCHC2H3CHCH2CH4CHCHC2H2C2H3CHFeS2FeS2FeSFeS3FeS2FeS2FeSFeS3CHSCSHCHC5HCHC7H4CHC2HC6H4C6HC2HC2H2C3HCHCHC6HC2HCHC6H4C4PC2HC6H2C2HC2H8C3HC2H2C5H2CHCHCHC2HC3HC5HC2H3C6HPC3H8CHCH2CHCHCH4CH3SCH3C5PHPH2C4H2C2HCH2CH3CHC2H4C2HC2H2C2PC2HCHCHC5H2CSH2C2HCH2CFeH5CHC2H2C2H5C6H2C3HCHC2HFeH4FeS2FeS2FeSFeS3FeS2FeS2FeSFeS3C5HC2HC3H2C7H4C2H2PCH2CHC2H2C7H5C3HC3H2C3H4C3PC18H17C3HFeCHC2HPCH2C2H5C2HC3H2C2H3C2HCH2CHC2H3C5HC3HC2H4CH2C5H3CHCH2CHC5HCHC3HC4PH3C2SH2C3HCHC8HCHC2H4CHCHCSH2CH4C2H2CH2C2SCH2C2HC3HC5PCH2C2HCHCH2C2HC3PHCHCH3C2HCH4C3PC3HPCHC3H3C2HFeS2FeS2FeSFeS3FeS2FeS2FeSFeS3HSHSCH2C3HCH4C8H4CHC6H2CHC2HC6H6C4H3C3HCHSHC2H3PC5HFeHC3H3C2HCFeHCHC5HCSCHC2HSC3H2C5H7C2HPC2H4CH2C2HCHCHC3HC6HCHC2H2CH3CH2C2HC9PC18H20CHC4HC3PCH3C2HCHC2HC4HCH3C3H4C2PC3H2C5HC2HPH2CH3C2H5CPH2C2HC2HCHCH2C3SC4H2CH2C2HCHC3H2FeS2FeS2FeSFeS3FeS2FeS2FeSFeS3HSCHC8H7C2H2CHC4HCH3CPCH2C6H6CH3CHC3H2C2H2C2HC2HC7HC2HC4H5C3HC8HC3HPC2PCHSCH3CHCH5C2HCHC2H2C2H4C2H3CHCHC3HCH3CHC2H3CH3C4HC4HCPH2CHCHCH2C2HPCSH4CH4C9H2C4HCHC7HC4FeC7H4C2H4CH11CH2CHCH2CHC10H2C3HCHC2HCH2C2HCHC2HCHC2H3C3HSHCH2CH2CHCHC3HCH2C3H2C3H2CHC2H5C2HC2HC4FeS2FeS2FeSFeS3FeS2FeS2FeSFeCS2FeHSFeSC2S3FeSHC5H2CHFeHC7H7C3HCHCHC6H4C5H2C2HCHC3H2C3PCHCSHCHC4HCHP2CH4C2HSC9H2CH4C2HSH10C9HCHCH4CHC6H5SH4C2H3C2HSHC5HCH6CH2C3PC14HSCH3C2HSCHCFeC2HCH5C2H3CHC2H2PC2H2C3HCH2C3HC2HC2HCH2CH2CHC4FeCH6CHC3H5CPHC5H2FeC3HCH3C2H3C2HCHCHC3FeS2FeS2FeSFeS3FeS2FeS2FeSFeS3FeSCSFeSFeS2Fe2CSFeS2CH2C6H3C7H4C2HC2H4CH2C6H4CH2CHC4H4CH5CH2C5PC6HC3H3C2HCH3CH3C2H3SH3CHC2H3C3SHC2HCHCSC8HCH4C11PC18H23SC5HCH4CH2CHC3H7C4HCH2FeCH2SPCHCHC7PHC2H2C5HC7H8CHC3H4CH2C2HCHCH2CHCHC2HC2HC4HCHCH2C5HCHC5H3CSHCH2CH3CHPFeS2FeS2FeSFeS3FeS2FeS2FeSFeCS2FeSCSFeSFeSFeS2CHC2FeSCSCHCHC4HCH3C3HC6H4CHC3H5CH2C7H6CH2C3H2PHPCH3C2PC5HC8H3C5HCSHCH7CH3C2H2CHCSH2FeC2H5C3HC2HCHC2HSCHCHCH3C4H2CH2C5H2CHCSH2C2HCH4C4HCH3C5H3C6H6CHCHCH2C8H2CH3CHCHCH3C2H5C4H2CHC3HCH2CHPHCH2CHCH2C2H2CHC3HCH2PHC3H2C2PC19H5C3HC3HSC3H2CH2C3HCHC2HCFeC3H2CHCFeS2FeS2FeSFeS3FeS2FeS2FeSFeS3FeS2FeSFeS2FeSFeCS2H2C7H2CHSH2C6H4C2H2C3H3C5H3CHCH3C7H4CH5CHC5H3C2HCH2CHCHC5HC3PC18HC2H17C2HCHC4PC8H2C3PHCHC3H2CH4CHCH3C2HCSC3PC2HC3HCHCH2CSCHC5HC2H2FeCHC4HCH4C2H2CSC3H5C6HC3HCHC3H3CH2CH5C5H3CHCHCH3CHCHC7H2CFeHPHCHC2HCH2CHCHC2H4CH2CHC2H4CHCHC6H2CHCH2C2HC2SC2HPC2HC2HCH4CH2FeS2FeS2FeSFeS3C2SCHCHCHC2FeS2FeS2FeSFeS3C5H3C6H4C7H4CH5C6H4C4H2C5H5C3HC2HCH2CHC2PCFeCH4C2H3CHC2H2C3PCHC4H2C4H4C2H2C2HCHCH5C5HCHC3SCHPHC6PC18HCH18CHCHC2H2C5H3C8H2PC2H3CH2CH5C6PC8HC7H18C2HC6PH3CHCH3C3HC2HC3HSCH3C2HCSC5HCHC5HCH2C2HFeS2FeS2FeSFeS3FeS2FeS2FeSFeS3CH2CHCSHC7H4C6H4C4HCHC6H4C2H3CH4C3H3C5H2CH2CHC4HCH2C6H2PHCHCH3CHC4H6CHC9H2C4HCH3CHC5HCHC4HC2HC2HCH3CH2C3HC3H3C2H3C18HPH2CH3C2H3C5HC4PCHCH4C11H2CH3CH5PH6C6PC8H2C8H11SPCH5C2HCFeCH3C2H2CHCHCH3PH4C3H3CFeS2FeS2FeSFeS3HSCHFeS2FeS2FeSFeS3CFeHCHC6H4C3HCH3C6H6C6H4C3H2C6H4C6PC6H2CHC6H9C2H7C6PC13HCH8C2H10SCH9CPH4C2HC2HC3HC5H2C2H2CSC2H3SCHC2HCH4CHC3HCHC4HCH2C4H3C2H2CH2C2HC6HCHC6HC2HC2HCHFeS2FeS2FeSFeS3FeS2FeS2FeSFeS3HCSCHCHCPHCH2C2H3C6H4C6H4C2HC2H2C6H4C2HC3HCH3CHC8H2CH2CHCPC4HC9H3CH11CHC2HCH4CH7C3H5PC5HCH2CHC2HCHC2H3CHCHCHC2HC2PCH3CH3C4HC3PC2H2C6H2CFeCH3CH12C2HC6HC2H2CHC14HC2HCHCH4C2H3C5PC19H3CH6C6H2CHCHSHCPCHC3HCHC4HCHC2HC3PHSCHC2HC
_chemical_formula_sum              "Fe192 S384 C2880 H2304 P96"
_cell_length_a       63.9381
_cell_length_b       63.2929
_cell_length_c       62.6288
_cell_angle_alpha    85.5011
_cell_angle_beta     85.0451
_cell_angle_gamma    86.6461

_space_group_name_H-M_alt    "P 1"
_space_group_IT_number       1

loop_
  _space_group_symop_operation_xyz
  'x, y, z'

loop_
  _atom_site_type_symbol
  _atom_site_label
  _atom_site_symmetry_multiplicity
  _atom_site_fract_x
  _atom_site_fract_y
  _atom_site_fract_z
  _atom_site_occupancy
  Fe  Fe1       1.0  0.06917  0.38137  0.43579  1.0000
  S   S1        1.0  0.06046  0.41632  0.43382  1.0000
  S   S2        1.0  0.07482  0.36278  0.46766  1.0000
  Fe  Fe2       1.0  0.06524  0.37721  0.38743  1.0000
  S   S3        1.0  0.05593  0.41197  0.38249  1.0000
  S   S4        1.0  0.06422  0.36135  0.35603  1.0000
  Fe  Fe3       1.0  0.08140  0.41760  0.40326  1.0000
  S   S5        1.0  0.10491  0.44229  0.39254  1.0000
  Fe  Fe4       1.0  0.03578  0.40769  0.41326  1.0000
  C   C1        1.0  0.00606  0.21891  0.32526  1.0000
  S   S6        1.0  0.09245  0.38308  0.40645  1.0000
  S   S7        1.0  0.04292  0.37248  0.41686  1.0000
  H   H1        1.0  0.23674  0.33620  0.16950  1.0000
  Fe  Fe5       1.0  0.20087  0.24138  0.13103  1.0000
  S   S8        1.0  0.21291  0.21556  0.10965  1.0000
  S   S9        1.0  0.16992  0.23323  0.15007  1.0000
  H   H2        1.0  0.19861  0.28326  0.16542  1.0000
  Fe  Fe6       1.0  0.22405  0.24127  0.08496  1.0000
  S   S10       1.0  0.21575  0.24909  0.05002  1.0000
  S   S11       1.0  0.23101  0.24249  0.14655  1.0000
  S   S12       1.0  0.20979  0.26696  0.10553  1.0000
  S   S13       1.0  0.22099  0.08287  0.29262  1.0000
  S   S14       1.0  0.19347  0.09322  0.25111  1.0000
  Fe  Fe7       1.0  0.20439  0.11170  0.27673  1.0000
  S   S15       1.0  0.18443  0.13625  0.29539  1.0000
  C   C2        1.0  0.00312  0.29320  0.39368  1.0000
  H   H3        1.0  0.12027  0.47264  0.36035  1.0000
  Fe  Fe8       1.0  0.07866  0.25566  0.29487  1.0000
  S   S16       1.0  0.06047  0.22639  0.29448  1.0000
  S   S17       1.0  0.08301  0.26702  0.32780  1.0000
  Fe  Fe9       1.0  0.08683  0.25872  0.24586  1.0000
  S   S18       1.0  0.06765  0.23070  0.24225  1.0000
  S   S19       1.0  0.10482  0.27736  0.21821  1.0000
  Fe  Fe10      1.0  0.04412  0.24414  0.26745  1.0000
  S   S20       1.0  0.00813  0.24642  0.27502  1.0000
  Fe  Fe11      1.0  0.08551  0.21557  0.26962  1.0000
  S   S21       1.0  0.09918  0.18186  0.26557  1.0000
  S   S22       1.0  0.06188  0.27380  0.26870  1.0000
  S   S23       1.0  0.10518  0.24322  0.27237  1.0000
  C   C3        1.0  0.17530  0.28924  0.06366  1.0000
  H   H4        1.0  0.13156  0.12352  0.03605  1.0000
  C   C4        1.0  0.16219  0.15042  0.28518  1.0000
  C   C5        1.0  0.15332  0.16827  0.29536  1.0000
  C   C6        1.0  0.13463  0.17884  0.28878  1.0000
  C   C7        1.0  0.12436  0.17131  0.27226  1.0000
  C   C8        1.0  0.13348  0.15371  0.26183  1.0000
  C   C9        1.0  0.15245  0.14354  0.26801  1.0000
  H   H5        1.0  0.16073  0.17373  0.30865  1.0000
  H   H6        1.0  0.12774  0.19228  0.29701  1.0000
  H   H7        1.0  0.12569  0.14777  0.24904  1.0000
  H   H8        1.0  0.15912  0.12989  0.26000  1.0000
  C   C10       1.0  0.21383  0.17135  0.08124  1.0000
  H   H9        1.0  0.13019  0.38113  0.08851  1.0000
  C   C11       1.0  0.15366  0.24588  0.17029  1.0000
  C   C12       1.0  0.15204  0.26795  0.17117  1.0000
  C   C13       1.0  0.13724  0.27736  0.18612  1.0000
  C   C14       1.0  0.12405  0.26483  0.20046  1.0000
  C   C15       1.0  0.12607  0.24275  0.19994  1.0000
  C   C16       1.0  0.14066  0.23338  0.18483  1.0000
  H   H10       1.0  0.16152  0.27779  0.15977  1.0000
  H   H11       1.0  0.13574  0.29446  0.18631  1.0000
  H   H12       1.0  0.11606  0.23287  0.21084  1.0000
  H   H13       1.0  0.14166  0.21630  0.18423  1.0000
  C   C17       1.0  0.15862  0.36325  0.09626  1.0000
  H   H14       1.0  0.06769  0.40708  0.47666  1.0000
  C   C18       1.0  0.04381  0.17979  0.26427  1.0000
  H   H15       1.0  0.02531  0.39271  0.34638  1.0000
  H   H16       1.0  0.12662  0.24428  0.33164  1.0000
  C   C19       1.0  0.22144  0.23862  0.02440  1.0000
  H   H17       1.0  0.15183  0.06481  0.27227  1.0000
  C   C20       1.0  0.23394  0.09624  0.35455  1.0000
  C   C21       1.0  0.06860  0.33470  0.34917  1.0000
  C   C22       1.0  0.06434  0.32974  0.32854  1.0000
  C   C23       1.0  0.06849  0.30907  0.32185  1.0000
  C   C24       1.0  0.07698  0.29311  0.33574  1.0000
  C   C25       1.0  0.08096  0.29796  0.35651  1.0000
  C   C26       1.0  0.07677  0.31866  0.36323  1.0000
  H   H18       1.0  0.05798  0.34202  0.31756  1.0000
  H   H19       1.0  0.06526  0.30551  0.30589  1.0000
  H   H20       1.0  0.08757  0.28570  0.36735  1.0000
  H   H21       1.0  0.08033  0.32229  0.37905  1.0000
  C   C27       1.0  0.09797  0.46962  0.38803  1.0000
  C   C28       1.0  0.08319  0.48055  0.40163  1.0000
  C   C29       1.0  0.14484  0.12593  0.04507  1.0000
  S   S24       1.0  0.24165  0.07301  0.24411  1.0000
  C   C30       1.0  0.10874  0.48090  0.37081  1.0000
  H   H22       1.0  0.07497  0.47193  0.41506  1.0000
  C   C31       1.0  0.00998  0.17970  0.29599  1.0000
  C   C32       1.0  0.13900  0.19711  0.09905  1.0000
  C   C33       1.0  0.14684  0.21655  0.10267  1.0000
  C   C34       1.0  0.16488  0.22352  0.09067  1.0000
  C   C35       1.0  0.17541  0.21083  0.07543  1.0000
  C   C36       1.0  0.16776  0.19123  0.07174  1.0000
  C   C37       1.0  0.14933  0.18450  0.08358  1.0000
  P   P1        1.0  0.18230  0.17462  0.05273  1.0000
  C   C38       1.0  0.18116  0.18605  0.02538  1.0000
  H   H23       1.0  0.03327  0.45859  0.39757  1.0000
  H   H24       1.0  0.16873  0.04844  0.30344  1.0000
  C   C39       1.0  0.17247  0.35725  0.11216  1.0000
  C   C40       1.0  0.22042  0.14700  0.16569  1.0000
  C   C41       1.0  0.01265  0.30036  0.33760  1.0000
  H   H25       1.0  0.03113  0.28085  0.31544  1.0000
  C   C42       1.0  0.18659  0.17333  0.00812  1.0000
  H   H26       1.0  0.02062  0.30401  0.45203  1.0000
  S   S25       1.0  0.00375  0.42435  0.41577  1.0000
  H   H27       1.0  0.05742  0.48108  0.36628  1.0000
  C   C43       1.0  0.17497  0.20753  0.02098  1.0000
  C   C44       1.0  0.17114  0.14891  0.05478  1.0000
  C   C45       1.0  0.15390  0.14565  0.04319  1.0000
  C   C46       1.0  0.16253  0.29464  0.08187  1.0000
  H   H28       1.0  0.19703  0.38370  0.08560  1.0000
  H   H29       1.0  0.00580  0.38266  0.43794  1.0000
  H   H30       1.0  0.12510  0.19168  0.10854  1.0000
  H   H31       1.0  0.13922  0.22605  0.11510  1.0000
  H   H32       1.0  0.17114  0.23846  0.09372  1.0000
  H   H33       1.0  0.18978  0.21610  0.06677  1.0000
  H   H34       1.0  0.14308  0.16941  0.08129  1.0000
  C   C47       1.0  0.23238  0.05567  0.19490  1.0000
  H   H35       1.0  0.22386  0.02613  0.21202  1.0000
  C   C48       1.0  0.16838  0.36497  0.13261  1.0000
  H   H36       1.0  0.03117  0.16003  0.31539  1.0000
  H   H37       1.0  0.20448  0.04105  0.31895  1.0000
  C   C49       1.0  0.21304  0.06531  0.36057  1.0000
  C   C50       1.0  0.02193  0.45642  0.34052  1.0000
  C   C51       1.0  0.04584  0.16851  0.28414  1.0000
  C   C52       1.0  0.21800  0.10702  0.34348  1.0000
  H   H38       1.0  0.17089  0.21792  0.03372  1.0000
  H   H39       1.0  0.14735  0.15841  0.03280  1.0000
  P   P2        1.0  0.17296  0.06301  0.34678  1.0000
  C   C53       1.0  0.01760  0.28252  0.40677  1.0000
  C   C54       1.0  0.13912  0.10340  0.30673  1.0000
  C   C55       1.0  0.21444  0.18118  0.27449  1.0000
  H   H40       1.0  0.03938  0.33713  0.45310  1.0000
  H   H41       1.0  0.12303  0.39445  0.12479  1.0000
  C   C56       1.0  0.15997  0.07442  0.32367  1.0000
  C   C57       1.0  0.14903  0.09429  0.32453  1.0000
  C   C58       1.0  0.15492  0.06620  0.37025  1.0000
  C   C59       1.0  0.16203  0.07178  0.38955  1.0000
  C   C60       1.0  0.14785  0.07415  0.40761  1.0000
  C   C61       1.0  0.12653  0.07095  0.40655  1.0000
  C   C62       1.0  0.11936  0.06536  0.38740  1.0000
  C   C63       1.0  0.13348  0.06299  0.36931  1.0000
  C   C64       1.0  0.05724  0.44125  0.33297  1.0000
  H   H42       1.0  0.13123  0.11901  0.30726  1.0000
  H   H43       1.0  0.02025  0.24727  0.33215  1.0000
  C   C65       1.0  0.13684  0.38415  0.12124  1.0000
  H   H44       1.0  0.14847  0.10297  0.33881  1.0000
  H   H45       1.0  0.15342  0.07852  0.42244  1.0000
  H   H46       1.0  0.11557  0.07281  0.42055  1.0000
  H   H47       1.0  0.10283  0.06288  0.38655  1.0000
  H   H48       1.0  0.12771  0.05861  0.35457  1.0000
  H   H49       1.0  0.18751  0.10573  0.33231  1.0000
  C   C66       1.0  0.19950  0.09704  0.34106  1.0000
  C   C67       1.0  0.10074  0.32520  0.27656  1.0000
  C   C68       1.0  0.10785  0.31499  0.25810  1.0000
  C   C69       1.0  0.12826  0.30581  0.25608  1.0000
  C   C70       1.0  0.14154  0.30675  0.27251  1.0000
  C   C71       1.0  0.13456  0.31707  0.29109  1.0000
  C   C72       1.0  0.11398  0.32614  0.29308  1.0000
  P   P3        1.0  0.15132  0.31665  0.31291  1.0000
  C   C73       1.0  0.14788  0.29260  0.33010  1.0000
  C   C74       1.0  0.17824  0.31800  0.30153  1.0000
  C   C75       1.0  0.19440  0.30484  0.31011  1.0000
  C   C76       1.0  0.21507  0.30582  0.30085  1.0000
  C   C77       1.0  0.20378  0.33295  0.27427  1.0000
  C   C78       1.0  0.18310  0.33201  0.28348  1.0000
  C   C79       1.0  0.15530  0.29090  0.35067  1.0000
  C   C80       1.0  0.15269  0.27237  0.36413  1.0000
  C   C81       1.0  0.14259  0.25547  0.35718  1.0000
  C   C82       1.0  0.13505  0.25710  0.33681  1.0000
  C   C83       1.0  0.13757  0.27561  0.32334  1.0000
  C   C84       1.0  0.14415  0.33907  0.32873  1.0000
  C   C85       1.0  0.15501  0.35788  0.32537  1.0000
  C   C86       1.0  0.14893  0.37513  0.33762  1.0000
  C   C87       1.0  0.13199  0.37375  0.35326  1.0000
  C   C88       1.0  0.12121  0.35507  0.35674  1.0000
  C   C89       1.0  0.12724  0.33782  0.34456  1.0000
  H   H50       1.0  0.08481  0.33204  0.27826  1.0000
  H   H51       1.0  0.09747  0.31388  0.24546  1.0000
  H   H52       1.0  0.13363  0.29765  0.24186  1.0000
  H   H53       1.0  0.15714  0.29914  0.27080  1.0000
  H   H54       1.0  0.10793  0.33367  0.30743  1.0000
  H   H55       1.0  0.19119  0.29372  0.32383  1.0000
  H   H56       1.0  0.22747  0.29563  0.30754  1.0000
  H   H57       1.0  0.17086  0.34221  0.27651  1.0000
  H   H58       1.0  0.16300  0.30395  0.35632  1.0000
  H   H59       1.0  0.15832  0.27118  0.38003  1.0000
  H   H60       1.0  0.13089  0.27668  0.30797  1.0000
  H   H61       1.0  0.16810  0.35941  0.31335  1.0000
  H   H62       1.0  0.15725  0.38966  0.33495  1.0000
  H   H63       1.0  0.12711  0.38718  0.36261  1.0000
  H   H64       1.0  0.10793  0.35407  0.36870  1.0000
  H   H65       1.0  0.11850  0.32358  0.34730  1.0000
  C   C90       1.0  0.21454  0.25036  0.00602  1.0000
  C   C91       1.0  0.07004  0.37558  0.49195  1.0000
  C   C92       1.0  0.02713  0.47212  0.40614  1.0000
  C   C93       1.0  0.01419  0.31618  0.46223  1.0000
  H   H66       1.0  0.00149  0.30920  0.21394  1.0000
  H   H67       1.0  0.14817  0.28652  0.08640  1.0000
  H   H68       1.0  0.02368  0.20051  0.24515  1.0000
  H   H69       1.0  0.13275  0.10008  0.27399  1.0000
  H   H70       1.0  0.16993  0.22318  0.22289  1.0000
  H   H71       1.0  0.15847  0.31407  0.10864  1.0000
  C   C94       1.0  0.19491  0.23032  0.26763  1.0000
  H   H72       1.0  0.01957  0.29228  0.35134  1.0000
  C   C95       1.0  0.16851  0.31016  0.09451  1.0000
  H   H73       1.0  0.22630  0.40373  0.06761  1.0000
  C   C96       1.0  0.19267  0.19487  0.19857  1.0000
  C   C97       1.0  0.18177  0.18213  0.18657  1.0000
  C   C98       1.0  0.17630  0.16193  0.19506  1.0000
  C   C99       1.0  0.18173  0.15447  0.21553  1.0000
  H   H74       1.0  0.14365  0.24725  0.24047  1.0000
  H   H75       1.0  0.08159  0.45495  0.34830  1.0000
  C   C100      1.0  0.03576  0.44181  0.33015  1.0000
  C   C101      1.0  0.01654  0.48944  0.39561  1.0000
  C   C102      1.0  0.14005  0.09278  0.28792  1.0000
  H   H76       1.0  0.18221  0.24970  0.29300  1.0000
  C   C103      1.0  0.99684  0.32144  0.30100  1.0000
  H   H77       1.0  0.11238  0.41755  0.49129  1.0000
  C   C104      1.0  0.15281  0.10939  0.05866  1.0000
  H   H78       1.0  0.01500  0.13830  0.37897  1.0000
  H   H79       1.0  0.20567  0.14130  0.16188  1.0000
  H   H80       1.0  0.19195  0.13443  0.07799  1.0000
  C   C105      1.0  0.23194  0.00409  0.25683  1.0000
  Fe  Fe12      1.0  0.22350  0.10269  0.23224  1.0000
  C   C106      1.0  0.15079  0.07297  0.28695  1.0000
  H   H81       1.0  0.17104  0.27680  0.05414  1.0000
  C   C107      1.0  0.02467  0.33485  0.46277  1.0000
  H   H82       1.0  0.17766  0.18795  0.17065  1.0000
  H   H83       1.0  0.16812  0.15192  0.18566  1.0000
  H   H84       1.0  0.17785  0.13865  0.22192  1.0000
  C   C108      1.0  0.16064  0.06379  0.30474  1.0000
  C   C109      1.0  0.22930  0.16404  0.15295  1.0000
  H   H85       1.0  0.01327  0.16994  0.35340  1.0000
  C   C110      1.0  0.15796  0.24252  0.24810  1.0000
  H   H86       1.0  0.22126  0.17139  0.13957  1.0000
  H   H87       1.0  0.18577  0.29969  0.13189  1.0000
  H   H88       1.0  0.23579  0.32060  0.27581  1.0000
  C   C111      1.0  0.23148  0.07539  0.36308  1.0000
  H   H89       1.0  0.17846  0.07438  0.39074  1.0000
  C   C112      1.0  0.21828  0.31620  0.99923  1.0000
  C   C113      1.0  0.14087  0.37663  0.10081  1.0000
  C   C114      1.0  0.02941  0.47181  0.42818  1.0000
  H   H90       1.0  0.19660  0.21054  0.19172  1.0000
  H   H91       1.0  0.23780  0.21001  0.03581  1.0000
  H   H92       1.0  0.22424  0.35295  0.13580  1.0000
  C   C115      1.0  0.19394  0.29948  0.05799  1.0000
  C   C116      1.0  0.15060  0.37834  0.13711  1.0000
  H   H93       1.0  0.12881  0.38250  0.48271  1.0000
  H   H94       1.0  0.21489  0.32209  0.06618  1.0000
  H   H95       1.0  0.04649  0.28446  0.42175  1.0000
  C   C117      1.0  0.00438  0.13902  0.36631  1.0000
  C   C118      1.0  0.23212  0.21897  0.02190  1.0000
  H   H96       1.0  0.20741  0.34381  0.26036  1.0000
  H   H97       1.0  0.20391  0.29497  0.04405  1.0000
  Fe  Fe13      1.0  0.21261  0.06512  0.26503  1.0000
  C   C119      1.0  0.21976  0.31987  0.28296  1.0000
  C   C120      1.0  0.21168  0.00662  0.26698  1.0000
  C   C121      1.0  0.22534  0.16936  0.29021  1.0000
  C   C122      1.0  0.20148  0.00770  0.32668  1.0000
  C   C123      1.0  0.00820  0.19115  0.27605  1.0000
  C   C124      1.0  0.01082  0.38602  0.35334  1.0000
  C   C125      1.0  0.01934  0.29378  0.31719  1.0000
  C   C126      1.0  0.00834  0.23609  0.33743  1.0000
  H   H98       1.0  0.18589  0.32549  0.00798  1.0000
  C   C127      1.0  0.05118  0.47009  0.35633  1.0000
  C   C128      1.0  0.03774  0.31392  0.40444  1.0000
  C   C129      1.0  0.23669  0.34558  0.09004  1.0000
  H   H99       1.0  0.06790  0.42961  0.32534  1.0000
  S   S26       1.0  0.21927  0.11477  0.19760  1.0000
  H   H100      1.0  0.16155  0.35758  0.08034  1.0000
  H   H101      1.0  0.21359  0.00331  0.31446  1.0000
  C   C130      1.0  0.19691  0.07605  0.34947  1.0000
  C   C131      1.0  0.16982  0.11257  0.07042  1.0000
  C   C132      1.0  0.22943  0.22004  0.21768  1.0000
  H   H102      1.0  0.22264  0.24926  0.23342  1.0000
  C   C133      1.0  0.06951  0.49127  0.46623  1.0000
  H   H103      1.0  0.07949  0.45814  0.46706  1.0000
  H   H104      1.0  0.20135  0.17344  0.09386  1.0000
  P   P4        1.0  0.21108  0.20465  0.23510  1.0000
  H   H105      1.0  0.02144  0.35421  0.34687  1.0000
  H   H106      1.0  0.21136  0.04917  0.36738  1.0000
  H   H107      1.0  0.02627  0.34072  0.38522  1.0000
  H   H108      1.0  0.22293  0.16783  0.02714  1.0000
  C   C134      1.0  0.02503  0.19118  0.26027  1.0000
  C   C135      1.0  0.02343  0.32457  0.39117  1.0000
  C   C136      1.0  0.01638  0.35059  0.47601  1.0000
  C   C137      1.0  0.02904  0.16852  0.30002  1.0000
  H   H109      1.0  0.21690  0.16345  0.30502  1.0000
  H   H110      1.0  0.01628  0.21724  0.31075  1.0000
  H   H111      1.0  0.15626  0.02338  0.36868  1.0000
  H   H112      1.0  0.14574  0.09414  0.06018  1.0000
  C   C138      1.0  0.23517  0.21080  0.00142  1.0000
  C   C139      1.0  0.23202  0.24143  0.22086  1.0000
  C   C140      1.0  0.07570  0.47176  0.47644  1.0000
  H   H113      1.0  0.05115  0.32202  0.40856  1.0000
  P   P5        1.0  0.01214  0.48956  0.36752  1.0000
  H   H114      1.0  0.02495  0.36481  0.47634  1.0000
  C   C141      1.0  0.19680  0.31814  0.99622  1.0000
  C   C142      1.0  0.17975  0.03514  0.34419  1.0000
  H   H115      1.0  0.03746  0.45832  0.43616  1.0000
  C   C143      1.0  0.17972  0.24393  0.27763  1.0000
  C   C144      1.0  0.23466  0.16916  0.08669  1.0000
  H   H116      1.0  0.03094  0.42929  0.48610  1.0000
  C   C145      1.0  0.22584  0.16802  0.04385  1.0000
  C   C146      1.0  0.23665  0.03550  0.20476  1.0000
  C   C147      1.0  0.06689  0.39761  0.49171  1.0000
  C   C148      1.0  0.21627  0.35496  0.09240  1.0000
  C   C149      1.0  0.21257  0.37599  0.08407  1.0000
  P   P6        1.0  0.19526  0.33985  0.10608  1.0000
  C   C150      1.0  0.18754  0.32016  0.08924  1.0000
  C   C151      1.0  0.20406  0.32761  0.13110  1.0000
  C   C152      1.0  0.19668  0.30805  0.13989  1.0000
  C   C153      1.0  0.20381  0.29869  0.15911  1.0000
  C   C154      1.0  0.21812  0.30889  0.16984  1.0000
  C   C155      1.0  0.22523  0.32855  0.16146  1.0000
  C   C156      1.0  0.21824  0.33790  0.14219  1.0000
  C   C157      1.0  0.20014  0.31481  0.07074  1.0000
  C   C158      1.0  0.16896  0.01932  0.35694  1.0000
  H   H117      1.0  0.14746  0.38414  0.15296  1.0000
  C   C159      1.0  0.16119  0.24988  0.26793  1.0000
  S   S27       1.0  0.19964  0.03207  0.27198  1.0000
  H   H118      1.0  0.02982  0.43079  0.32003  1.0000
  C   C160      1.0  0.06496  0.45551  0.34592  1.0000
  H   H119      1.0  0.01662  0.29895  0.28319  1.0000
  C   C161      1.0  0.00867  0.36414  0.35386  1.0000
  H   H120      1.0  0.17589  0.09980  0.08111  1.0000
  H   H121      1.0  0.22372  0.32241  0.01327  1.0000
  H   H122      1.0  0.06070  0.16018  0.28730  1.0000
  H   H123      1.0  0.24079  0.01794  0.25187  1.0000
  H   H124      1.0  0.17878  0.36068  0.14517  1.0000
  H   H125      1.0  0.14027  0.24120  0.36767  1.0000
  C   C162      1.0  0.00613  0.31420  0.38545  1.0000
  H   H126      1.0  0.19152  0.15677  0.01102  1.0000
  C   C163      1.0  0.17297  0.22874  0.23817  1.0000
  H   H127      1.0  0.22404  0.30133  0.18438  1.0000
  H   H128      1.0  0.14922  0.26007  0.27577  1.0000
  C   C164      1.0  0.19142  0.22218  0.24806  1.0000
  H   H129      1.0  0.19627  0.16110  0.24357  1.0000
  H   H130      1.0  0.20926  0.22599  0.27527  1.0000
  C   C165      1.0  0.19620  0.02913  0.32922  1.0000
  C   C166      1.0  0.19803  0.18756  0.21928  1.0000
  H   H131      1.0  0.19760  0.18416  0.27738  1.0000
  Fe  Fe14      1.0  0.24127  0.26600  0.11934  1.0000
  C   C167      1.0  0.00100  0.43285  0.47267  1.0000
  C   C168      1.0  0.20925  0.17117  0.05970  1.0000
  C   C169      1.0  0.02949  0.47026  0.35421  1.0000
  C   C170      1.0  0.01135  0.30419  0.29894  1.0000
  H   H132      1.0  0.21998  0.12310  0.33656  1.0000
  H   H133      1.0  0.05700  0.18004  0.25215  1.0000
  C   C171      1.0  0.22513  0.18869  0.25509  1.0000
  H   H134      1.0  0.20634  0.26566  0.00766  1.0000
  C   C172      1.0  0.19246  0.16724  0.22768  1.0000
  C   C173      1.0  0.03507  0.29279  0.41189  1.0000
  C   C174      1.0  0.17895  0.13226  0.06855  1.0000
  H   H135      1.0  0.01544  0.26619  0.41271  1.0000
  S   S28       1.0  0.23362  0.12246  0.25727  1.0000
  H   H136      1.0  0.06861  0.49286  0.44895  1.0000
  C   C175      1.0  0.01598  0.42240  0.48526  1.0000
  H   H137      1.0  0.21629  0.06208  0.19461  1.0000
  C   C176      1.0  0.23042  0.13730  0.18331  1.0000
  H   H138      1.0  0.00441  0.44767  0.46356  1.0000
  H   H139      1.0  0.00543  0.45683  0.33781  1.0000
  C   C177      1.0  0.22916  0.38745  0.07383  1.0000
  C   C178      1.0  0.02090  0.48859  0.43991  1.0000
  H   H140      1.0  0.23886  0.28183  0.02615  1.0000
  H   H141      1.0  0.99612  0.24231  0.23101  1.0000
  H   H142      1.0  0.02248  0.48829  0.45702  1.0000
  C   C179      1.0  0.17445  0.99785  0.35448  1.0000
  H   H143      1.0  0.23993  0.19397  0.19835  1.0000
  C   C180      1.0  0.24182  0.21039  0.20118  1.0000
  C   C181      1.0  0.99747  0.34776  0.48880  1.0000
  C   C182      1.0  0.00333  0.15694  0.35181  1.0000
  H   H144      1.0  0.00227  0.28475  0.24673  1.0000
  H   H145      1.0  0.23981  0.32936  0.09614  1.0000
  C   C183      1.0  0.99780  0.31750  0.33987  1.0000
  C   C184      1.0  0.99547  0.23868  0.35632  1.0000
  H   H146      1.0  0.99731  0.25204  0.36567  1.0000
  H   H147      1.0  0.24008  0.02830  0.29315  1.0000
  H   H148      1.0  0.99394  0.20046  0.27282  1.0000
  H   H149      1.0  0.17020  0.23277  0.99644  1.0000
  H   H150      1.0  0.99645  0.41597  0.36241  1.0000
  C   C185      1.0  0.99284  0.39335  0.49442  1.0000
  C   C186      1.0  0.99460  0.39909  0.36236  1.0000
  C   C187      1.0  0.99555  0.31306  0.47515  1.0000
  C   C188      1.0  0.17439  0.21607  0.99975  1.0000
  H   H151      1.0  0.23815  0.16996  0.10325  1.0000
  H   H152      1.0  0.24236  0.05016  0.32387  1.0000
  Fe  Fe15      1.0  0.07654  0.42151  0.62641  1.0000
  S   S29       1.0  0.04739  0.42596  0.60920  1.0000
  S   S30       1.0  0.09454  0.45046  0.63063  1.0000
  Fe  Fe16      1.0  0.07456  0.37314  0.62994  1.0000
  S   S31       1.0  0.04535  0.37446  0.61210  1.0000
  S   S32       1.0  0.08815  0.34008  0.63987  1.0000
  Fe  Fe17      1.0  0.06067  0.39946  0.58954  1.0000
  S   S33       1.0  0.05740  0.40961  0.55433  1.0000
  Fe  Fe18      1.0  0.03484  0.40077  0.63296  1.0000
  H   H153      1.0  0.20523  0.24805  0.71201  1.0000
  S   S34       1.0  0.09091  0.39628  0.60553  1.0000
  S   S35       1.0  0.06295  0.39821  0.65227  1.0000
  S   S36       1.0  0.20460  0.25719  0.92090  1.0000
  S   S37       1.0  0.20522  0.21061  0.90127  1.0000
  Fe  Fe19      1.0  0.18878  0.24269  0.89505  1.0000
  S   S38       1.0  0.15328  0.24779  0.89332  1.0000
  Fe  Fe20      1.0  0.22327  0.22630  0.92486  1.0000
  C   C189      1.0  0.03631  0.46306  0.54000  1.0000
  Fe  Fe21      1.0  0.19882  0.09546  0.75985  1.0000
  S   S39       1.0  0.21006  0.07575  0.78858  1.0000
  S   S40       1.0  0.16423  0.10678  0.76023  1.0000
  C   C190      1.0  0.18941  0.31066  0.97800  1.0000
  C   C191      1.0  0.21158  0.21601  0.70291  1.0000
  Fe  Fe22      1.0  0.23038  0.05658  0.76538  1.0000
  C   C192      1.0  0.11603  0.40582  0.50416  1.0000
  P   P7        1.0  0.07335  0.48485  0.53970  1.0000
  S   S41       1.0  0.21677  0.07396  0.73668  1.0000
  Fe  Fe23      1.0  0.05441  0.22524  0.75677  1.0000
  S   S42       1.0  0.07743  0.23588  0.72909  1.0000
  S   S43       1.0  0.02373  0.20945  0.75261  1.0000
  Fe  Fe24      1.0  0.08367  0.23652  0.79067  1.0000
  S   S44       1.0  0.10789  0.24875  0.76564  1.0000
  S   S45       1.0  0.08477  0.23636  0.82697  1.0000
  Fe  Fe25      1.0  0.08097  0.26402  0.74804  1.0000
  S   S46       1.0  0.07916  0.29912  0.73650  1.0000
  Fe  Fe26      1.0  0.10255  0.21955  0.74888  1.0000
  S   S47       1.0  0.13277  0.20231  0.73613  1.0000
  S   S48       1.0  0.05679  0.25417  0.77474  1.0000
  S   S49       1.0  0.07946  0.20657  0.77484  1.0000
  C   C193      1.0  0.06288  0.40753  0.51103  1.0000
  C   C194      1.0  0.23250  0.30637  0.98421  1.0000
  H   H154      1.0  0.15179  0.11739  0.70795  1.0000
  C   C195      1.0  0.15576  0.13398  0.75625  1.0000
  C   C196      1.0  0.17001  0.14990  0.75093  1.0000
  C   C197      1.0  0.16266  0.17093  0.74565  1.0000
  C   C198      1.0  0.14105  0.17643  0.74616  1.0000
  C   C199      1.0  0.12676  0.16080  0.75270  1.0000
  C   C200      1.0  0.13411  0.13964  0.75748  1.0000
  H   H155      1.0  0.18667  0.14587  0.74990  1.0000
  H   H156      1.0  0.17370  0.18294  0.74056  1.0000
  H   H157      1.0  0.11006  0.16481  0.75308  1.0000
  H   H158      1.0  0.12294  0.12749  0.76160  1.0000
  C   C201      1.0  0.22803  0.22238  0.98307  1.0000
  H   H159      1.0  0.23536  0.28160  0.79623  1.0000
  H   H160      1.0  0.21243  0.25156  0.97158  1.0000
  H   H161      1.0  0.02740  0.34830  0.58478  1.0000
  H   H162      1.0  0.15068  0.00703  0.92234  1.0000
  C   C202      1.0  0.01982  0.35205  0.57010  1.0000
  H   H163      1.0  0.09329  0.35206  0.59278  1.0000
  H   H164      1.0  0.14713  0.39463  0.56698  1.0000
  C   C203      1.0  0.13583  0.24327  0.87361  1.0000
  C   C204      1.0  0.11432  0.24426  0.88010  1.0000
  C   C205      1.0  0.09933  0.24166  0.86559  1.0000
  C   C206      1.0  0.10537  0.23844  0.84404  1.0000
  C   C207      1.0  0.12696  0.23719  0.83726  1.0000
  C   C208      1.0  0.14221  0.23944  0.85210  1.0000
  H   H165      1.0  0.10915  0.24713  0.89657  1.0000
  H   H166      1.0  0.08282  0.24255  0.87111  1.0000
  H   H167      1.0  0.13181  0.23472  0.82066  1.0000
  H   H168      1.0  0.15876  0.23855  0.84692  1.0000
  C   C209      1.0  0.08467  0.32870  0.66671  1.0000
  C   C210      1.0  0.07846  0.34112  0.68389  1.0000
  C   C211      1.0  0.07686  0.33179  0.70511  1.0000
  C   C212      1.0  0.08105  0.30988  0.70940  1.0000
  C   C213      1.0  0.08689  0.29735  0.69220  1.0000
  C   C214      1.0  0.08889  0.30677  0.67099  1.0000
  H   H169      1.0  0.07527  0.35801  0.68089  1.0000
  H   H170      1.0  0.07236  0.34162  0.71830  1.0000
  H   H171      1.0  0.09013  0.28046  0.69527  1.0000
  H   H172      1.0  0.09371  0.29701  0.65783  1.0000
  C   C215      1.0  0.06230  0.39565  0.53090  1.0000
  C   C216      1.0  0.06563  0.37357  0.53133  1.0000
  H   H173      1.0  0.00805  0.41062  0.60204  1.0000
  H   H174      1.0  0.13471  0.35326  0.63710  1.0000
  C   C217      1.0  0.16002  0.14930  0.69752  1.0000
  C   C218      1.0  0.09593  0.46803  0.54682  1.0000
  H   H175      1.0  0.06510  0.36426  0.54656  1.0000
  H   H176      1.0  0.99988  0.34065  0.61722  1.0000
  C   C219      1.0  0.18657  0.31098  0.54061  1.0000
  C   C220      1.0  0.07258  0.48756  0.51084  1.0000
  C   C221      1.0  0.12437  0.37496  0.53747  1.0000
  H   H177      1.0  0.13769  0.30880  0.56646  1.0000
  C   C222      1.0  0.08062  0.47531  0.62703  1.0000
  H   H178      1.0  0.11112  0.32587  0.53187  1.0000
  C   C223      1.0  0.05865  0.47670  0.62841  1.0000
  C   C224      1.0  0.01751  0.20731  0.80941  1.0000
  H   H179      1.0  0.04998  0.46257  0.63196  1.0000
  H   H180      1.0  0.02391  0.39429  0.50512  1.0000
  H   H181      1.0  0.18059  0.21027  0.96629  1.0000
  C   C225      1.0  0.15116  0.31564  0.55738  1.0000
  C   C226      1.0  0.01527  0.33573  0.55778  1.0000
  C   C227      1.0  0.14696  0.00975  0.88834  1.0000
  C   C228      1.0  0.13610  0.28518  0.72461  1.0000
  C   C229      1.0  0.14383  0.26475  0.72016  1.0000
  C   C230      1.0  0.15719  0.25337  0.73394  1.0000
  C   C231      1.0  0.16261  0.26228  0.75232  1.0000
  C   C232      1.0  0.15462  0.28265  0.75713  1.0000
  C   C233      1.0  0.14144  0.29411  0.74301  1.0000
  P   P8        1.0  0.16035  0.29374  0.78163  1.0000
  C   C234      1.0  0.13795  0.29249  0.80137  1.0000
  C   C235      1.0  0.18256  0.27912  0.79279  1.0000
  C   C236      1.0  0.17956  0.25990  0.80522  1.0000
  C   C237      1.0  0.19647  0.24883  0.81452  1.0000
  S   S50       1.0  0.24021  0.02115  0.76957  1.0000
  H   H182      1.0  0.99949  0.27162  0.88997  1.0000
  C   C238      1.0  0.20285  0.28679  0.78943  1.0000
  C   C239      1.0  0.14095  0.29207  0.82340  1.0000
  C   C240      1.0  0.12377  0.29089  0.83876  1.0000
  C   C241      1.0  0.10347  0.29012  0.83231  1.0000
  C   C242      1.0  0.10031  0.29077  0.81047  1.0000
  C   C243      1.0  0.11743  0.29214  0.79505  1.0000
  C   C244      1.0  0.16672  0.32110  0.77549  1.0000
  C   C245      1.0  0.17671  0.32754  0.75536  1.0000
  C   C246      1.0  0.16258  0.05056  0.82764  1.0000
  H   H183      1.0  0.16915  0.04216  0.76667  1.0000
  C   C247      1.0  0.23293  0.06271  0.84757  1.0000
  C   C248      1.0  0.01387  0.24353  0.81957  1.0000
  H   H184      1.0  0.12540  0.29388  0.71419  1.0000
  H   H185      1.0  0.13902  0.25750  0.70637  1.0000
  H   H186      1.0  0.16270  0.23730  0.73073  1.0000
  H   H187      1.0  0.17265  0.25306  0.76292  1.0000
  H   H188      1.0  0.13476  0.30973  0.74648  1.0000
  H   H189      1.0  0.16409  0.25358  0.80789  1.0000
  H   H190      1.0  0.19403  0.23431  0.82462  1.0000
  H   H191      1.0  0.18060  0.23379  0.65342  1.0000
  H   H192      1.0  0.00643  0.25335  0.75207  1.0000
  H   H193      1.0  0.20569  0.30153  0.77996  1.0000
  H   H194      1.0  0.15656  0.29235  0.82881  1.0000
  H   H195      1.0  0.12627  0.28980  0.85573  1.0000
  H   H196      1.0  0.09026  0.28833  0.84424  1.0000
  H   H197      1.0  0.08462  0.28966  0.80549  1.0000
  H   H198      1.0  0.11443  0.29261  0.77830  1.0000
  H   H199      1.0  0.18066  0.31623  0.74335  1.0000
  C   C249      1.0  0.12944  0.37063  0.51591  1.0000
  H   H200      1.0  0.14420  0.07039  0.78031  1.0000
  C   C250      1.0  0.04930  0.47389  0.55197  1.0000
  H   H201      1.0  0.19786  0.29578  0.94843  1.0000
  C   C251      1.0  0.08067  0.17711  0.82169  1.0000
  C   C252      1.0  0.07737  0.16069  0.80888  1.0000
  C   C253      1.0  0.09389  0.14615  0.80341  1.0000
  C   C254      1.0  0.11366  0.14786  0.81093  1.0000
  C   C255      1.0  0.11700  0.16418  0.82402  1.0000
  C   C256      1.0  0.10046  0.17903  0.82896  1.0000
  P   P9        1.0  0.14248  0.16708  0.83353  1.0000
  C   C257      1.0  0.13900  0.17513  0.86070  1.0000
  C   C258      1.0  0.15788  0.14232  0.83335  1.0000
  C   C259      1.0  0.16153  0.13004  0.85248  1.0000
  C   C260      1.0  0.17519  0.11194  0.85199  1.0000
  C   C261      1.0  0.18523  0.10607  0.83247  1.0000
  C   C262      1.0  0.18144  0.11814  0.81344  1.0000
  C   C263      1.0  0.16779  0.13608  0.81383  1.0000
  C   C264      1.0  0.15366  0.18756  0.86855  1.0000
  C   C265      1.0  0.15093  0.19328  0.88975  1.0000
  C   C266      1.0  0.13351  0.18696  0.90318  1.0000
  C   C267      1.0  0.11898  0.17433  0.89559  1.0000
  C   C268      1.0  0.12182  0.16823  0.87452  1.0000
  C   C269      1.0  0.15724  0.18553  0.81553  1.0000
  C   C270      1.0  0.14752  0.19793  0.79924  1.0000
  C   C271      1.0  0.15957  0.21020  0.78382  1.0000
  C   C272      1.0  0.18138  0.21004  0.78439  1.0000
  C   C273      1.0  0.19113  0.19797  0.80071  1.0000
  C   C274      1.0  0.17916  0.18576  0.81622  1.0000
  H   H202      1.0  0.06811  0.18884  0.82542  1.0000
  H   H203      1.0  0.06218  0.15960  0.80271  1.0000
  H   H204      1.0  0.09151  0.13377  0.79301  1.0000
  H   H205      1.0  0.12626  0.13659  0.80623  1.0000
  H   H206      1.0  0.10291  0.19226  0.83830  1.0000
  H   H207      1.0  0.15435  0.13465  0.86781  1.0000
  H   H208      1.0  0.17846  0.10281  0.86678  1.0000
  H   H209      1.0  0.10184  0.42467  0.52927  1.0000
  H   H210      1.0  0.18941  0.11406  0.79830  1.0000
  H   H211      1.0  0.16541  0.14539  0.79888  1.0000
  H   H212      1.0  0.16708  0.19311  0.85842  1.0000
  H   H213      1.0  0.16207  0.20317  0.89563  1.0000
  H   H214      1.0  0.13125  0.19205  0.91937  1.0000
  H   H215      1.0  0.10545  0.16941  0.90600  1.0000
  H   H216      1.0  0.11053  0.15824  0.86899  1.0000
  H   H217      1.0  0.13074  0.19787  0.79799  1.0000
  H   H218      1.0  0.15189  0.21934  0.77110  1.0000
  H   H219      1.0  0.19076  0.21919  0.77220  1.0000
  H   H220      1.0  0.20802  0.19794  0.80133  1.0000
  H   H221      1.0  0.18714  0.17601  0.82837  1.0000
  C   C275      1.0  0.22494  0.29921  0.96578  1.0000
  H   H222      1.0  0.04375  0.28384  0.71247  1.0000
  P   P10       1.0  0.12864  0.35471  0.55883  1.0000
  C   C276      1.0  0.01459  0.37314  0.56345  1.0000
  C   C277      1.0  0.20881  0.99590  0.75881  1.0000
  C   C278      1.0  0.06945  0.36358  0.51188  1.0000
  H   H223      1.0  0.22722  0.13037  0.85878  1.0000
  H   H224      1.0  0.01239  0.47686  0.72499  1.0000
  H   H225      1.0  0.19840  0.01237  0.68331  1.0000
  C   C279      1.0  0.07716  0.46987  0.49869  1.0000
  H   H226      1.0  0.16361  0.36866  0.79801  1.0000
  C   C280      1.0  0.07277  0.47518  0.68067  1.0000
  H   H227      1.0  0.14618  0.43568  0.56396  1.0000
  C   C281      1.0  0.13215  0.44449  0.55907  1.0000
  H   H228      1.0  0.20731  0.01542  0.88125  1.0000
  H   H229      1.0  0.18927  0.01076  0.91763  1.0000
  H   H230      1.0  0.14386  0.15511  0.69616  1.0000
  C   C282      1.0  0.23788  0.13796  0.82561  1.0000
  S   S51       1.0  0.21234  0.25421  0.86897  1.0000
  H   H231      1.0  0.01912  0.31939  0.56305  1.0000
  H   H232      1.0  0.20012  0.01045  0.75414  1.0000
  C   C283      1.0  0.20350  0.30135  0.96274  1.0000
  C   C284      1.0  0.99775  0.22120  0.75150  1.0000
  H   H233      1.0  0.05600  0.30578  0.57029  1.0000
  C   C285      1.0  0.15708  0.01255  0.86769  1.0000
  H   H234      1.0  0.06306  0.32970  0.59820  1.0000
  H   H235      1.0  0.07185  0.34651  0.51223  1.0000
  H   H236      1.0  0.11526  0.47717  0.51775  1.0000
  P   P11       1.0  0.19190  0.01781  0.83827  1.0000
  H   H237      1.0  0.14800  0.01246  0.85386  1.0000
  H   H238      1.0  0.23268  0.07706  0.85599  1.0000
  H   H239      1.0  0.16964  0.36295  0.53624  1.0000
  C   C286      1.0  0.05765  0.46004  0.68486  1.0000
  H   H240      1.0  0.01831  0.38583  0.57290  1.0000
  H   H241      1.0  0.17215  0.17975  0.68925  1.0000
  C   C287      1.0  0.09572  0.45620  0.56678  1.0000
  C   C288      1.0  0.00810  0.29867  0.76259  1.0000
  C   C289      1.0  0.13761  0.36222  0.62174  1.0000
  H   H242      1.0  0.08931  0.47020  0.67893  1.0000
  C   C290      1.0  0.02302  0.30896  0.69980  1.0000
  C   C291      1.0  0.23173  0.14293  0.84685  1.0000
  S   S52       1.0  0.00179  0.40238  0.64807  1.0000
  C   C292      1.0  0.13249  0.45606  0.53912  1.0000
  C   C293      1.0  0.21657  0.25658  0.81115  1.0000
  H   H243      1.0  0.21863  0.03089  0.70767  1.0000
  H   H244      1.0  0.03438  0.32101  0.69983  1.0000
  H   H245      1.0  0.05340  0.48401  0.58346  1.0000
  C   C294      1.0  0.21977  0.27552  0.79858  1.0000
  H   H246      1.0  0.06254  0.44334  0.68661  1.0000
  H   H247      1.0  0.14842  0.38930  0.63554  1.0000
  H   H248      1.0  0.10860  0.49312  0.62248  1.0000
  C   C295      1.0  0.11405  0.39444  0.54208  1.0000
  C   C296      1.0  0.10516  0.33985  0.56241  1.0000
  C   C297      1.0  0.09095  0.34139  0.58067  1.0000
  C   C298      1.0  0.07345  0.32893  0.58362  1.0000
  C   C299      1.0  0.06953  0.31546  0.56795  1.0000
  C   C300      1.0  0.08305  0.31457  0.54924  1.0000
  C   C301      1.0  0.10080  0.32671  0.54647  1.0000
  H   H249      1.0  0.18086  0.37993  0.76224  1.0000
  H   H250      1.0  0.10839  0.39756  0.55839  1.0000
  C   C302      1.0  0.18932  0.22885  0.66720  1.0000
  C   C303      1.0  0.14408  0.38555  0.58217  1.0000
  H   H251      1.0  0.15485  0.40975  0.60041  1.0000
  C   C304      1.0  0.16445  0.12807  0.70420  1.0000
  H   H252      1.0  0.00699  0.45706  0.65863  1.0000
  H   H253      1.0  0.04066  0.46045  0.52333  1.0000
  C   C305      1.0  0.16697  0.04417  0.78376  1.0000
  C   C306      1.0  0.20137  0.13490  0.70369  1.0000
  C   C307      1.0  0.13537  0.36559  0.58305  1.0000
  C   C308      1.0  0.14877  0.39407  0.60105  1.0000
  C   C309      1.0  0.15110  0.33749  0.55136  1.0000
  H   H254      1.0  0.15467  0.33149  0.80658  1.0000
  H   H255      1.0  0.08184  0.45616  0.57796  1.0000
  C   C310      1.0  0.21221  0.00449  0.68983  1.0000
  C   C311      1.0  0.14528  0.38251  0.62086  1.0000
  C   C312      1.0  0.13300  0.35364  0.60289  1.0000
  C   C313      1.0  0.02834  0.28801  0.70689  1.0000
  C   C314      1.0  0.16214  0.33606  0.79087  1.0000
  H   H256      1.0  0.12708  0.33786  0.60400  1.0000
  H   H257      1.0  0.07978  0.30448  0.53686  1.0000
  H   H258      1.0  0.02374  0.29768  0.75435  1.0000
  C   C315      1.0  0.17879  0.01534  0.86493  1.0000
  H   H259      1.0  0.02721  0.19301  0.80669  1.0000
  C   C316      1.0  0.23313  0.02693  0.82408  1.0000
  H   H260      1.0  0.20062  0.33944  0.52644  1.0000
  S   S53       1.0  0.22389  0.11883  0.75824  1.0000
  P   P12       1.0  0.21856  0.17389  0.69129  1.0000
  C   C317      1.0  0.02609  0.22469  0.81717  1.0000
  H   H261      1.0  0.22785  0.13446  0.66865  1.0000
  H   H262      1.0  0.18837  0.10463  0.71324  1.0000
  H   H263      1.0  0.18510  0.25931  0.68059  1.0000
  H   H264      1.0  0.02108  0.25698  0.82502  1.0000
  Fe  Fe27      1.0  0.22952  0.22253  0.87573  1.0000
  H   H265      1.0  0.18932  0.35361  0.73501  1.0000
  C   C318      1.0  0.18626  0.18202  0.98691  1.0000
  H   H266      1.0  0.14678  0.45614  0.52848  1.0000
  C   C319      1.0  0.16880  0.30243  0.55188  1.0000
  H   H267      1.0  0.16873  0.28557  0.55648  1.0000
  C   C320      1.0  0.18511  0.12090  0.70729  1.0000
  S   S54       1.0  0.24066  0.20678  0.84468  1.0000
  Fe  Fe28      1.0  0.22989  0.26598  0.89501  1.0000
  H   H268      1.0  0.16123  0.05375  0.84444  1.0000
  C   C321      1.0  0.02450  0.46856  0.58328  1.0000
  C   C322      1.0  0.16723  0.35719  0.78607  1.0000
  C   C323      1.0  0.18015  0.20338  0.98273  1.0000
  C   C324      1.0  0.18174  0.34870  0.75060  1.0000
  C   C325      1.0  0.11030  0.40994  0.52552  1.0000
  C   C326      1.0  0.00349  0.28576  0.78137  1.0000
  H   H269      1.0  0.06033  0.42456  0.51060  1.0000
  H   H270      1.0  0.02488  0.45424  0.68910  1.0000
  H   H271      1.0  0.04242  0.22379  0.82076  1.0000
  H   H272      1.0  0.22959  0.24797  0.81856  1.0000
  C   C327      1.0  0.21539  0.05029  0.84949  1.0000
  C   C328      1.0  0.16916  0.34604  0.54046  1.0000
  C   C329      1.0  0.17628  0.16331  0.69363  1.0000
  H   H273      1.0  0.19636  0.09251  0.83206  1.0000
  C   C330      1.0  0.18677  0.33279  0.53498  1.0000
  H   H274      1.0  0.08186  0.45464  0.50644  1.0000
  C   C331      1.0  0.20314  0.23685  0.70023  1.0000
  H   H275      1.0  0.19011  0.01955  0.79177  1.0000
  C   C332      1.0  0.03627  0.46633  0.68596  1.0000
  H   H276      1.0  0.01785  0.25621  0.71264  1.0000
  H   H277      1.0  0.01575  0.27502  0.78734  1.0000
  H   H278      1.0  0.19130  0.17243  0.97363  1.0000
  C   C333      1.0  0.11450  0.46785  0.53303  1.0000
  C   C334      1.0  0.17698  0.36353  0.76594  1.0000
  S   S55       1.0  0.23151  0.21087  0.95777  1.0000
  C   C335      1.0  0.23846  0.18025  0.83782  1.0000
  H   H279      1.0  0.00225  0.31069  0.88744  1.0000
  C   C336      1.0  0.17868  0.03128  0.79802  1.0000
  H   H280      1.0  0.22729  0.16752  0.86933  1.0000
  C   C337      1.0  0.01165  0.45781  0.57134  1.0000
  C   C338      1.0  0.22356  0.01494  0.70352  1.0000
  C   C339      1.0  0.02979  0.48788  0.68260  1.0000
  H   H281      1.0  0.19557  0.19700  0.65788  1.0000
  C   C340      1.0  0.17610  0.03396  0.82013  1.0000
  C   C341      1.0  0.11378  0.44455  0.57285  1.0000
  C   C342      1.0  0.15301  0.06019  0.79143  1.0000
  H   H282      1.0  0.11356  0.43589  0.58850  1.0000
  C   C343      1.0  0.15852  0.00929  0.90634  1.0000
  H   H283      1.0  0.17279  0.31217  0.97559  1.0000
  H   H284      1.0  0.13614  0.35523  0.51181  1.0000
  C   C344      1.0  0.19719  0.15614  0.69637  1.0000
  H   H285      1.0  0.99614  0.32254  0.73975  1.0000
  C   C345      1.0  0.15103  0.06358  0.81331  1.0000
  H   H286      1.0  0.20159  0.05521  0.85949  1.0000
  C   C346      1.0  0.21797  0.24241  0.98548  1.0000
  H   H287      1.0  0.20997  0.17814  0.73734  1.0000
  C   C347      1.0  0.01761  0.45496  0.54971  1.0000
  C   C348      1.0  0.21546  0.03218  0.83788  1.0000
  C   C349      1.0  0.01372  0.27244  0.70698  1.0000
  H   H288      1.0  0.00798  0.44607  0.54059  1.0000
  H   H289      1.0  0.14085  0.07661  0.81900  1.0000
  C   C350      1.0  0.23178  0.16399  0.85289  1.0000
  H   H290      1.0  0.20023  0.30073  0.53639  1.0000
  C   C351      1.0  0.23488  0.16946  0.71356  1.0000
  C   C352      1.0  0.19041  0.01424  0.88304  1.0000
  C   C353      1.0  0.19186  0.24323  0.68249  1.0000
  C   C354      1.0  0.23427  0.16791  0.66684  1.0000
  C   C355      1.0  0.04336  0.47625  0.57376  1.0000
  Fe  Fe29      1.0  0.23573  0.09886  0.78635  1.0000
  C   C356      1.0  0.01196  0.40263  0.49602  1.0000
  C   C357      1.0  0.99663  0.20868  0.80427  1.0000
  C   C358      1.0  0.22861  0.99677  0.76652  1.0000
  H   H291      1.0  0.23543  0.29199  0.95361  1.0000
  H   H292      1.0  0.21721  0.12914  0.70676  1.0000
  H   H293      1.0  0.99795  0.31586  0.64956  1.0000
  C   C359      1.0  0.22634  0.17308  0.73443  1.0000
  C   C360      1.0  0.20861  0.20126  0.68793  1.0000
  C   C361      1.0  0.19779  0.20802  0.66980  1.0000
  C   C362      1.0  0.23606  0.14726  0.65985  1.0000
  H   H294      1.0  0.02035  0.47042  0.60015  1.0000
  C   C363      1.0  0.00314  0.31433  0.69260  1.0000
  H   H295      1.0  0.13017  0.00774  0.89038  1.0000
  H   H296      1.0  0.22041  0.21166  0.71666  1.0000
  C   C364      1.0  0.18025  0.01144  0.90369  1.0000
  H   H297      1.0  0.23217  0.17336  0.76772  1.0000
  C   C365      1.0  0.23891  0.17036  0.75171  1.0000
  C   C366      1.0  0.12535  0.38606  0.49934  1.0000
  C   C367      1.0  0.00478  0.37795  0.54444  1.0000
  H   H298      1.0  0.99925  0.33067  0.68724  1.0000
  C   C368      1.0  0.09161  0.49404  0.62345  1.0000
  H   H299      1.0  0.23320  0.01362  0.81425  1.0000
  C   C369      1.0  0.00576  0.34049  0.53862  1.0000
  H   H300      1.0  0.00237  0.32759  0.52933  1.0000
  S   S56       1.0  0.24010  0.11099  0.81910  1.0000
  C   C370      1.0  0.00061  0.36165  0.53168  1.0000
  C   C371      1.0  0.99360  0.24313  0.75134  1.0000
  C   C372      1.0  0.99642  0.47328  0.72266  1.0000
  C   C373      1.0  0.24106  0.00463  0.71235  1.0000
  H   H301      1.0  0.00052  0.39436  0.53979  1.0000
  H   H302      1.0  0.23619  0.48493  0.89159  1.0000
  S   S57       1.0  0.24058  0.29983  0.89432  1.0000
  C   C374      1.0  0.99733  0.46879  0.65001  1.0000
  H   H303      1.0  0.99734  0.45131  0.57895  1.0000
  C   C375      1.0  0.99278  0.48913  0.65732  1.0000
  C   C376      1.0  0.99587  0.28097  0.87538  1.0000
  C   C377      1.0  0.99378  0.27775  0.69994  1.0000
  C   C378      1.0  0.99741  0.30298  0.87395  1.0000
  H   H304      1.0  0.99389  0.33209  0.85404  1.0000
  H   H305      1.0  0.99269  0.44737  0.62607  1.0000
  C   C379      1.0  0.99287  0.24513  0.81425  1.0000
  C   C380      1.0  0.99273  0.31502  0.85513  1.0000
  Fe  Fe30      1.0  0.08070  0.58628  0.44059  1.0000
  S   S58       1.0  0.09085  0.59376  0.40546  1.0000
  S   S59       1.0  0.10184  0.58566  0.46791  1.0000
  Fe  Fe31      1.0  0.03779  0.57423  0.43131  1.0000
  S   S60       1.0  0.04364  0.58070  0.39590  1.0000
  C   C381      1.0  0.02807  0.55332  0.33071  1.0000
  Fe  Fe32      1.0  0.07493  0.56394  0.40019  1.0000
  S   S61       1.0  0.08729  0.54167  0.37513  1.0000
  Fe  Fe33      1.0  0.05874  0.60996  0.40363  1.0000
  S   S62       1.0  0.04919  0.64123  0.38581  1.0000
  S   S63       1.0  0.06787  0.55501  0.43509  1.0000
  S   S64       1.0  0.04985  0.60495  0.43926  1.0000
  H   H306      1.0  0.06584  0.53875  0.25517  1.0000
  Fe  Fe34      1.0  0.21525  0.72354  0.13823  1.0000
  S   S65       1.0  0.20787  0.75544  0.12165  1.0000
  S   S66       1.0  0.19135  0.70413  0.15926  1.0000
  C   C382      1.0  0.10483  0.50279  0.36700  1.0000
  H   H307      1.0  0.23008  0.85050  0.20443  1.0000
  H   H308      1.0  0.16469  0.78922  0.10299  1.0000
  C   C383      1.0  0.00756  0.68574  0.39535  1.0000
  H   H309      1.0  0.20651  0.80556  0.27732  1.0000
  H   H310      1.0  0.04956  0.77437  0.45842  1.0000
  Fe  Fe35      1.0  0.19970  0.87104  0.27614  1.0000
  S   S67       1.0  0.21703  0.88225  0.24464  1.0000
  S   S68       1.0  0.16543  0.86280  0.27503  1.0000
  Fe  Fe36      1.0  0.23115  0.90623  0.26352  1.0000
  C   C384      1.0  0.18887  0.75520  0.29163  1.0000
  S   S69       1.0  0.21168  0.89703  0.29402  1.0000
  Fe  Fe37      1.0  0.10003  0.75659  0.28407  1.0000
  S   S70       1.0  0.11590  0.72870  0.26801  1.0000
  S   S71       1.0  0.12181  0.77519  0.30185  1.0000
  Fe  Fe38      1.0  0.05583  0.74501  0.27293  1.0000
  S   S72       1.0  0.06902  0.71683  0.25568  1.0000
  S   S73       1.0  0.02068  0.75506  0.27781  1.0000
  Fe  Fe39      1.0  0.08901  0.71005  0.28358  1.0000
  S   S74       1.0  0.09670  0.67674  0.29816  1.0000
  Fe  Fe40      1.0  0.09496  0.73777  0.24165  1.0000
  S   S75       1.0  0.10682  0.74223  0.20636  1.0000
  S   S76       1.0  0.07455  0.73708  0.30180  1.0000
  S   S77       1.0  0.08025  0.76687  0.25675  1.0000
  H   H311      1.0  0.07957  0.74081  0.35020  1.0000
  H   H312      1.0  0.01336  0.71733  0.25504  1.0000
  C   C385      1.0  0.19345  0.65942  0.06754  1.0000
  C   C386      1.0  0.23477  0.66107  0.04837  1.0000
  H   H313      1.0  0.14711  0.53616  0.34605  1.0000
  C   C387      1.0  0.08339  0.72611  0.35948  1.0000
  C   C388      1.0  0.15481  0.83739  0.28092  1.0000
  C   C389      1.0  0.16378  0.82194  0.29508  1.0000
  C   C390      1.0  0.15369  0.80285  0.30100  1.0000
  C   C391      1.0  0.13481  0.79872  0.29246  1.0000
  C   C392      1.0  0.12624  0.81384  0.27769  1.0000
  C   C393      1.0  0.13607  0.83315  0.27217  1.0000
  H   H314      1.0  0.17802  0.82508  0.30217  1.0000
  H   H315      1.0  0.16036  0.79139  0.31259  1.0000
  H   H316      1.0  0.11164  0.81100  0.27115  1.0000
  H   H317      1.0  0.12889  0.84504  0.26135  1.0000
  P   P13       1.0  0.06398  0.69668  0.41795  1.0000
  C   C394      1.0  0.20927  0.96789  0.26967  1.0000
  H   H318      1.0  0.22609  0.77335  0.32568  1.0000
  H   H319      1.0  0.01479  0.65798  0.13033  1.0000
  C   C395      1.0  0.16915  0.71614  0.17353  1.0000
  C   C396      1.0  0.15957  0.73534  0.16581  1.0000
  C   C397      1.0  0.14080  0.74339  0.17644  1.0000
  C   C398      1.0  0.13169  0.73271  0.19515  1.0000
  C   C399      1.0  0.14169  0.71394  0.20336  1.0000
  C   C400      1.0  0.16013  0.70553  0.19239  1.0000
  H   H320      1.0  0.16627  0.74367  0.15132  1.0000
  H   H321      1.0  0.13320  0.75791  0.17004  1.0000
  H   H322      1.0  0.13485  0.70557  0.21775  1.0000
  H   H323      1.0  0.16741  0.69066  0.19846  1.0000
  C   C401      1.0  0.13862  0.55146  0.34473  1.0000
  H   H324      1.0  0.18865  0.63793  0.04362  1.0000
  H   H325      1.0  0.20952  0.71567  0.05398  1.0000
  C   C402      1.0  0.22351  0.74230  0.03603  1.0000
  C   C403      1.0  0.10360  0.69272  0.36291  1.0000
  H   H326      1.0  0.19464  0.97543  0.33705  1.0000
  C   C404      1.0  0.24066  0.98362  0.25283  1.0000
  Fe  Fe41      1.0  0.23884  0.87385  0.30113  1.0000
  H   H327      1.0  0.03796  0.56681  0.47109  1.0000
  C   C405      1.0  0.06301  0.65153  0.36198  1.0000
  C   C406      1.0  0.08233  0.64228  0.35446  1.0000
  C   C407      1.0  0.09259  0.65028  0.33496  1.0000
  C   C408      1.0  0.08378  0.66777  0.32303  1.0000
  C   C409      1.0  0.06475  0.67744  0.33091  1.0000
  C   C410      1.0  0.05432  0.66923  0.35023  1.0000
  H   H328      1.0  0.08926  0.62898  0.36373  1.0000
  H   H329      1.0  0.10761  0.64316  0.32927  1.0000
  H   H330      1.0  0.05802  0.69113  0.32202  1.0000
  H   H331      1.0  0.03939  0.67652  0.35595  1.0000
  C   C411      1.0  0.17721  0.80039  0.13058  1.0000
  C   C412      1.0  0.21411  0.72277  0.03814  1.0000
  C   C413      1.0  0.04033  0.72550  0.44316  1.0000
  C   C414      1.0  0.20992  0.71282  0.01967  1.0000
  H   H332      1.0  0.21948  0.83627  0.17130  1.0000
  H   H333      1.0  0.12398  0.56717  0.26937  1.0000
  H   H334      1.0  0.23565  0.67888  0.00159  1.0000
  C   C415      1.0  0.02723  0.69357  0.39750  1.0000
  H   H335      1.0  0.03333  0.70536  0.38551  1.0000
  H   H336      1.0  0.22399  0.94764  0.30957  1.0000
  C   C416      1.0  0.07959  0.67826  0.43457  1.0000
  C   C417      1.0  0.08192  0.65675  0.43035  1.0000
  C   C418      1.0  0.09373  0.64237  0.44319  1.0000
  C   C419      1.0  0.10309  0.64924  0.46056  1.0000
  C   C420      1.0  0.10073  0.67055  0.46505  1.0000
  C   C421      1.0  0.08911  0.68505  0.45210  1.0000
  S   S78       1.0  0.00755  0.56036  0.44427  1.0000
  C   C422      1.0  0.12431  0.58429  0.26879  1.0000
  H   H337      1.0  0.07458  0.65105  0.41715  1.0000
  H   H338      1.0  0.09549  0.62579  0.43987  1.0000
  H   H339      1.0  0.21506  0.78101  0.20367  1.0000
  C   C423      1.0  0.99748  0.67335  0.31938  1.0000
  H   H340      1.0  0.06895  0.61786  0.47882  1.0000
  C   C424      1.0  0.14058  0.79363  0.12883  1.0000
  C   C425      1.0  0.13611  0.79968  0.14984  1.0000
  C   C426      1.0  0.15226  0.80602  0.16139  1.0000
  C   C427      1.0  0.17291  0.80596  0.15169  1.0000
  P   P14       1.0  0.14706  0.81330  0.18877  1.0000
  C   C428      1.0  0.16018  0.83723  0.19229  1.0000
  C   C429      1.0  0.11919  0.81823  0.19514  1.0000
  C   C430      1.0  0.11022  0.83899  0.19571  1.0000
  C   C431      1.0  0.08872  0.84239  0.20155  1.0000
  C   C432      1.0  0.07607  0.82512  0.20674  1.0000
  C   C433      1.0  0.08488  0.80444  0.20596  1.0000
  C   C434      1.0  0.10633  0.80104  0.20019  1.0000
  C   C435      1.0  0.16267  0.84321  0.21299  1.0000
  C   C436      1.0  0.17333  0.86137  0.21567  1.0000
  C   C437      1.0  0.18132  0.87388  0.19784  1.0000
  C   C438      1.0  0.17820  0.86855  0.17719  1.0000
  C   C439      1.0  0.16742  0.85049  0.17440  1.0000
  C   C440      1.0  0.15556  0.79148  0.20706  1.0000
  C   C441      1.0  0.16907  0.77478  0.19967  1.0000
  C   C442      1.0  0.17414  0.75720  0.21358  1.0000
  C   C443      1.0  0.16596  0.75618  0.23501  1.0000
  C   C444      1.0  0.15272  0.77276  0.24257  1.0000
  C   C445      1.0  0.14750  0.79031  0.22869  1.0000
  H   H341      1.0  0.12815  0.78851  0.12007  1.0000
  H   H342      1.0  0.12015  0.79912  0.15703  1.0000
  H   H343      1.0  0.18578  0.81017  0.16048  1.0000
  H   H344      1.0  0.11978  0.85257  0.19196  1.0000
  H   H345      1.0  0.08193  0.85842  0.20233  1.0000
  H   H346      1.0  0.05949  0.82774  0.21157  1.0000
  H   H347      1.0  0.07523  0.79096  0.21015  1.0000
  H   H348      1.0  0.11303  0.78497  0.19991  1.0000
  H   H349      1.0  0.15676  0.83377  0.22713  1.0000
  H   H350      1.0  0.17560  0.86571  0.23162  1.0000
  H   H351      1.0  0.18985  0.88773  0.20010  1.0000
  H   H352      1.0  0.18426  0.87835  0.16334  1.0000
  H   H353      1.0  0.16489  0.84699  0.15823  1.0000
  H   H354      1.0  0.17549  0.77490  0.18314  1.0000
  H   H355      1.0  0.18420  0.74422  0.20757  1.0000
  H   H356      1.0  0.16965  0.74243  0.24569  1.0000
  H   H357      1.0  0.14613  0.77182  0.25911  1.0000
  H   H358      1.0  0.13674  0.80268  0.23476  1.0000
  C   C446      1.0  0.07106  0.52415  0.30795  1.0000
  C   C447      1.0  0.08569  0.55850  0.29791  1.0000
  C   C448      1.0  0.08069  0.54198  0.31350  1.0000
  P   P15       1.0  0.09643  0.58222  0.30572  1.0000
  C   C449      1.0  0.11375  0.57584  0.32686  1.0000
  C   C450      1.0  0.11238  0.59575  0.28430  1.0000
  C   C451      1.0  0.11403  0.61783  0.28383  1.0000
  C   C452      1.0  0.11618  0.59065  0.34184  1.0000
  C   C453      1.0  0.07382  0.59883  0.31420  1.0000
  C   C454      1.0  0.06481  0.59652  0.33542  1.0000
  C   C455      1.0  0.04687  0.60894  0.34173  1.0000
  C   C456      1.0  0.03799  0.62386  0.32711  1.0000
  C   C457      1.0  0.04663  0.62599  0.30586  1.0000
  C   C458      1.0  0.06428  0.61327  0.29930  1.0000
  C   C459      1.0  0.23860  0.93487  0.33785  1.0000
  H   H359      1.0  0.08398  0.54293  0.33005  1.0000
  H   H360      1.0  0.10563  0.62700  0.29605  1.0000
  H   H361      1.0  0.10779  0.60591  0.34076  1.0000
  H   H362      1.0  0.13064  0.59705  0.37032  1.0000
  H   H363      1.0  0.07171  0.58530  0.34714  1.0000
  H   H364      1.0  0.04019  0.60763  0.35819  1.0000
  H   H365      1.0  0.02467  0.63398  0.33249  1.0000
  H   H366      1.0  0.03981  0.63769  0.29456  1.0000
  H   H367      1.0  0.07058  0.61495  0.28270  1.0000
  C   C460      1.0  0.12668  0.62840  0.26758  1.0000
  C   C461      1.0  0.13700  0.59491  0.25252  1.0000
  C   C462      1.0  0.03175  0.52807  0.36147  1.0000
  C   C463      1.0  0.21875  0.82715  0.01453  1.0000
  H   H368      1.0  0.18487  0.99010  0.28150  1.0000
  C   C464      1.0  0.05230  0.75954  0.45080  1.0000
  C   C465      1.0  0.07969  0.50282  0.39817  1.0000
  C   C466      1.0  0.03892  0.68595  0.41475  1.0000
  H   H369      1.0  0.12774  0.64548  0.26740  1.0000
  C   C467      1.0  0.22554  0.74119  0.99683  1.0000
  S   S79       1.0  0.22495  0.84720  0.28600  1.0000
  H   H370      1.0  0.08257  0.57047  0.26494  1.0000
  C   C468      1.0  0.06461  0.50883  0.47828  1.0000
  C   C469      1.0  0.01654  0.72561  0.19620  1.0000
  C   C470      1.0  0.21547  0.72205  0.99889  1.0000
  C   C471      1.0  0.13811  0.61697  0.25186  1.0000
  C   C472      1.0  0.07985  0.55744  0.27694  1.0000
  H   H371      1.0  0.04693  0.65838  0.25161  1.0000
  S   S80       1.0  0.24068  0.94010  0.25241  1.0000
  C   C473      1.0  0.07484  0.73627  0.42882  1.0000
  C   C474      1.0  0.00794  0.50619  0.40753  1.0000
  H   H372      1.0  0.00979  0.71339  0.18826  1.0000
  C   C475      1.0  0.01800  0.51474  0.35342  1.0000
  C   C476      1.0  0.06587  0.52290  0.28689  1.0000
  C   C477      1.0  0.23992  0.80798  0.17356  1.0000
  S   S81       1.0  0.22775  0.75646  0.05855  1.0000
  H   H373      1.0  0.22594  0.72425  0.26235  1.0000
  C   C478      1.0  0.01080  0.66275  0.42776  1.0000
  H   H374      1.0  0.05973  0.52392  0.47039  1.0000
  C   C479      1.0  0.03040  0.67067  0.43005  1.0000
  C   C480      1.0  0.21584  0.81396  0.99828  1.0000
  C   C481      1.0  0.20053  0.98838  0.27357  1.0000
  H   H375      1.0  0.99548  0.73375  0.32655  1.0000
  H   H376      1.0  0.02617  0.71685  0.30656  1.0000
  C   C482      1.0  0.22932  0.96538  0.25902  1.0000
  C   C483      1.0  0.14033  0.56603  0.36006  1.0000
  C   C484      1.0  0.22174  0.77379  0.23662  1.0000
  H   H377      1.0  0.10658  0.71514  0.33523  1.0000
  C   C485      1.0  0.09311  0.68800  0.38312  1.0000
  C   C486      1.0  0.23721  0.78395  0.31727  1.0000
  H   H378      1.0  0.23899  0.68257  0.07280  1.0000
  H   H379      1.0  0.20425  0.71116  0.33499  1.0000
  H   H380      1.0  0.09690  0.67296  0.39163  1.0000
  H   H381      1.0  0.04732  0.55740  0.35652  1.0000
  C   C487      1.0  0.00298  0.74088  0.20590  1.0000
  H   H382      1.0  0.15007  0.56200  0.37326  1.0000
  C   C488      1.0  0.04288  0.69053  0.16854  1.0000
  C   C489      1.0  0.01104  0.75629  0.21723  1.0000
  C   C490      1.0  0.03351  0.65659  0.15748  1.0000
  H   H383      1.0  0.05830  0.50911  0.28265  1.0000
  P   P16       1.0  0.23064  0.76506  0.27946  1.0000
  C   C491      1.0  0.01487  0.53984  0.32226  1.0000
  P   P17       1.0  0.05626  0.70602  0.18561  1.0000
  C   C492      1.0  0.03838  0.72592  0.19744  1.0000
  C   C493      1.0  0.06576  0.68948  0.20799  1.0000
  C   C494      1.0  0.05131  0.67871  0.22249  1.0000
  C   C495      1.0  0.05820  0.66623  0.24024  1.0000
  C   C496      1.0  0.07955  0.66458  0.24377  1.0000
  C   C497      1.0  0.09400  0.67543  0.22956  1.0000
  C   C498      1.0  0.08716  0.68795  0.21182  1.0000
  C   C499      1.0  0.04625  0.74122  0.20922  1.0000
  C   C500      1.0  0.03265  0.75635  0.21905  1.0000
  H   H384      1.0  0.23037  0.75916  0.23300  1.0000
  H   H385      1.0  0.08330  0.76693  0.43697  1.0000
  C   C501      1.0  0.09273  0.59668  0.49234  1.0000
  C   C502      1.0  0.07736  0.71750  0.16825  1.0000
  C   C503      1.0  0.09373  0.70423  0.15947  1.0000
  C   C504      1.0  0.11005  0.71283  0.14580  1.0000
  C   C505      1.0  0.10984  0.73465  0.14031  1.0000
  C   C506      1.0  0.09334  0.74792  0.14853  1.0000
  C   C507      1.0  0.07708  0.73939  0.16234  1.0000
  C   C508      1.0  0.17337  0.74344  0.30340  1.0000
  C   C509      1.0  0.03587  0.56939  0.48796  1.0000
  C   C510      1.0  0.19976  0.64759  0.04996  1.0000
  C   C511      1.0  0.20843  0.79997  0.26134  1.0000
  H   H386      1.0  0.22786  0.85781  0.02190  1.0000
  H   H387      1.0  0.03465  0.68031  0.22027  1.0000
  C   C512      1.0  0.21558  0.73504  0.31100  1.0000
  H   H388      1.0  0.08481  0.65560  0.25796  1.0000
  H   H389      1.0  0.11042  0.67483  0.23275  1.0000
  H   H390      1.0  0.09854  0.69696  0.20170  1.0000
  H   H391      1.0  0.06290  0.74126  0.21110  1.0000
  H   H392      1.0  0.03874  0.76770  0.22870  1.0000
  H   H393      1.0  0.08751  0.70142  0.45602  1.0000
  S   S82       1.0  0.23127  0.79833  0.15000  1.0000
  H   H394      1.0  0.15700  0.74663  0.30040  1.0000
  H   H395      1.0  0.09410  0.68728  0.16353  1.0000
  H   H396      1.0  0.12313  0.70265  0.13982  1.0000
  H   H397      1.0  0.12279  0.74132  0.13017  1.0000
  H   H398      1.0  0.09340  0.76488  0.14462  1.0000
  H   H399      1.0  0.06455  0.75000  0.16855  1.0000
  H   H400      1.0  0.11517  0.68138  0.35614  1.0000
  C   C513      1.0  0.99939  0.67026  0.41042  1.0000
  Fe  Fe42      1.0  0.22997  0.74486  0.09400  1.0000
  H   H401      1.0  0.03194  0.56827  0.32204  1.0000
  H   H402      1.0  0.00300  0.51842  0.43872  1.0000
  H   H403      1.0  0.16598  0.98566  0.36416  1.0000
  C   C514      1.0  0.05931  0.72127  0.43084  1.0000
  H   H404      1.0  0.02819  0.71412  0.44516  1.0000
  H   H405      1.0  0.08970  0.73320  0.41960  1.0000
  H   H406      1.0  0.20031  0.95407  0.27445  1.0000
  C   C515      1.0  0.09872  0.71172  0.35108  1.0000
  C   C516      1.0  0.21306  0.78616  0.21985  1.0000
  C   C517      1.0  0.07130  0.75536  0.43872  1.0000
  H   H407      1.0  0.00397  0.60622  0.43917  1.0000
  C   C518      1.0  0.02271  0.66703  0.14090  1.0000
  C   C519      1.0  0.17888  0.72763  0.31904  1.0000
  C   C520      1.0  0.07018  0.53958  0.27141  1.0000
  C   C521      1.0  0.23711  0.83560  0.19927  1.0000
  C   C522      1.0  0.12929  0.58572  0.35847  1.0000
  H   H408      1.0  0.14802  0.62519  0.23935  1.0000
  C   C523      1.0  0.12555  0.55641  0.32804  1.0000
  C   C524      1.0  0.99835  0.72540  0.25913  1.0000
  H   H409      1.0  0.21091  0.79797  0.00271  1.0000
  C   C525      1.0  0.16112  0.79404  0.11919  1.0000
  C   C526      1.0  0.20776  0.67187  0.07572  1.0000
  H   H410      1.0  0.14618  0.58603  0.24055  1.0000
  C   C527      1.0  0.09071  0.51396  0.38084  1.0000
  H   H411      1.0  0.12443  0.54491  0.31634  1.0000
  C   C528      1.0  0.20223  0.80542  0.22375  1.0000
  C   C529      1.0  0.19065  0.99204  0.33928  1.0000
  C   C530      1.0  0.01008  0.50568  0.42959  1.0000
  C   C531      1.0  0.99757  0.74371  0.27045  1.0000
  H   H412      1.0  0.06736  0.51149  0.32016  1.0000
  C   C532      1.0  0.19999  0.72344  0.32287  1.0000
  H   H413      1.0  0.02214  0.74783  0.46246  1.0000
  C   C533      1.0  0.22551  0.84765  0.00925  1.0000
  H   H414      1.0  0.03900  0.52361  0.37631  1.0000
  H   H415      1.0  0.21599  0.82133  0.03126  1.0000
  H   H416      1.0  0.03215  0.71801  0.14890  1.0000
  C   C534      1.0  0.03663  0.54732  0.35019  1.0000
  C   C535      1.0  0.07780  0.70245  0.39182  1.0000
  C   C536      1.0  0.07289  0.72148  0.37968  1.0000
  H   H417      1.0  0.19174  0.82746  0.24751  1.0000
  H   H418      1.0  0.99785  0.65669  0.31651  1.0000
  H   H419      1.0  0.06851  0.51131  0.40877  1.0000
  H   H420      1.0  0.20217  0.69797  0.02152  1.0000
  H   H421      1.0  0.00346  0.57944  0.48690  1.0000
  C   C537      1.0  0.22036  0.64828  0.04048  1.0000
  H   H422      1.0  0.19322  0.80063  0.12326  1.0000
  H   H423      1.0  0.18405  0.76740  0.27969  1.0000
  H   H424      1.0  0.17747  0.65896  0.07486  1.0000
  Fe  Fe43      1.0  0.23626  0.76555  0.13652  1.0000
  C   C538      1.0  0.21014  0.75105  0.29533  1.0000
  C   C539      1.0  0.03685  0.74461  0.45305  1.0000
  C   C540      1.0  0.03246  0.70086  0.15151  1.0000
  H   H425      1.0  0.02742  0.67840  0.30155  1.0000
  H   H426      1.0  0.06089  0.73277  0.38576  1.0000
  C   C541      1.0  0.19987  0.81235  0.24448  1.0000
  H   H427      1.0  0.16672  0.71869  0.32817  1.0000
  S   S83       1.0  0.23505  0.71170  0.10925  1.0000
  C   C542      1.0  0.21950  0.78064  0.25751  1.0000
  H   H428      1.0  0.00458  0.65058  0.43932  1.0000
  H   H429      1.0  0.03890  0.66466  0.44365  1.0000
  C   C543      1.0  0.01410  0.68558  0.31071  1.0000
  C   C544      1.0  0.04370  0.66825  0.17118  1.0000
  H   H430      1.0  0.11195  0.63792  0.47066  1.0000
  H   H431      1.0  0.05226  0.65981  0.18366  1.0000
  H   H432      1.0  0.19620  0.81515  0.21049  1.0000
  H   H433      1.0  0.00908  0.62362  0.38446  1.0000
  H   H434      1.0  0.22496  0.63887  0.02698  1.0000
  C   C545      1.0  0.01345  0.70727  0.31357  1.0000
  C   C546      1.0  0.22832  0.67270  0.06621  1.0000
  C   C547      1.0  0.01002  0.52049  0.33345  1.0000
  C   C548      1.0  0.07643  0.61239  0.49320  1.0000
  H   H435      1.0  0.00045  0.76758  0.22548  1.0000
  C   C549      1.0  0.02227  0.68916  0.13786  1.0000
  H   H436      1.0  0.99879  0.69150  0.38183  1.0000
  C   C550      1.0  0.22913  0.75145  0.01527  1.0000
  H   H437      1.0  0.20291  0.68106  0.08939  1.0000
  H   H438      1.0  0.11325  0.51120  0.35353  1.0000
  C   C551      1.0  0.99616  0.71676  0.32503  1.0000
  H   H439      1.0  0.10783  0.67577  0.47870  1.0000
  H   H440      1.0  0.01405  0.69727  0.12491  1.0000
  H   H441      1.0  0.03403  0.63942  0.15969  1.0000
  H   H442      1.0  0.23045  0.92019  0.33902  1.0000
  C   C552      1.0  0.23115  0.82748  0.18044  1.0000
  C   C553      1.0  0.23499  0.95031  0.32122  1.0000
  H   H443      1.0  0.01870  0.53086  0.48809  1.0000
  H   H444      1.0  0.23191  0.73153  0.31397  1.0000
  H   H445      1.0  0.23653  0.76646  0.01355  1.0000
  H   H446      1.0  0.00003  0.51004  0.32657  1.0000
  H   H447      1.0  0.99661  0.65586  0.36385  1.0000
  H   H448      1.0  0.00846  0.54436  0.30701  1.0000
  H   H449      1.0  0.99928  0.51952  0.39990  1.0000
  H   H450      1.0  0.06817  0.56074  0.49303  1.0000
  H   H451      1.0  0.24149  0.79967  0.34583  1.0000
  C   C554      1.0  0.24242  0.78336  0.29506  1.0000
  C   C555      1.0  0.99490  0.62348  0.37618  1.0000
  C   C556      1.0  0.24261  0.72678  0.26176  1.0000
  Fe  Fe44      1.0  0.05560  0.57298  0.61755  1.0000
  S   S84       1.0  0.08617  0.58928  0.60961  1.0000
  S   S85       1.0  0.04386  0.53961  0.62055  1.0000
  Fe  Fe45      1.0  0.03025  0.61469  0.62195  1.0000
  S   S86       1.0  0.05799  0.63470  0.61450  1.0000
  C   C557      1.0  0.17575  0.79938  0.97283  1.0000
  Fe  Fe46      1.0  0.06732  0.61248  0.58842  1.0000
  S   S87       1.0  0.07320  0.62843  0.55488  1.0000
  Fe  Fe47      1.0  0.07458  0.61060  0.63616  1.0000
  S   S88       1.0  0.09214  0.61809  0.66456  1.0000
  S   S89       1.0  0.03797  0.59463  0.59434  1.0000
  S   S90       1.0  0.04580  0.59226  0.64559  1.0000
  H   H452      1.0  0.13855  0.87146  0.80892  1.0000
  Fe  Fe48      1.0  0.20417  0.85440  0.74880  1.0000
  S   S91       1.0  0.19171  0.87210  0.77709  1.0000
  S   S92       1.0  0.18476  0.83446  0.72994  1.0000
  Fe  Fe49      1.0  0.21284  0.89822  0.76400  1.0000
  S   S93       1.0  0.19899  0.93256  0.76221  1.0000
  H   H453      1.0  0.20897  0.78835  0.69227  1.0000
  H   H454      1.0  0.12501  0.76499  0.80662  1.0000
  S   S94       1.0  0.22303  0.88171  0.73387  1.0000
  C   C558      1.0  0.99924  0.72338  0.77845  1.0000
  H   H455      1.0  0.23543  0.79537  0.79879  1.0000
  H   H456      1.0  0.10316  0.86066  0.82388  1.0000
  Fe  Fe50      1.0  0.19229  0.71107  0.89809  1.0000
  S   S95       1.0  0.20107  0.73883  0.91532  1.0000
  S   S96       1.0  0.15936  0.71207  0.88672  1.0000
  H   H457      1.0  0.23006  0.84752  0.95479  1.0000
  H   H458      1.0  0.09850  0.82438  0.84046  1.0000
  Fe  Fe51      1.0  0.21497  0.71472  0.93955  1.0000
  C   C559      1.0  0.04694  0.65516  0.78138  1.0000
  S   S97       1.0  0.22250  0.70853  0.87739  1.0000
  S   S98       1.0  0.20365  0.68735  0.92362  1.0000
  Fe  Fe52      1.0  0.05846  0.72233  0.77229  1.0000
  S   S99       1.0  0.08051  0.69552  0.76082  1.0000
  S   S100      1.0  0.02488  0.71327  0.78493  1.0000
  Fe  Fe53      1.0  0.09351  0.75446  0.76265  1.0000
  S   S101      1.0  0.11686  0.73018  0.74932  1.0000
  S   S102      1.0  0.10275  0.78749  0.76913  1.0000
  Fe  Fe54      1.0  0.08996  0.71853  0.73320  1.0000
  S   S103      1.0  0.09128  0.71097  0.69809  1.0000
  Fe  Fe55      1.0  0.10551  0.70931  0.77822  1.0000
  S   S104      1.0  0.13178  0.69097  0.79548  1.0000
  S   S105      1.0  0.06721  0.74505  0.74395  1.0000
  S   S106      1.0  0.08287  0.73391  0.79223  1.0000
  H   H459      1.0  0.02626  0.52173  0.52604  1.0000
  H   H460      1.0  0.00949  0.74925  0.75646  1.0000
  H   H461      1.0  0.16473  0.80945  0.82672  1.0000
  C   C560      1.0  0.18088  0.77416  0.68547  1.0000
  C   C561      1.0  0.15260  0.70746  0.86060  1.0000
  C   C562      1.0  0.16673  0.69746  0.84580  1.0000
  C   C563      1.0  0.16013  0.69252  0.82594  1.0000
  C   C564      1.0  0.13963  0.69828  0.82029  1.0000
  C   C565      1.0  0.12575  0.70900  0.83477  1.0000
  C   C566      1.0  0.13212  0.71324  0.85493  1.0000
  H   H462      1.0  0.18258  0.69318  0.84985  1.0000
  H   H463      1.0  0.17095  0.68432  0.81482  1.0000
  H   H464      1.0  0.10993  0.71352  0.83068  1.0000
  H   H465      1.0  0.12100  0.72086  0.86627  1.0000
  C   C567      1.0  0.01099  0.73219  0.70135  1.0000
  C   C568      1.0  0.09987  0.53828  0.55580  1.0000
  H   H466      1.0  0.16921  0.84577  0.81086  1.0000
  H   H467      1.0  0.09785  0.79592  0.81339  1.0000
  C   C569      1.0  0.09690  0.51881  0.54767  1.0000
  H   H468      1.0  0.10123  0.75817  0.87357  1.0000
  H   H469      1.0  0.19210  0.80963  0.85583  1.0000
  C   C570      1.0  0.13646  0.85553  0.81618  1.0000
  C   C571      1.0  0.16281  0.82057  0.74194  1.0000
  C   C572      1.0  0.15253  0.82561  0.76167  1.0000
  C   C573      1.0  0.13440  0.81505  0.77000  1.0000
  C   C574      1.0  0.12669  0.79895  0.75903  1.0000
  C   C575      1.0  0.13738  0.79345  0.73964  1.0000
  C   C576      1.0  0.15508  0.80450  0.73100  1.0000
  H   H470      1.0  0.15817  0.83806  0.77018  1.0000
  H   H471      1.0  0.12615  0.81957  0.78488  1.0000
  H   H472      1.0  0.13150  0.78131  0.73086  1.0000
  H   H473      1.0  0.16265  0.80080  0.71560  1.0000
  C   C577      1.0  0.19489  0.82244  0.92223  1.0000
  C   C578      1.0  0.13522  0.80505  0.88403  1.0000
  C   C579      1.0  0.20018  0.97612  0.75724  1.0000
  C   C580      1.0  0.21132  0.95696  0.76303  1.0000
  C   C581      1.0  0.06619  0.50703  0.50048  1.0000
  H   H474      1.0  0.16844  0.99045  0.81396  1.0000
  H   H475      1.0  0.06680  0.74439  0.86919  1.0000
  H   H476      1.0  0.18469  0.97564  0.75164  1.0000
  C   C582      1.0  0.15113  0.82035  0.82604  1.0000
  C   C583      1.0  0.09136  0.64399  0.67383  1.0000
  C   C584      1.0  0.08926  0.66214  0.65978  1.0000
  C   C585      1.0  0.08975  0.68247  0.66740  1.0000
  C   C586      1.0  0.09178  0.68493  0.68924  1.0000
  C   C587      1.0  0.09371  0.66678  0.70337  1.0000
  C   C588      1.0  0.09380  0.64642  0.69562  1.0000
  H   H477      1.0  0.08766  0.66051  0.64295  1.0000
  H   H478      1.0  0.08830  0.69639  0.65635  1.0000
  H   H479      1.0  0.09532  0.66841  0.72020  1.0000
  H   H480      1.0  0.09574  0.63251  0.70657  1.0000
  C   C589      1.0  0.07979  0.61475  0.53150  1.0000
  C   C590      1.0  0.07032  0.62169  0.51260  1.0000
  C   C591      1.0  0.07684  0.51056  0.54937  1.0000
  H   H481      1.0  0.14877  0.73965  0.78768  1.0000
  C   C592      1.0  0.09570  0.59861  0.53080  1.0000
  H   H482      1.0  0.05838  0.63449  0.51289  1.0000
  H   H483      1.0  0.10349  0.59357  0.54513  1.0000
  C   C593      1.0  0.14023  0.76091  0.81254  1.0000
  H   H484      1.0  0.02996  0.58138  0.54788  1.0000
  H   H485      1.0  0.06349  0.78204  0.80933  1.0000
  H   H486      1.0  0.13109  0.82034  0.87610  1.0000
  C   C594      1.0  0.15759  0.76661  0.97637  1.0000
  C   C595      1.0  0.08289  0.54962  0.56577  1.0000
  H   H487      1.0  0.20732  0.77762  0.87566  1.0000
  H   H488      1.0  0.20736  0.75857  0.95395  1.0000
  C   C596      1.0  0.13118  0.81392  0.83405  1.0000
  C   C597      1.0  0.17548  0.75610  0.96703  1.0000
  C   C598      1.0  0.99456  0.61915  0.76166  1.0000
  H   H489      1.0  0.23483  0.87076  0.98362  1.0000
  C   C599      1.0  0.23505  0.72352  0.71941  1.0000
  C   C600      1.0  0.02590  0.58218  0.72967  1.0000
  C   C601      1.0  0.22666  0.84170  0.97136  1.0000
  C   C602      1.0  0.06282  0.54179  0.56714  1.0000
  C   C603      1.0  0.02853  0.63931  0.68702  1.0000
  H   H490      1.0  0.07830  0.50831  0.67372  1.0000
  C   C604      1.0  0.99684  0.50703  0.53465  1.0000
  C   C605      1.0  0.15382  0.74661  0.80154  1.0000
  S   S107      1.0  0.21044  0.84225  0.82690  1.0000
  H   H491      1.0  0.20194  0.67698  0.78927  1.0000
  C   C606      1.0  0.02367  0.76566  0.70949  1.0000
  H   H492      1.0  0.00463  0.67309  0.63024  1.0000
  S   S108      1.0  0.20919  0.70913  0.97619  1.0000
  C   C607      1.0  0.23228  0.60127  0.88054  1.0000
  C   C608      1.0  0.19358  0.76715  0.96071  1.0000
  H   H493      1.0  0.21000  0.84787  0.87388  1.0000
  C   C609      1.0  0.18653  0.96097  0.81254  1.0000
  C   C610      1.0  0.99464  0.61404  0.54466  1.0000
  H   H494      1.0  0.23270  0.94908  0.83499  1.0000
  C   C611      1.0  0.00733  0.52281  0.49918  1.0000
  H   H495      1.0  0.03085  0.64854  0.65318  1.0000
  H   H496      1.0  0.17856  0.78488  0.67142  1.0000
  C   C612      1.0  0.07142  0.77739  0.82373  1.0000
  H   H497      1.0  0.08922  0.52835  0.61849  1.0000
  H   H498      1.0  0.00630  0.57246  0.66208  1.0000
  C   C613      1.0  0.07340  0.75609  0.85735  1.0000
  C   C614      1.0  0.17350  0.74072  0.80885  1.0000
  C   C615      1.0  0.10231  0.58980  0.51121  1.0000
  C   C616      1.0  0.19388  0.78886  0.96357  1.0000
  C   C617      1.0  0.19323  0.83334  0.90207  1.0000
  C   C618      1.0  0.03244  0.65348  0.66910  1.0000
  C   C619      1.0  0.09298  0.76402  0.85979  1.0000
  C   C620      1.0  0.04777  0.49656  0.62609  1.0000
  H   H499      1.0  0.17583  0.95403  0.80288  1.0000
  H   H500      1.0  0.11035  0.51028  0.54016  1.0000
  C   C621      1.0  0.23811  0.80447  0.71949  1.0000
  C   C622      1.0  0.19699  0.99108  0.83022  1.0000
  C   C623      1.0  0.04113  0.68000  0.69217  1.0000
  H   H501      1.0  0.23483  0.67078  0.96384  1.0000
  C   C624      1.0  0.06655  0.49665  0.67772  1.0000
  C   C625      1.0  0.21128  0.83972  0.88965  1.0000
  P   P18       1.0  0.21728  0.80329  0.95590  1.0000
  C   C626      1.0  0.03747  0.66582  0.71016  1.0000
  C   C627      1.0  0.21391  0.66817  0.77978  1.0000
  H   H502      1.0  0.04394  0.51709  0.55978  1.0000
  C   C628      1.0  0.03686  0.60031  0.72235  1.0000
  C   C629      1.0  0.02756  0.74439  0.70529  1.0000
  H   H503      1.0  0.99446  0.73434  0.65543  1.0000
  C   C630      1.0  0.05018  0.56055  0.70752  1.0000
  C   C631      1.0  0.06125  0.57848  0.70034  1.0000
  C   C632      1.0  0.05467  0.59822  0.70778  1.0000
  C   C633      1.0  0.20460  0.94925  0.81840  1.0000
  C   C634      1.0  0.22995  0.78147  0.76964  1.0000
  C   C635      1.0  0.14624  0.76947  0.83098  1.0000
  C   C636      1.0  0.22158  0.81849  0.83911  1.0000
  H   H504      1.0  0.04964  0.55072  0.57476  1.0000
  C   C637      1.0  0.04323  0.63370  0.75149  1.0000
  C   C638      1.0  0.06394  0.62537  0.75309  1.0000
  C   C639      1.0  0.07595  0.63180  0.76883  1.0000
  C   C640      1.0  0.06743  0.64660  0.78303  1.0000
  C   C641      1.0  0.99681  0.52354  0.68655  1.0000
  C   C642      1.0  0.21480  0.97897  0.83660  1.0000
  H   H505      1.0  0.04688  0.69546  0.69406  1.0000
  C   C643      1.0  0.03150  0.64521  0.70768  1.0000
  P   P19       1.0  0.00203  0.49562  0.68242  1.0000
  C   C644      1.0  0.23278  0.82427  0.91744  1.0000
  H   H506      1.0  0.04009  0.67089  0.72577  1.0000
  C   C645      1.0  0.99746  0.68307  0.64245  1.0000
  H   H507      1.0  0.13981  0.75224  0.87647  1.0000
  H   H508      1.0  0.05524  0.54531  0.70156  1.0000
  H   H509      1.0  0.07483  0.57727  0.68875  1.0000
  H   H510      1.0  0.06336  0.61196  0.70188  1.0000
  C   C646      1.0  0.23985  0.97760  0.77204  1.0000
  C   C647      1.0  0.22376  0.78996  0.78925  1.0000
  C   C648      1.0  0.15374  0.84104  0.81714  1.0000
  C   C649      1.0  0.15770  0.78827  0.97922  1.0000
  H   H511      1.0  0.07105  0.61425  0.74201  1.0000
  H   H512      1.0  0.09206  0.62569  0.76974  1.0000
  H   H513      1.0  0.07693  0.65200  0.79488  1.0000
  H   H514      1.0  0.11537  0.54457  0.55449  1.0000
  C   C650      1.0  0.23104  0.83504  0.89725  1.0000
  H   H515      1.0  0.08518  0.56467  0.57210  1.0000
  C   C651      1.0  0.24056  0.69429  0.81778  1.0000
  C   C652      1.0  0.24066  0.78578  0.95365  1.0000
  H   H516      1.0  0.04775  0.75619  0.83710  1.0000
  C   C653      1.0  0.01373  0.58045  0.51898  1.0000
  H   H517      1.0  0.01212  0.58326  0.74090  1.0000
  P   P20       1.0  0.02784  0.62628  0.73062  1.0000
  H   H518      1.0  0.03172  0.65084  0.54357  1.0000
  H   H519      1.0  0.23893  0.52357  0.89311  1.0000
  H   H520      1.0  0.20588  0.60523  0.86121  1.0000
  H   H521      1.0  0.14386  0.79639  0.98659  1.0000
  C   C654      1.0  0.14135  0.80418  0.90503  1.0000
  C   C655      1.0  0.21733  0.78735  0.86461  1.0000
  H   H522      1.0  0.17547  0.73924  0.96500  1.0000
  C   C656      1.0  0.13470  0.78633  0.87345  1.0000
  C   C657      1.0  0.05971  0.52255  0.55868  1.0000
  H   H523      1.0  0.18803  0.73662  0.73660  1.0000
  C   C658      1.0  0.08067  0.51400  0.62121  1.0000
  C   C659      1.0  0.21889  0.59476  0.86612  1.0000
  C   C660      1.0  0.14704  0.78466  0.91557  1.0000
  P   P21       1.0  0.12825  0.78719  0.84581  1.0000
  H   H524      1.0  0.01023  0.71172  0.62719  1.0000
  H   H525      1.0  0.03650  0.77501  0.71290  1.0000
  P   P22       1.0  0.22333  0.76442  0.73129  1.0000
  H   H526      1.0  0.23243  0.66717  0.86181  1.0000
  C   C661      1.0  0.03118  0.57742  0.53128  1.0000
  C   C662      1.0  0.03491  0.64883  0.76564  1.0000
  C   C663      1.0  0.11395  0.82875  0.83374  1.0000
  H   H527      1.0  0.06427  0.56880  0.53108  1.0000
  H   H528      1.0  0.00480  0.55339  0.55715  1.0000
  C   C664      1.0  0.21842  0.98374  0.68492  1.0000
  H   H529      1.0  0.01255  0.53458  0.65603  1.0000
  C   C665      1.0  0.18626  0.74712  0.72228  1.0000
  C   C666      1.0  0.18734  0.78651  0.78323  1.0000
  H   H530      1.0  0.00019  0.50296  0.55119  1.0000
  H   H531      1.0  0.15736  0.73381  0.71573  1.0000
  H   H532      1.0  0.17169  0.77067  0.85162  1.0000
  H   H533      1.0  0.02403  0.54844  0.72781  1.0000
  C   C667      1.0  0.01160  0.51752  0.52049  1.0000
  C   C668      1.0  0.23148  0.73143  0.80759  1.0000
  H   H534      1.0  0.19771  0.79990  0.81075  1.0000
  C   C669      1.0  0.18261  0.98174  0.81857  1.0000
  C   C670      1.0  0.23133  0.95783  0.77021  1.0000
  C   C671      1.0  0.20094  0.76255  0.71589  1.0000
  C   C672      1.0  0.01777  0.64231  0.54894  1.0000
  Fe  Fe56      1.0  0.23208  0.73488  0.89583  1.0000
  H   H535      1.0  0.02376  0.62359  0.68460  1.0000
  C   C673      1.0  0.01628  0.57657  0.49713  1.0000
  C   C674      1.0  0.23284  0.66069  0.78834  1.0000
  C   C675      1.0  0.22248  0.57488  0.85780  1.0000
  C   C676      1.0  0.20874  0.80548  0.85331  1.0000
  C   C677      1.0  0.22084  0.93059  0.69154  1.0000
  C   C678      1.0  0.20425  0.93615  0.70660  1.0000
  C   C679      1.0  0.18682  0.92364  0.71057  1.0000
  C   C680      1.0  0.18578  0.90539  0.69963  1.0000
  C   C681      1.0  0.20216  0.89969  0.68462  1.0000
  C   C682      1.0  0.21964  0.91216  0.68061  1.0000
  H   H536      1.0  0.02117  0.62270  0.52237  1.0000
  C   C683      1.0  0.06264  0.76275  0.83931  1.0000
  H   H537      1.0  0.01934  0.65623  0.76420  1.0000
  P   P23       1.0  0.23802  0.66611  0.81537  1.0000
  C   C684      1.0  0.16621  0.75894  0.69209  1.0000
  C   C685      1.0  0.04519  0.50301  0.67865  1.0000
  H   H538      1.0  0.04238  0.68459  0.65770  1.0000
  H   H539      1.0  0.04062  0.66727  0.79187  1.0000
  H   H540      1.0  0.23520  0.77643  0.92207  1.0000
  H   H541      1.0  0.17078  0.78918  0.78814  1.0000
  C   C686      1.0  0.20981  0.66371  0.75908  1.0000
  S   S109      1.0  0.99763  0.62778  0.63078  1.0000
  C   C687      1.0  0.16890  0.74543  0.71049  1.0000
  H   H542      1.0  0.01426  0.71573  0.69826  1.0000
  C   C688      1.0  0.22952  0.70985  0.80523  1.0000
  H   H543      1.0  0.20499  0.94977  0.71590  1.0000
  H   H544      1.0  0.17448  0.92770  0.72277  1.0000
  H   H545      1.0  0.17258  0.89532  0.70325  1.0000
  H   H546      1.0  0.20155  0.88521  0.67657  1.0000
  C   C689      1.0  0.00322  0.77477  0.70949  1.0000
  H   H547      1.0  0.15205  0.78396  0.93170  1.0000
  H   H548      1.0  0.18364  0.72910  0.80068  1.0000
  C   C690      1.0  0.16637  0.76401  0.83777  1.0000
  C   C691      1.0  0.10187  0.77883  0.84424  1.0000
  C   C692      1.0  0.00032  0.56061  0.67410  1.0000
  C   C693      1.0  0.21698  0.65779  0.83496  1.0000
  H   H549      1.0  0.22395  0.81056  0.72820  1.0000
  C   C694      1.0  0.00065  0.70480  0.64078  1.0000
  C   C695      1.0  0.21868  0.95820  0.83052  1.0000
  C   C696      1.0  0.23931  0.56136  0.86411  1.0000
  C   C697      1.0  0.03259  0.56237  0.72229  1.0000
  H   H550      1.0  0.00278  0.58332  0.62220  1.0000
  C   C698      1.0  0.19922  0.64824  0.82905  1.0000
  C   C699      1.0  0.18272  0.64322  0.84446  1.0000
  C   C700      1.0  0.18413  0.64695  0.86596  1.0000
  C   C701      1.0  0.20222  0.65529  0.87213  1.0000
  C   C702      1.0  0.21853  0.66072  0.85672  1.0000
  C   C703      1.0  0.03873  0.67382  0.67165  1.0000
  C   C704      1.0  0.00040  0.62618  0.74026  1.0000
  S   S110      1.0  0.23137  0.83822  0.76505  1.0000
  Fe  Fe57      1.0  0.23492  0.68686  0.90426  1.0000
  C   C705      1.0  0.00403  0.53908  0.67085  1.0000
  S   S111      1.0  0.23985  0.88454  0.78233  1.0000
  H   H551      1.0  0.15074  0.75077  0.91328  1.0000
  H   H552      1.0  0.19487  0.74467  0.83293  1.0000
  C   C706      1.0  0.19346  0.77740  0.76391  1.0000
  C   C707      1.0  0.22446  0.65157  0.74674  1.0000
  C   C708      1.0  0.23594  0.73817  0.73501  1.0000
  H   H553      1.0  0.04102  0.51964  0.67550  1.0000
  Fe  Fe58      1.0  0.21966  0.85690  0.79308  1.0000
  C   C709      1.0  0.22944  0.85492  0.98768  1.0000
  H   H554      1.0  0.19771  0.64480  0.81268  1.0000
  H   H555      1.0  0.16860  0.63688  0.83964  1.0000
  H   H556      1.0  0.17114  0.64358  0.87782  1.0000
  H   H557      1.0  0.20350  0.65791  0.88885  1.0000
  C   C710      1.0  0.21471  0.81784  0.93011  1.0000
  C   C711      1.0  0.14630  0.76599  0.90525  1.0000
  C   C712      1.0  0.21488  0.77468  0.75697  1.0000
  H   H558      1.0  0.21229  0.57002  0.84632  1.0000
  H   H559      1.0  0.15258  0.75777  0.68315  1.0000
  H   H560      1.0  0.23037  0.74811  0.98105  1.0000
  H   H561      1.0  0.19506  0.66942  0.75276  1.0000
  C   C713      1.0  0.17979  0.74944  0.82695  1.0000
  H   H562      1.0  0.21923  0.70568  0.79371  1.0000
  H   H563      1.0  0.22113  0.64795  0.73077  1.0000
  H   H564      1.0  0.04345  0.73729  0.70525  1.0000
  H   H565      1.0  0.03078  0.49747  0.62739  1.0000
  C   C714      1.0  0.20247  0.79260  0.79597  1.0000
  H   H566      1.0  0.20929  0.97569  0.67455  1.0000
  H   H567      1.0  0.18071  0.81747  0.93139  1.0000
  C   C715      1.0  0.05064  0.57016  0.52194  1.0000
  H   H568      1.0  0.22254  0.74329  0.79822  1.0000
  C   C716      1.0  0.09096  0.78529  0.82612  1.0000
  H   H569      1.0  0.22652  0.72761  0.70531  1.0000
  C   C717      1.0  0.19813  0.77608  0.69738  1.0000
  C   C718      1.0  0.14008  0.76682  0.88434  1.0000
  H   H570      1.0  0.18130  0.77329  0.75428  1.0000
  H   H571      1.0  0.17801  0.83659  0.89582  1.0000
  H   H572      1.0  0.11499  0.57772  0.51064  1.0000
  C   C719      1.0  0.05869  0.51526  0.62262  1.0000
  H   H573      1.0  0.00020  0.79122  0.71297  1.0000
  C   C720      1.0  0.11657  0.84941  0.82458  1.0000
  H   H574      1.0  0.14178  0.81866  0.91307  1.0000
  H   H575      1.0  0.17562  0.81615  0.97525  1.0000
  C   C721      1.0  0.99608  0.74112  0.76405  1.0000
  H   H576      1.0  0.20779  0.93334  0.81321  1.0000
  H   H577      1.0  0.23940  0.93034  0.73254  1.0000
  H   H578      1.0  0.22981  0.61687  0.88670  1.0000
  H   H579      1.0  0.06254  0.52087  0.50947  1.0000
  C   C722      1.0  0.23613  0.97333  0.69360  1.0000
  H   H580      1.0  0.00642  0.61395  0.77256  1.0000
  C   C723      1.0  0.21971  0.82115  0.97656  1.0000
  H   H581      1.0  0.22580  0.98563  0.84610  1.0000
  C   C724      1.0  0.23897  0.78234  0.86215  1.0000
  C   C725      1.0  0.01184  0.62617  0.53706  1.0000
  H   H582      1.0  0.14374  0.75787  0.98151  1.0000
  H   H583      1.0  0.23224  0.90696  0.66936  1.0000
  C   C726      1.0  0.05293  0.56591  0.50036  1.0000
  C   C727      1.0  0.00633  0.64680  0.56822  1.0000
  H   H584      1.0  0.01142  0.65878  0.57777  1.0000
  H   H585      1.0  0.23997  0.94328  0.77501  1.0000
  H   H586      1.0  0.24222  0.54628  0.85707  1.0000
  C   C728      1.0  0.24180  0.78257  0.71777  1.0000
  H   H587      1.0  0.99310  0.70173  0.72962  1.0000
  Fe  Fe59      1.0  0.38728  0.39172  0.07076  1.0000
  S   S112      1.0  0.39456  0.35893  0.08480  1.0000
  S   S113      1.0  0.39844  0.39983  0.03639  1.0000
  Fe  Fe60      1.0  0.36987  0.40727  0.11298  1.0000
  S   S114      1.0  0.37569  0.37539  0.13108  1.0000
  S   S115      1.0  0.35644  0.43675  0.12894  1.0000
  Fe  Fe61      1.0  0.40692  0.37467  0.11149  1.0000
  S   S116      1.0  0.43780  0.36357  0.12500  1.0000
  Fe  Fe62      1.0  0.36272  0.36158  0.10307  1.0000
  S   S117      1.0  0.34723  0.32983  0.10336  1.0000
  S   S118      1.0  0.40217  0.40732  0.09593  1.0000
  S   S119      1.0  0.35438  0.39353  0.08642  1.0000
  Fe  Fe63      1.0  0.38389  0.06994  0.40294  1.0000
  S   S120      1.0  0.36942  0.10328  0.40163  1.0000
  S   S121      1.0  0.41703  0.05671  0.39416  1.0000
  Fe  Fe64      1.0  0.34384  0.05109  0.42220  1.0000
  S   S122      1.0  0.32603  0.08249  0.42340  1.0000
  S   S123      1.0  0.32901  0.02042  0.43332  1.0000
  Fe  Fe65      1.0  0.34095  0.08952  0.38996  1.0000
  S   S124      1.0  0.31809  0.10728  0.36792  1.0000
  Fe  Fe66      1.0  0.35528  0.09397  0.43499  1.0000
  S   S125      1.0  0.35279  0.11924  0.45880  1.0000
  S   S126      1.0  0.35677  0.05707  0.38797  1.0000
  S   S127      1.0  0.37167  0.06173  0.43712  1.0000
  C   C729      1.0  0.28508  0.02009  0.37509  1.0000
  H   H588      1.0  0.46008  0.43659  0.02737  1.0000
  S   S128      1.0  0.26216  0.18955  0.13883  1.0000
  C   C730      1.0  0.32196  0.00935  0.37040  1.0000
  S   S129      1.0  0.28293  0.08626  0.28026  1.0000
  H   H589      1.0  0.29744  0.04499  0.26554  1.0000
  C   C731      1.0  0.34360  0.03646  0.17514  1.0000
  H   H590      1.0  0.48348  0.47751  0.14827  1.0000
  C   C732      1.0  0.36192  0.00940  0.32885  1.0000
  C   C733      1.0  0.42357  0.01120  0.46543  1.0000
  C   C734      1.0  0.24892  0.17081  0.15695  1.0000
  C   C735      1.0  0.35125  0.26049  0.07275  1.0000
  C   C736      1.0  0.25932  0.24311  0.19149  1.0000
  H   H591      1.0  0.26238  0.38697  0.06412  1.0000
  C   C737      1.0  0.42275  0.31763  0.00169  1.0000
  H   H592      1.0  0.31800  0.26703  0.07071  1.0000
  C   C738      1.0  0.46424  0.02520  0.45624  1.0000
  C   C739      1.0  0.30784  0.09964  0.34440  1.0000
  C   C740      1.0  0.31808  0.08432  0.33170  1.0000
  C   C741      1.0  0.31021  0.08030  0.31211  1.0000
  C   C742      1.0  0.29161  0.09088  0.30553  1.0000
  C   C743      1.0  0.28101  0.10564  0.31859  1.0000
  C   C744      1.0  0.28935  0.11028  0.33768  1.0000
  H   H593      1.0  0.33249  0.07624  0.33653  1.0000
  H   H594      1.0  0.31864  0.06905  0.30195  1.0000
  H   H595      1.0  0.26683  0.11404  0.31357  1.0000
  H   H596      1.0  0.28157  0.12242  0.34723  1.0000
  C   C745      1.0  0.43986  0.06906  0.39961  1.0000
  H   H597      1.0  0.26578  0.06938  0.14029  1.0000
  C   C746      1.0  0.43928  0.09027  0.40453  1.0000
  C   C747      1.0  0.36422  0.47686  0.04431  1.0000
  H   H598      1.0  0.42448  0.09949  0.40530  1.0000
  C   C748      1.0  0.32119  0.32156  0.10949  1.0000
  C   C749      1.0  0.30430  0.33557  0.11533  1.0000
  C   C750      1.0  0.28398  0.32797  0.12013  1.0000
  C   C751      1.0  0.28030  0.30640  0.11886  1.0000
  C   C752      1.0  0.29714  0.29247  0.11278  1.0000
  C   C753      1.0  0.31746  0.30003  0.10830  1.0000
  H   H599      1.0  0.30696  0.35217  0.11641  1.0000
  H   H600      1.0  0.27106  0.33886  0.12489  1.0000
  H   H601      1.0  0.29456  0.27584  0.11184  1.0000
  H   H602      1.0  0.33052  0.28907  0.10420  1.0000
  C   C754      1.0  0.36559  0.46146  0.11781  1.0000
  C   C755      1.0  0.46124  0.00510  0.46667  1.0000
  C   C756      1.0  0.35607  0.46342  0.03084  1.0000
  C   C757      1.0  0.46256  0.45740  0.08384  1.0000
  C   C758      1.0  0.38085  0.46234  0.10049  1.0000
  C   C759      1.0  0.34332  0.99986  0.42063  1.0000
  H   H603      1.0  0.38697  0.44803  0.09358  1.0000
  C   C760      1.0  0.46064  0.37421  0.11150  1.0000
  C   C761      1.0  0.45969  0.38634  0.09195  1.0000
  H   H604      1.0  0.42696  0.48410  0.13707  1.0000
  C   C762      1.0  0.33069  0.34687  0.00839  1.0000
  C   C763      1.0  0.48014  0.37016  0.12020  1.0000
  H   H605      1.0  0.44484  0.38934  0.08493  1.0000
  H   H606      1.0  0.48097  0.36076  0.13532  1.0000
  C   C764      1.0  0.35778  0.40753  0.02549  1.0000
  C   C765      1.0  0.37830  0.40029  0.01910  1.0000
  C   C766      1.0  0.42772  0.33446  0.01318  1.0000
  H   H607      1.0  0.35401  0.41245  0.04156  1.0000
  C   C767      1.0  0.31646  0.36358  0.01393  1.0000
  H   H608      1.0  0.45631  0.03398  0.34461  1.0000
  C   C768      1.0  0.24887  0.06795  0.18597  1.0000
  H   H609      1.0  0.45654  0.14314  0.43834  1.0000
  C   C769      1.0  0.25686  0.22181  0.18832  1.0000
  C   C770      1.0  0.33505  0.04312  0.13824  1.0000
  C   C771      1.0  0.31397  0.04315  0.26026  1.0000
  C   C772      1.0  0.24680  0.18365  0.25150  1.0000
  C   C773      1.0  0.35752  0.48053  0.12624  1.0000
  C   C774      1.0  0.25759  0.17164  0.26718  1.0000
  H   H610      1.0  0.36957  0.01872  0.40929  1.0000
  C   C775      1.0  0.24686  0.25293  0.20770  1.0000
  C   C776      1.0  0.41476  0.08766  0.46411  1.0000
  H   H611      1.0  0.44366  0.33965  0.01206  1.0000
  C   C777      1.0  0.34404  0.05710  0.23869  1.0000
  H   H612      1.0  0.34569  0.33105  0.05833  1.0000
  C   C778      1.0  0.32659  0.02592  0.26821  1.0000
  C   C779      1.0  0.41990  0.10890  0.46257  1.0000
  C   C780      1.0  0.40211  0.31109  0.00316  1.0000
  C   C781      1.0  0.46676  0.14329  0.45125  1.0000
  C   C782      1.0  0.28645  0.11545  0.15120  1.0000
  C   C783      1.0  0.42672  0.03102  0.45453  1.0000
  H   H613      1.0  0.24391  0.06712  0.37164  1.0000
  H   H614      1.0  0.41404  0.44416  0.00385  1.0000
  H   H615      1.0  0.26903  0.34975  0.07855  1.0000
  H   H616      1.0  0.38504  0.25802  0.07157  1.0000
  C   C784      1.0  0.34628  0.01479  0.31479  1.0000
  C   C785      1.0  0.32643  0.04976  0.18178  1.0000
  C   C786      1.0  0.31345  0.05994  0.16667  1.0000
  C   C787      1.0  0.31784  0.05643  0.14484  1.0000
  P   P24       1.0  0.29098  0.07663  0.17563  1.0000
  C   C788      1.0  0.29854  0.09293  0.19581  1.0000
  C   C789      1.0  0.28191  0.09388  0.15350  1.0000
  H   H617      1.0  0.26343  0.99623  0.37145  1.0000
  C   C790      1.0  0.28354  0.10006  0.21166  1.0000
  C   C791      1.0  0.28942  0.11243  0.22747  1.0000
  C   C792      1.0  0.31020  0.11811  0.22735  1.0000
  C   C793      1.0  0.32511  0.11170  0.21117  1.0000
  C   C794      1.0  0.31931  0.09922  0.19538  1.0000
  C   C795      1.0  0.26984  0.06024  0.18685  1.0000
  H   H618      1.0  0.25546  0.18878  0.23661  1.0000
  H   H619      1.0  0.32671  0.07956  0.48823  1.0000
  C   C796      1.0  0.47206  0.14427  0.48897  1.0000
  C   C797      1.0  0.38315  0.39409  0.99829  1.0000
  H   H620      1.0  0.24520  0.08363  0.17867  1.0000
  C   C798      1.0  0.29299  0.03032  0.31869  1.0000
  C   C799      1.0  0.25601  0.04079  0.31788  1.0000
  H   H621      1.0  0.30809  0.06392  0.13283  1.0000
  H   H622      1.0  0.26632  0.21425  0.17556  1.0000
  H   H623      1.0  0.26725  0.09630  0.21171  1.0000
  H   H624      1.0  0.27789  0.11747  0.24000  1.0000
  H   H625      1.0  0.31467  0.12749  0.23983  1.0000
  H   H626      1.0  0.34115  0.11642  0.21090  1.0000
  H   H627      1.0  0.33100  0.09464  0.18280  1.0000
  H   H628      1.0  0.28990  0.03351  0.19805  1.0000
  C   C800      1.0  0.32113  0.02619  0.49163  1.0000
  C   C801      1.0  0.32270  0.05872  0.24570  1.0000
  C   C802      1.0  0.39593  0.15605  0.45489  1.0000
  H   H629      1.0  0.27284  0.03204  0.37902  1.0000
  C   C803      1.0  0.39135  0.33850  0.02736  1.0000
  C   C804      1.0  0.25080  0.29109  0.03159  1.0000
  H   H630      1.0  0.46242  0.99737  0.35968  1.0000
  H   H631      1.0  0.39639  0.46712  0.15606  1.0000
  C   C805      1.0  0.27267  0.01725  0.29208  1.0000
  C   C806      1.0  0.26961  0.08591  0.13873  1.0000
  C   C807      1.0  0.39468  0.18321  0.42555  1.0000
  C   C808      1.0  0.26172  0.09935  0.12216  1.0000
  C   C809      1.0  0.45919  0.05727  0.39867  1.0000
  H   H632      1.0  0.45967  0.04074  0.39530  1.0000
  H   H633      1.0  0.30251  0.38205  0.03944  1.0000
  C   C810      1.0  0.38800  0.48187  0.09164  1.0000
  H   H634      1.0  0.36733  0.08535  0.49049  1.0000
  C   C811      1.0  0.32594  0.06339  0.49535  1.0000
  H   H635      1.0  0.27424  0.16760  0.26423  1.0000
  C   C812      1.0  0.34118  0.33479  0.02436  1.0000
  H   H636      1.0  0.32315  0.05201  0.19873  1.0000
  C   C813      1.0  0.32243  0.04705  0.48259  1.0000
  C   C814      1.0  0.46066  0.44297  0.04283  1.0000
  H   H637      1.0  0.35348  0.02862  0.18691  1.0000
  C   C815      1.0  0.32348  0.35679  0.05127  1.0000
  C   C816      1.0  0.48849  0.14074  0.44653  1.0000
  C   C817      1.0  0.33746  0.33990  0.04582  1.0000
  H   H638      1.0  0.32654  0.41511  0.01551  1.0000
  C   C818      1.0  0.36467  0.46238  0.00962  1.0000
  C   C819      1.0  0.38514  0.16697  0.43860  1.0000
  C   C820      1.0  0.26844  0.30273  0.06088  1.0000
  C   C821      1.0  0.48849  0.49159  0.99701  1.0000
  C   C822      1.0  0.47746  0.08813  0.40606  1.0000
  H   H639      1.0  0.45762  0.11640  0.41065  1.0000
  C   C823      1.0  0.29203  0.01819  0.30100  1.0000
  C   C824      1.0  0.35540  0.11785  0.48673  1.0000
  H   H640      1.0  0.41595  0.35771  0.03511  1.0000
  H   H641      1.0  0.38631  0.19155  0.41282  1.0000
  H   H642      1.0  0.34430  0.15049  0.48820  1.0000
  C   C825      1.0  0.34231  0.40917  0.01072  1.0000
  C   C826      1.0  0.47095  0.02931  0.35161  1.0000
  C   C827      1.0  0.36268  0.00358  0.40917  1.0000
  C   C828      1.0  0.25309  0.29093  0.05358  1.0000
  C   C829      1.0  0.27866  0.12878  0.13451  1.0000
  C   C830      1.0  0.48769  0.45642  0.12244  1.0000
  H   H643      1.0  0.32117  0.36084  0.06786  1.0000
  P   P25       1.0  0.31568  0.00627  0.28789  1.0000
  C   C831      1.0  0.28156  0.31466  0.04621  1.0000
  C   C832      1.0  0.47476  0.08791  0.47425  1.0000
  C   C833      1.0  0.41495  0.18867  0.42897  1.0000
  H   H644      1.0  0.41372  0.30636  0.07381  1.0000
  H   H645      1.0  0.47992  0.03069  0.45242  1.0000
  H   H646      1.0  0.24298  0.28159  0.06498  1.0000
  H   H647      1.0  0.27067  0.25204  0.18114  1.0000
  H   H648      1.0  0.37321  0.03850  0.24080  1.0000
  H   H649      1.0  0.47486  0.99531  0.47091  1.0000
  H   H650      1.0  0.38822  0.14363  0.46495  1.0000
  H   H651      1.0  0.27627  0.05198  0.33978  1.0000
  C   C834      1.0  0.39052  0.48722  0.01580  1.0000
  H   H652      1.0  0.28187  0.14550  0.13308  1.0000
  C   C835      1.0  0.35663  0.03973  0.24611  1.0000
  H   H653      1.0  0.30874  0.37313  0.00148  1.0000
  H   H654      1.0  0.41189  0.08023  0.44970  1.0000
  C   C836      1.0  0.33367  0.27091  0.06413  1.0000
  H   H655      1.0  0.34270  0.03141  0.31029  1.0000
  C   C837      1.0  0.24664  0.16575  0.04938  1.0000
  H   H656      1.0  0.27016  0.30253  0.07792  1.0000
  C   C838      1.0  0.34795  0.02416  0.26081  1.0000
  H   H657      1.0  0.33379  0.27850  0.00654  1.0000
  H   H658      1.0  0.35804  0.45189  0.99947  1.0000
  H   H659      1.0  0.36940  0.16263  0.43608  1.0000
  H   H660      1.0  0.43397  0.41022  0.99912  1.0000
  C   C839      1.0  0.25325  0.35707  0.07990  1.0000
  H   H661      1.0  0.46404  0.09763  0.46468  1.0000
  H   H662      1.0  0.33828  0.01289  0.37096  1.0000
  H   H663      1.0  0.44143  0.18219  0.44779  1.0000
  S   S130      1.0  0.25601  0.24160  0.09776  1.0000
  C   C840      1.0  0.48865  0.07315  0.46438  1.0000
  H   H664      1.0  0.37954  0.34701  0.03730  1.0000
  H   H665      1.0  0.35795  0.01090  0.26661  1.0000
  H   H666      1.0  0.38987  0.28569  0.04190  1.0000
  C   C841      1.0  0.25477  0.02848  0.30055  1.0000
  C   C842      1.0  0.27509  0.04171  0.32693  1.0000
  C   C843      1.0  0.33544  0.99890  0.30660  1.0000
  C   C844      1.0  0.35651  0.29222  0.03907  1.0000
  C   C845      1.0  0.33629  0.28682  0.04750  1.0000
  P   P26       1.0  0.43028  0.14629  0.47882  1.0000
  H   H667      1.0  0.47713  0.40365  0.06605  1.0000
  P   P27       1.0  0.35950  0.31303  0.01770  1.0000
  H   H668      1.0  0.41342  0.04078  0.44911  1.0000
  H   H669      1.0  0.31287  0.07230  0.24037  1.0000
  C   C846      1.0  0.44084  0.99792  0.47136  1.0000
  C   C847      1.0  0.26617  0.12080  0.12011  1.0000
  C   C848      1.0  0.45838  0.14548  0.47248  1.0000
  C   C849      1.0  0.25746  0.02761  0.20565  1.0000
  H   H670      1.0  0.26071  0.01198  0.21341  1.0000
  H   H671      1.0  0.24872  0.26946  0.21003  1.0000
  C   C850      1.0  0.47448  0.00851  0.36038  1.0000
  C   C851      1.0  0.41207  0.34472  0.02613  1.0000
  H   H672      1.0  0.25186  0.09321  0.11111  1.0000
  C   C852      1.0  0.37145  0.26588  0.06462  1.0000
  H   H673      1.0  0.29558  0.12223  0.16245  1.0000
  H   H674      1.0  0.31776  0.01412  0.48135  1.0000
  C   C853      1.0  0.42581  0.17768  0.44525  1.0000
  H   H675      1.0  0.34918  0.24851  0.08600  1.0000
  H   H676      1.0  0.32252  0.29497  0.04124  1.0000
  H   H677      1.0  0.33836  0.04048  0.12136  1.0000
  C   C854      1.0  0.47931  0.45067  0.04854  1.0000
  H   H678      1.0  0.25520  0.15499  0.29858  1.0000
  C   C855      1.0  0.37411  0.28165  0.04779  1.0000
  C   C856      1.0  0.26387  0.30299  0.01667  1.0000
  H   H679      1.0  0.43410  0.28589  0.04594  1.0000
  H   H680      1.0  0.42122  0.11743  0.44686  1.0000
  H   H681      1.0  0.25744  0.13744  0.20148  1.0000
  H   H682      1.0  0.26719  0.16527  0.07500  1.0000
  C   C857      1.0  0.24958  0.14474  0.18799  1.0000
  C   C858      1.0  0.44698  0.03819  0.45033  1.0000
  H   H683      1.0  0.44929  0.05377  0.44229  1.0000
  C   C859      1.0  0.44276  0.44307  0.05729  1.0000
  C   C860      1.0  0.38168  0.47465  0.00176  1.0000
  H   H684      1.0  0.25974  0.13133  0.10757  1.0000
  H   H685      1.0  0.27427  0.16610  0.17769  1.0000
  C   C861      1.0  0.38616  0.32165  0.01580  1.0000
  C   C862      1.0  0.44363  0.45042  0.07765  1.0000
  P   P28       1.0  0.46392  0.46623  0.11043  1.0000
  C   C863      1.0  0.44276  0.45455  0.12755  1.0000
  C   C864      1.0  0.38137  0.48880  0.03674  1.0000
  H   H686      1.0  0.31024  0.04045  0.37882  1.0000
  C   C865      1.0  0.27400  0.03993  0.19685  1.0000
  H   H687      1.0  0.43128  0.33296  0.09211  1.0000
  C   C866      1.0  0.42311  0.11898  0.48112  1.0000
  H   H688      1.0  0.47177  0.29195  0.03657  1.0000
  C   C867      1.0  0.42660  0.46703  0.13783  1.0000
  C   C868      1.0  0.40931  0.45744  0.14899  1.0000
  C   C869      1.0  0.40828  0.43537  0.15043  1.0000
  C   C870      1.0  0.42473  0.42282  0.14108  1.0000
  C   C871      1.0  0.44189  0.43234  0.12965  1.0000
  H   H689      1.0  0.35733  0.47793  0.06067  1.0000
  H   H690      1.0  0.25936  0.16387  0.03697  1.0000
  C   C872      1.0  0.48604  0.04428  0.35238  1.0000
  S   S131      1.0  0.25436  0.29777  0.12464  1.0000
  H   H691      1.0  0.42829  0.43698  0.05295  1.0000
  H   H692      1.0  0.30759  0.03179  0.32575  1.0000
  C   C873      1.0  0.27984  0.99982  0.37061  1.0000
  C   C874      1.0  0.47804  0.39438  0.08122  1.0000
  H   H693      1.0  0.42956  0.45022  0.08860  1.0000
  C   C875      1.0  0.47788  0.06668  0.40213  1.0000
  H   H694      1.0  0.28983  0.32401  0.01310  1.0000
  H   H695      1.0  0.42227  0.20136  0.41893  1.0000
  C   C876      1.0  0.27940  0.31474  0.02415  1.0000
  Fe  Fe67      1.0  0.24930  0.09216  0.27106  1.0000
  H   H696      1.0  0.39455  0.42803  0.15852  1.0000
  H   H697      1.0  0.42393  0.40569  0.14217  1.0000
  H   H698      1.0  0.45418  0.42235  0.12193  1.0000
  H   H699      1.0  0.34569  0.48002  0.13967  1.0000
  H   H700      1.0  0.26714  0.25977  0.00796  1.0000
  C   C877      1.0  0.24950  0.37802  0.07181  1.0000
  H   H701      1.0  0.24820  0.10404  0.35653  1.0000
  C   C878      1.0  0.25106  0.16651  0.07076  1.0000
  C   C879      1.0  0.25903  0.16107  0.17452  1.0000
  H   H702      1.0  0.40760  0.00633  0.46894  1.0000
  H   H703      1.0  0.36996  0.02174  0.33541  1.0000
  C   C880      1.0  0.41651  0.16095  0.45800  1.0000
  C   C881      1.0  0.48017  0.45820  0.06884  1.0000
  H   H704      1.0  0.36119  0.02278  0.14823  1.0000
  H   H705      1.0  0.29347  0.32374  0.05200  1.0000
  H   H706      1.0  0.35081  0.06942  0.22770  1.0000
  H   H707      1.0  0.27151  0.00852  0.27808  1.0000
  H   H708      1.0  0.46811  0.34035  0.08184  1.0000
  C   C882      1.0  0.47302  0.31587  0.05928  1.0000
  C   C883      1.0  0.46313  0.30081  0.04886  1.0000
  C   C884      1.0  0.44179  0.29736  0.05408  1.0000
  C   C885      1.0  0.43026  0.30891  0.06969  1.0000
  C   C886      1.0  0.44002  0.32407  0.07986  1.0000
  C   C887      1.0  0.46111  0.32797  0.07427  1.0000
  H   H709      1.0  0.39995  0.48208  0.07836  1.0000
  H   H710      1.0  0.34303  0.45382  0.03681  1.0000
  C   C888      1.0  0.30614  0.02486  0.37496  1.0000
  C   C889      1.0  0.45807  0.09981  0.40757  1.0000
  C   C890      1.0  0.34792  0.03315  0.15337  1.0000
  H   H711      1.0  0.32048  0.05060  0.46564  1.0000
  C   C891      1.0  0.31295  0.36862  0.03533  1.0000
  H   H712      1.0  0.40853  0.05993  0.48542  1.0000
  C   C892      1.0  0.41303  0.07623  0.48416  1.0000
  C   C893      1.0  0.24689  0.16456  0.28657  1.0000
  H   H713      1.0  0.48313  0.06049  0.34594  1.0000
  Fe  Fe68      1.0  0.24342  0.21787  0.12417  1.0000
  H   H714      1.0  0.32178  0.99452  0.24273  1.0000
  H   H715      1.0  0.48877  0.07160  0.44727  1.0000
  H   H716      1.0  0.49095  0.31053  0.09892  1.0000
  H   H717      1.0  0.24309  0.19538  0.99975  1.0000
  Fe  Fe69      1.0  0.35683  0.40481  0.89360  1.0000
  S   S132      1.0  0.37237  0.41016  0.92327  1.0000
  S   S133      1.0  0.35454  0.42977  0.86594  1.0000
  Fe  Fe70      1.0  0.34466  0.35966  0.90917  1.0000
  S   S134      1.0  0.35927  0.36198  0.94001  1.0000
  S   S135      1.0  0.33320  0.32661  0.90616  1.0000
  Fe  Fe71      1.0  0.34425  0.39462  0.94010  1.0000
  S   S136      1.0  0.32841  0.40554  0.97093  1.0000
  Fe  Fe72      1.0  0.38627  0.37695  0.92055  1.0000
  S   S137      1.0  0.41776  0.36503  0.93208  1.0000
  S   S138      1.0  0.32737  0.39157  0.91065  1.0000
  S   S139      1.0  0.37295  0.37248  0.88931  1.0000
  Fe  Fe73      1.0  0.35660  0.04897  0.59772  1.0000
  S   S140      1.0  0.37650  0.04836  0.62526  1.0000
  S   S141      1.0  0.34025  0.01936  0.59408  1.0000
  Fe  Fe74      1.0  0.36667  0.09356  0.58273  1.0000
  S   S142      1.0  0.38719  0.09685  0.60971  1.0000
  S   S143      1.0  0.36268  0.12140  0.55855  1.0000
  Fe  Fe75      1.0  0.40011  0.06433  0.60201  1.0000
  S   S144      1.0  0.43355  0.05027  0.59921  1.0000
  Fe  Fe76      1.0  0.36151  0.08051  0.63080  1.0000
  S   S145      1.0  0.35215  0.08418  0.66628  1.0000
  S   S146      1.0  0.38125  0.06218  0.57369  1.0000
  S   S147      1.0  0.33989  0.08015  0.60443  1.0000
  C   C894      1.0  0.27781  0.24066  0.98223  1.0000
  C   C895      1.0  0.31225  0.02766  0.64322  1.0000
  C   C896      1.0  0.42326  0.33711  0.86499  1.0000
  C   C897      1.0  0.37027  0.03322  0.68975  1.0000
  C   C898      1.0  0.47075  0.48189  0.99132  1.0000
  H   H718      1.0  0.48926  0.41164  0.95357  1.0000
  C   C899      1.0  0.44943  0.08552  0.55434  1.0000
  C   C900      1.0  0.27315  0.32602  0.97496  1.0000
  H   H719      1.0  0.39857  0.29791  0.99429  1.0000
  C   C901      1.0  0.30450  0.34160  0.95727  1.0000
  C   C902      1.0  0.36258  0.00253  0.66206  1.0000
  C   C903      1.0  0.35784  0.99789  0.59996  1.0000
  H   H720      1.0  0.24550  0.19965  0.66077  1.0000
  H   H721      1.0  0.32540  0.26677  0.97192  1.0000
  C   C904      1.0  0.34624  0.00987  0.67656  1.0000
  C   C905      1.0  0.32555  0.08841  0.67634  1.0000
  C   C906      1.0  0.31009  0.09632  0.66290  1.0000
  C   C907      1.0  0.28951  0.10131  0.67167  1.0000
  C   C908      1.0  0.28402  0.09803  0.69386  1.0000
  C   C909      1.0  0.29928  0.08936  0.70722  1.0000
  C   C910      1.0  0.31999  0.08477  0.69851  1.0000
  H   H722      1.0  0.31416  0.09929  0.64585  1.0000
  H   H723      1.0  0.27786  0.10802  0.66122  1.0000
  H   H724      1.0  0.29529  0.08687  0.72434  1.0000
  H   H725      1.0  0.33186  0.07873  0.70904  1.0000
  C   C911      1.0  0.35940  0.11881  0.53119  1.0000
  C   C912      1.0  0.36492  0.10011  0.52086  1.0000
  H   H726      1.0  0.48220  0.06650  0.65885  1.0000
  H   H727      1.0  0.38523  0.01649  0.59456  1.0000
  P   P29       1.0  0.48045  0.47137  0.88165  1.0000
  C   C913      1.0  0.35193  0.13681  0.51922  1.0000
  H   H728      1.0  0.37091  0.08617  0.52994  1.0000
  H   H729      1.0  0.36023  0.01203  0.53645  1.0000
  C   C914      1.0  0.47357  0.45040  0.82244  1.0000
  H   H730      1.0  0.34773  0.15132  0.52698  1.0000
  C   C915      1.0  0.45460  0.06510  0.60515  1.0000
  C   C916      1.0  0.45150  0.08591  0.61126  1.0000
  H   H731      1.0  0.44960  0.06844  0.55563  1.0000
  H   H732      1.0  0.43593  0.09357  0.61195  1.0000
  C   C917      1.0  0.35016  0.02560  0.69012  1.0000
  C   C918      1.0  0.30721  0.31958  0.90344  1.0000
  C   C919      1.0  0.29018  0.33447  0.90402  1.0000
  C   C920      1.0  0.26984  0.32814  0.90133  1.0000
  C   C921      1.0  0.26637  0.30695  0.89798  1.0000
  C   C922      1.0  0.28345  0.29212  0.89730  1.0000
  C   C923      1.0  0.30373  0.29839  0.90021  1.0000
  H   H733      1.0  0.29264  0.35082  0.90655  1.0000
  H   H734      1.0  0.25672  0.33973  0.90181  1.0000
  H   H735      1.0  0.28103  0.27588  0.89431  1.0000
  H   H736      1.0  0.31684  0.28681  0.89966  1.0000
  H   H737      1.0  0.24974  0.18762  0.80479  1.0000
  C   C924      1.0  0.47207  0.46040  0.98736  1.0000
  C   C925      1.0  0.45533  0.99883  0.62560  1.0000
  C   C926      1.0  0.28195  0.25865  0.94677  1.0000
  H   H738      1.0  0.37201  0.39128  0.96750  1.0000
  C   C927      1.0  0.44170  0.37038  0.91711  1.0000
  C   C928      1.0  0.44237  0.38103  0.89665  1.0000
  C   C929      1.0  0.46055  0.36362  0.92605  1.0000
  H   H739      1.0  0.42789  0.38617  0.88960  1.0000
  H   H740      1.0  0.46010  0.35528  0.94182  1.0000
  C   C930      1.0  0.34471  0.47065  0.85252  1.0000
  C   C931      1.0  0.35340  0.45740  0.86875  1.0000
  C   C932      1.0  0.36126  0.46653  0.88598  1.0000
  H   H741      1.0  0.33878  0.46380  0.83908  1.0000
  H   H742      1.0  0.36820  0.45643  0.89851  1.0000
  H   H743      1.0  0.43898  0.05123  0.64501  1.0000
  H   H744      1.0  0.26812  0.46191  0.88294  1.0000
  C   C933      1.0  0.38621  0.31845  0.88175  1.0000
  C   C934      1.0  0.38901  0.32439  0.85966  1.0000
  C   C935      1.0  0.40753  0.33414  0.85145  1.0000
  P   P30       1.0  0.36781  0.32269  0.84260  1.0000
  C   C936      1.0  0.37853  0.31903  0.81549  1.0000
  C   C937      1.0  0.35214  0.29991  0.84984  1.0000
  C   C938      1.0  0.36047  0.28178  0.86122  1.0000
  C   C939      1.0  0.34832  0.26412  0.86642  1.0000
  C   C940      1.0  0.32792  0.26427  0.85997  1.0000
  C   C941      1.0  0.31979  0.28193  0.84799  1.0000
  C   C942      1.0  0.33195  0.29953  0.84264  1.0000
  C   C943      1.0  0.36882  0.32920  0.79792  1.0000
  C   C944      1.0  0.37706  0.32598  0.77692  1.0000
  C   C945      1.0  0.39486  0.31241  0.77335  1.0000
  C   C946      1.0  0.40436  0.30193  0.79078  1.0000
  C   C947      1.0  0.39616  0.30512  0.81179  1.0000
  C   C948      1.0  0.35282  0.34775  0.84362  1.0000
  C   C949      1.0  0.33285  0.34925  0.85479  1.0000
  C   C950      1.0  0.32202  0.36895  0.85649  1.0000
  C   C951      1.0  0.33107  0.38735  0.84708  1.0000
  C   C952      1.0  0.35096  0.38603  0.83597  1.0000
  C   C953      1.0  0.36185  0.36635  0.83431  1.0000
  H   H745      1.0  0.37174  0.31186  0.88866  1.0000
  H   H746      1.0  0.40970  0.33985  0.83471  1.0000
  H   H747      1.0  0.37635  0.28116  0.86603  1.0000
  H   H748      1.0  0.35469  0.25032  0.87551  1.0000
  H   H749      1.0  0.31838  0.25071  0.86422  1.0000
  H   H750      1.0  0.30394  0.28205  0.84303  1.0000
  H   H751      1.0  0.32548  0.31292  0.83305  1.0000
  H   H752      1.0  0.35483  0.33952  0.80038  1.0000
  H   H753      1.0  0.36957  0.33395  0.76341  1.0000
  H   H754      1.0  0.40120  0.30991  0.75708  1.0000
  H   H755      1.0  0.41804  0.29126  0.78802  1.0000
  H   H756      1.0  0.40354  0.29672  0.82515  1.0000
  H   H757      1.0  0.32576  0.33539  0.86277  1.0000
  H   H758      1.0  0.30685  0.36997  0.86561  1.0000
  H   H759      1.0  0.32300  0.40272  0.84894  1.0000
  H   H760      1.0  0.35820  0.40045  0.82934  1.0000
  H   H761      1.0  0.37750  0.36572  0.82620  1.0000
  C   C954      1.0  0.47171  0.46246  0.84035  1.0000
  C   C955      1.0  0.43736  0.00502  0.71000  1.0000
  C   C956      1.0  0.28271  0.23996  0.96014  1.0000
  H   H762      1.0  0.43273  0.00785  0.51331  1.0000
  Fe  Fe77      1.0  0.24308  0.09600  0.73734  1.0000
  C   C957      1.0  0.40434  0.15424  0.51573  1.0000
  H   H763      1.0  0.32845  0.03502  0.54348  1.0000
  C   C958      1.0  0.28883  0.48778  0.87918  1.0000
  C   C959      1.0  0.48896  0.08702  0.61592  1.0000
  H   H764      1.0  0.33367  0.34377  0.99164  1.0000
  P   P31       1.0  0.39178  0.47389  0.97393  1.0000
  C   C960      1.0  0.43086  0.09677  0.56108  1.0000
  H   H765      1.0  0.44706  0.14703  0.55182  1.0000
  H   H766      1.0  0.25231  0.02387  0.55841  1.0000
  C   C961      1.0  0.36042  0.48888  0.88671  1.0000
  C   C962      1.0  0.45705  0.00673  0.69834  1.0000
  H   H767      1.0  0.46878  0.04293  0.53757  1.0000
  H   H768      1.0  0.24908  0.15050  0.79433  1.0000
  H   H769      1.0  0.38417  0.16020  0.54421  1.0000
  H   H770      1.0  0.37301  0.04590  0.69968  1.0000
  H   H771      1.0  0.26690  0.04664  0.62224  1.0000
  C   C963      1.0  0.45525  0.48605  0.88260  1.0000
  C   C964      1.0  0.27354  0.36407  0.96599  1.0000
  H   H772      1.0  0.44043  0.05290  0.71354  1.0000
  C   C965      1.0  0.33583  0.27963  0.97226  1.0000
  C   C966      1.0  0.24608  0.18377  0.65537  1.0000
  C   C967      1.0  0.29007  0.02079  0.73238  1.0000
  H   H773      1.0  0.39483  0.14187  0.51145  1.0000
  H   H774      1.0  0.43798  0.46178  0.90194  1.0000
  C   C968      1.0  0.43359  0.05803  0.69865  1.0000
  C   C969      1.0  0.30069  0.99929  0.54850  1.0000
  H   H775      1.0  0.47546  0.00705  0.55484  1.0000
  H   H776      1.0  0.47735  0.03950  0.59935  1.0000
  H   H777      1.0  0.46148  0.47668  0.84008  1.0000
  C   C970      1.0  0.49056  0.06122  0.67282  1.0000
  C   C971      1.0  0.43291  0.05708  0.66016  1.0000
  H   H778      1.0  0.26380  0.03578  0.81070  1.0000
  C   C972      1.0  0.48248  0.45323  0.90522  1.0000
  H   H779      1.0  0.37183  0.32682  0.97293  1.0000
  H   H780      1.0  0.24943  0.01259  0.72342  1.0000
  C   C973      1.0  0.32364  0.02147  0.51360  1.0000
  H   H781      1.0  0.45587  0.49086  0.99008  1.0000
  C   C974      1.0  0.38657  0.02518  0.67593  1.0000
  C   C975      1.0  0.29911  0.01937  0.71137  1.0000
  H   H782      1.0  0.26281  0.15786  0.69477  1.0000
  H   H783      1.0  0.46239  0.39311  0.86939  1.0000
  H   H784      1.0  0.25071  0.12664  0.63652  1.0000
  C   C976      1.0  0.46739  0.09635  0.54659  1.0000
  C   C977      1.0  0.46634  0.11867  0.54568  1.0000
  C   C978      1.0  0.27178  0.00993  0.58277  1.0000
  C   C979      1.0  0.46774  0.01793  0.65381  1.0000
  C   C980      1.0  0.49102  0.44848  0.98921  1.0000
  H   H785      1.0  0.25198  0.02134  0.65123  1.0000
  C   C981      1.0  0.34411  0.28971  0.95299  1.0000
  C   C982      1.0  0.35728  0.30648  0.95339  1.0000
  C   C983      1.0  0.35388  0.30332  0.99246  1.0000
  H   H786      1.0  0.39499  0.00493  0.65021  1.0000
  C   C984      1.0  0.42997  0.11889  0.56016  1.0000
  C   C985      1.0  0.48003  0.36778  0.91479  1.0000
  H   H787      1.0  0.46320  0.40685  0.92764  1.0000
  H   H788      1.0  0.46620  0.11296  0.62123  1.0000
  H   H789      1.0  0.30287  0.47768  0.87588  1.0000
  H   H790      1.0  0.26573  0.37972  0.96597  1.0000
  C   C986      1.0  0.36295  0.09964  0.49855  1.0000
  H   H791      1.0  0.41548  0.12745  0.56547  1.0000
  H   H792      1.0  0.30237  0.30851  0.96641  1.0000
  C   C987      1.0  0.43715  0.47697  0.89293  1.0000
  C   C988      1.0  0.29433  0.36173  0.95727  1.0000
  C   C989      1.0  0.48600  0.01943  0.55662  1.0000
  C   C990      1.0  0.46190  0.38488  0.88522  1.0000
  C   C991      1.0  0.40944  0.44064  0.95034  1.0000
  H   H793      1.0  0.27788  0.01490  0.52817  1.0000
  H   H794      1.0  0.34005  0.28485  0.93770  1.0000
  H   H795      1.0  0.36350  0.31442  0.93841  1.0000
  C   C992      1.0  0.27170  0.25996  0.99094  1.0000
  H   H796      1.0  0.31978  0.47797  0.92567  1.0000
  C   C993      1.0  0.40694  0.44921  0.97050  1.0000
  H   H797      1.0  0.45839  0.45292  0.98302  1.0000
  H   H798      1.0  0.40231  0.44869  0.93666  1.0000
  C   C994      1.0  0.47252  0.42064  0.92566  1.0000
  H   H799      1.0  0.29948  0.03360  0.70051  1.0000
  C   C995      1.0  0.32706  0.03809  0.52635  1.0000
  C   C996      1.0  0.40983  0.18119  0.53976  1.0000
  C   C997      1.0  0.48206  0.03989  0.54718  1.0000
  C   C998      1.0  0.28217  0.01097  0.66219  1.0000
  C   C999      1.0  0.29405  0.32385  0.96623  1.0000
  H   H800      1.0  0.36501  0.44124  0.96165  1.0000
  C   C1000     1.0  0.42048  0.33070  0.88685  1.0000
  H   H801      1.0  0.43742  0.34486  0.85870  1.0000
  C   C1001     1.0  0.25594  0.16186  0.71044  1.0000
  C   C1002     1.0  0.37938  0.00097  0.59907  1.0000
  C   C1003     1.0  0.25917  0.17913  0.63708  1.0000
  H   H802      1.0  0.28221  0.00384  0.76288  1.0000
  C   C1004     1.0  0.44123  0.04924  0.67939  1.0000
  C   C1005     1.0  0.40828  0.08060  0.67965  1.0000
  C   C1006     1.0  0.41641  0.07255  0.66034  1.0000
  C   C1007     1.0  0.27074  0.27886  0.97761  1.0000
  P   P32       1.0  0.46250  0.02917  0.67945  1.0000
  H   H803      1.0  0.27471  0.29222  0.94462  1.0000
  H   H804      1.0  0.41092  0.08005  0.71369  1.0000
  H   H805      1.0  0.39949  0.31734  0.91236  1.0000
  C   C1008     1.0  0.26698  0.01524  0.56160  1.0000
  C   C1009     1.0  0.42068  0.42125  0.94784  1.0000
  S   S148      1.0  0.24931  0.23548  0.89964  1.0000
  H   H806      1.0  0.46023  0.43178  0.89586  1.0000
  H   H807      1.0  0.39528  0.09243  0.67969  1.0000
  C   C1010     1.0  0.26926  0.47891  0.88324  1.0000
  C   C1011     1.0  0.42977  0.41043  0.96532  1.0000
  C   C1012     1.0  0.28928  0.00269  0.74663  1.0000
  H   H808      1.0  0.43328  0.00908  0.55262  1.0000
  C   C1013     1.0  0.48476  0.04305  0.68577  1.0000
  H   H809      1.0  0.26838  0.19138  0.62842  1.0000
  C   C1014     1.0  0.41700  0.07348  0.69879  1.0000
  C   C1015     1.0  0.38270  0.01002  0.66195  1.0000
  C   C1016     1.0  0.26074  0.15859  0.63019  1.0000
  C   C1017     1.0  0.30395  0.01343  0.65964  1.0000
  C   C1018     1.0  0.40193  0.32149  0.89525  1.0000
  C   C1019     1.0  0.48665  0.43192  0.82228  1.0000
  C   C1020     1.0  0.42457  0.49348  0.94860  1.0000
  C   C1021     1.0  0.27597  0.27803  0.95541  1.0000
  H   H810      1.0  0.27113  0.15489  0.61622  1.0000
  C   C1022     1.0  0.44773  0.12985  0.55244  1.0000
  H   H811      1.0  0.42186  0.41426  0.93249  1.0000
  C   C1023     1.0  0.32825  0.05891  0.51724  1.0000
  C   C1024     1.0  0.26881  0.02290  0.64878  1.0000
  H   H812      1.0  0.28646  0.22485  0.95330  1.0000
  H   H813      1.0  0.43248  0.33336  0.89741  1.0000
  H   H814      1.0  0.40196  0.03134  0.67542  1.0000
  H   H815      1.0  0.41722  0.08828  0.56738  1.0000
  C   C1025     1.0  0.46867  0.09685  0.61654  1.0000
  H   H816      1.0  0.40492  0.18934  0.55409  1.0000
  C   C1026     1.0  0.34335  0.49269  0.85357  1.0000
  H   H817      1.0  0.42863  0.47827  0.94225  1.0000
  C   C1027     1.0  0.27717  0.03717  0.63254  1.0000
  S   S149      1.0  0.25745  0.07802  0.76537  1.0000
  H   H818      1.0  0.33397  0.44323  0.94084  1.0000
  H   H819      1.0  0.48801  0.42248  0.80848  1.0000
  C   C1028     1.0  0.47489  0.05544  0.60429  1.0000
  H   H820      1.0  0.44725  0.18204  0.49777  1.0000
  H   H821      1.0  0.28340  0.03589  0.73759  1.0000
  H   H822      1.0  0.41515  0.07724  0.51822  1.0000
  H   H823      1.0  0.43636  0.20035  0.53065  1.0000
  C   C1029     1.0  0.48078  0.37846  0.89435  1.0000
  C   C1030     1.0  0.25129  0.49191  0.88804  1.0000
  H   H824      1.0  0.43780  0.39502  0.96347  1.0000
  H   H825      1.0  0.32899  0.02981  0.64080  1.0000
  C   C1031     1.0  0.43378  0.17678  0.50807  1.0000
  H   H826      1.0  0.40984  0.07825  0.64548  1.0000
  H   H827      1.0  0.30541  0.05024  0.61693  1.0000
  C   C1032     1.0  0.48700  0.42351  0.94043  1.0000
  C   C1033     1.0  0.42756  0.18731  0.52659  1.0000
  S   S150      1.0  0.25834  0.10620  0.70416  1.0000
  C   C1034     1.0  0.29887  0.03938  0.62966  1.0000
  H   H828      1.0  0.32051  0.33972  0.95028  1.0000
  H   H829      1.0  0.30257  0.37552  0.95060  1.0000
  C   C1035     1.0  0.25056  0.03949  0.82203  1.0000
  C   C1036     1.0  0.47063  0.43508  0.90783  1.0000
  H   H830      1.0  0.28530  0.25798  0.92960  1.0000
  C   C1037     1.0  0.34147  0.45765  0.94334  1.0000
  C   C1038     1.0  0.35926  0.45659  0.95497  1.0000
  C   C1039     1.0  0.36930  0.47515  0.95809  1.0000
  H   H831      1.0  0.33780  0.03237  0.70074  1.0000
  C   C1040     1.0  0.24435  0.17526  0.81654  1.0000
  C   C1041     1.0  0.24386  0.15432  0.81046  1.0000
  C   C1042     1.0  0.48288  0.45605  0.85832  1.0000
  C   C1043     1.0  0.28144  0.01006  0.54450  1.0000
  C   C1044     1.0  0.34060  0.28644  0.99193  1.0000
  P   P33       1.0  0.32076  0.99870  0.67781  1.0000
  C   C1045     1.0  0.41617  0.43826  0.98799  1.0000
  H   H832      1.0  0.28441  0.15225  0.72537  1.0000
  H   H833      1.0  0.26963  0.16055  0.76184  1.0000
  C   C1046     1.0  0.26835  0.15863  0.72783  1.0000
  C   C1047     1.0  0.33335  0.47723  0.93498  1.0000
  H   H834      1.0  0.42488  0.01709  0.70798  1.0000
  C   C1048     1.0  0.25047  0.05738  0.83376  1.0000
  H   H835      1.0  0.46480  0.45534  0.80870  1.0000
  C   C1049     1.0  0.42768  0.41902  0.98533  1.0000
  H   H836      1.0  0.33076  0.07166  0.52719  1.0000
  H   H837      1.0  0.42470  0.11449  0.51560  1.0000
  C   C1050     1.0  0.25994  0.16312  0.74841  1.0000
  C   C1051     1.0  0.36781  0.39576  0.98360  1.0000
  H   H838      1.0  0.26365  0.06759  0.83160  1.0000
  C   C1052     1.0  0.30783  0.99986  0.70459  1.0000
  C   C1053     1.0  0.26295  0.34628  0.97481  1.0000
  C   C1054     1.0  0.36199  0.31342  0.97299  1.0000
  P   P34       1.0  0.26022  0.30342  0.98828  1.0000
  H   H839      1.0  0.24693  0.34842  0.98169  1.0000
  C   C1055     1.0  0.45133  0.00917  0.64454  1.0000
  H   H840      1.0  0.46456  0.10224  0.50349  1.0000
  C   C1056     1.0  0.34739  0.40334  0.98971  1.0000
  H   H841      1.0  0.46593  0.14494  0.50555  1.0000
  H   H842      1.0  0.43539  0.01044  0.65190  1.0000
  H   H843      1.0  0.26088  0.01453  0.59601  1.0000
  C   C1057     1.0  0.24918  0.14268  0.64158  1.0000
  C   C1058     1.0  0.39816  0.16476  0.53423  1.0000
  H   H844      1.0  0.47990  0.12748  0.53969  1.0000
  C   C1059     1.0  0.29086  0.99906  0.58684  1.0000
  H   H845      1.0  0.27785  0.22607  0.99251  1.0000
  H   H846      1.0  0.40349  0.48018  0.89919  1.0000
  H   H847      1.0  0.49011  0.35611  0.98028  1.0000
  H   H848      1.0  0.27554  0.00005  0.67476  1.0000
  C   C1060     1.0  0.42179  0.10727  0.50114  1.0000
  C   C1061     1.0  0.41668  0.08600  0.50265  1.0000
  C   C1062     1.0  0.48944  0.07820  0.50840  1.0000
  P   P35       1.0  0.32015  0.99510  0.52640  1.0000
  C   C1063     1.0  0.47583  0.99657  0.61612  1.0000
  C   C1064     1.0  0.42252  0.15976  0.50284  1.0000
  C   C1065     1.0  0.41738  0.48736  0.89136  1.0000
  H   H849      1.0  0.39880  0.38785  0.99348  1.0000
  P   P36       1.0  0.49121  0.08227  0.53637  1.0000
  C   C1066     1.0  0.48833  0.01573  0.64414  1.0000
  H   H850      1.0  0.49121  0.02327  0.71460  1.0000
  C   C1067     1.0  0.35002  0.13634  0.49720  1.0000
  C   C1068     1.0  0.49199  0.06623  0.60985  1.0000
  C   C1069     1.0  0.47516  0.09048  0.49620  1.0000
  H   H851      1.0  0.29501  0.99558  0.60322  1.0000
  H   H852      1.0  0.43485  0.30979  0.99149  1.0000
  H   H853      1.0  0.49204  0.43173  0.98658  1.0000
  C   C1070     1.0  0.49232  0.00511  0.62532  1.0000
  C   C1071     1.0  0.36094  0.99502  0.53981  1.0000
  H   H854      1.0  0.39129  0.99496  0.55215  1.0000
  Fe  Fe78      1.0  0.38202  0.55900  0.09416  1.0000
  S   S151      1.0  0.37889  0.57453  0.12543  1.0000
  S   S152      1.0  0.38738  0.52484  0.08538  1.0000
  Fe  Fe79      1.0  0.38787  0.60132  0.06821  1.0000
  S   S153      1.0  0.38583  0.62054  0.09703  1.0000
  S   S154      1.0  0.39362  0.61486  0.03425  1.0000
  Fe  Fe80      1.0  0.40613  0.59368  0.11137  1.0000
  S   S155      1.0  0.43404  0.59667  0.13074  1.0000
  Fe  Fe81      1.0  0.35880  0.60026  0.10858  1.0000
  S   S156      1.0  0.32654  0.61286  0.12157  1.0000
  S   S157      1.0  0.41046  0.57667  0.08134  1.0000
  S   S158      1.0  0.35957  0.58286  0.07857  1.0000
  Fe  Fe82      1.0  0.37279  0.91573  0.39964  1.0000
  S   S159      1.0  0.38648  0.88619  0.38526  1.0000
  S   S160      1.0  0.37862  0.94791  0.38353  1.0000
  Fe  Fe83      1.0  0.35280  0.89242  0.43913  1.0000
  S   S161      1.0  0.36404  0.86050  0.42782  1.0000
  S   S162      1.0  0.33474  0.90013  0.47048  1.0000
  Fe  Fe84      1.0  0.39487  0.87575  0.41868  1.0000
  S   S163      1.0  0.42494  0.85878  0.42930  1.0000
  Fe  Fe85      1.0  0.35451  0.87365  0.39521  1.0000
  S   S164      1.0  0.34033  0.85623  0.36979  1.0000
  S   S165      1.0  0.38408  0.90667  0.43208  1.0000
  S   S166      1.0  0.34046  0.90406  0.40757  1.0000
  H   H855      1.0  0.26367  0.70149  0.00696  1.0000
  S   S167      1.0  0.29566  0.71018  0.12128  1.0000
  H   H856      1.0  0.36697  0.65950  0.05003  1.0000
  S   S168      1.0  0.25870  0.88379  0.27125  1.0000
  C   C1072     1.0  0.31815  0.84607  0.47148  1.0000
  H   H857      1.0  0.32228  0.81952  0.41735  1.0000
  H   H858      1.0  0.27001  0.98586  0.33119  1.0000
  C   C1073     1.0  0.48973  0.88571  0.41102  1.0000
  C   C1074     1.0  0.37852  0.94692  0.49083  1.0000
  C   C1075     1.0  0.49250  0.63555  0.00188  1.0000
  H   H859      1.0  0.33618  0.80021  0.44936  1.0000
  C   C1076     1.0  0.31024  0.85682  0.45327  1.0000
  H   H860      1.0  0.40466  0.56987  0.20441  1.0000
  H   H861      1.0  0.32941  0.97720  0.36352  1.0000
  H   H862      1.0  0.27714  0.91738  0.44926  1.0000
  H   H863      1.0  0.35763  0.51491  0.12311  1.0000
  C   C1077     1.0  0.25983  0.81325  0.31831  1.0000
  C   C1078     1.0  0.41546  0.90341  0.48691  1.0000
  C   C1079     1.0  0.31570  0.86322  0.35928  1.0000
  C   C1080     1.0  0.31227  0.85817  0.33840  1.0000
  C   C1081     1.0  0.29236  0.86219  0.33028  1.0000
  C   C1082     1.0  0.27550  0.87064  0.34328  1.0000
  C   C1083     1.0  0.27898  0.87568  0.36410  1.0000
  C   C1084     1.0  0.29902  0.87231  0.37191  1.0000
  H   H864      1.0  0.32504  0.85097  0.32853  1.0000
  H   H865      1.0  0.28992  0.85815  0.31425  1.0000
  H   H866      1.0  0.26601  0.88202  0.37433  1.0000
  H   H867      1.0  0.30146  0.87618  0.38793  1.0000
  C   C1085     1.0  0.36498  0.96768  0.39801  1.0000
  H   H868      1.0  0.40787  0.82595  0.45693  1.0000
  C   C1086     1.0  0.32706  0.82532  0.47051  1.0000
  C   C1087     1.0  0.25218  0.82444  0.21132  1.0000
  C   C1088     1.0  0.33513  0.97979  0.42138  1.0000
  C   C1089     1.0  0.34613  0.96360  0.41036  1.0000
  C   C1090     1.0  0.34099  0.97749  0.31227  1.0000
  C   C1091     1.0  0.47753  0.95333  0.48402  1.0000
  H   H869      1.0  0.32013  0.97691  0.43016  1.0000
  H   H870      1.0  0.33971  0.94818  0.41108  1.0000
  C   C1092     1.0  0.44968  0.86955  0.42217  1.0000
  H   H871      1.0  0.37018  0.82031  0.45802  1.0000
  C   C1093     1.0  0.45188  0.88725  0.40751  1.0000
  C   C1094     1.0  0.25698  0.71171  0.25289  1.0000
  H   H872      1.0  0.43825  0.89455  0.40023  1.0000
  C   C1095     1.0  0.31785  0.63997  0.11808  1.0000
  C   C1096     1.0  0.33207  0.65603  0.11377  1.0000
  C   C1097     1.0  0.32487  0.67749  0.11398  1.0000
  C   C1098     1.0  0.30340  0.68313  0.11827  1.0000
  C   C1099     1.0  0.28903  0.66712  0.12132  1.0000
  C   C1100     1.0  0.29626  0.64563  0.12137  1.0000
  H   H873      1.0  0.34869  0.65189  0.11129  1.0000
  H   H874      1.0  0.33605  0.68980  0.11150  1.0000
  H   H875      1.0  0.27246  0.67125  0.12461  1.0000
  H   H876      1.0  0.28515  0.63331  0.12468  1.0000
  H   H877      1.0  0.35680  0.91592  0.35964  1.0000
  H   H878      1.0  0.46591  0.84644  0.44283  1.0000
  C   C1101     1.0  0.26942  0.70434  0.02212  1.0000
  C   C1102     1.0  0.46143  0.60407  0.09485  1.0000
  C   C1103     1.0  0.45926  0.59796  0.11679  1.0000
  C   C1104     1.0  0.47740  0.59304  0.12778  1.0000
  H   H879      1.0  0.44757  0.60781  0.08627  1.0000
  H   H880      1.0  0.47584  0.58827  0.14479  1.0000
  H   H881      1.0  0.43258  0.59730  0.99867  1.0000
  C   C1105     1.0  0.31992  0.91550  0.32382  1.0000
  C   C1106     1.0  0.38530  0.59776  0.01640  1.0000
  C   C1107     1.0  0.37923  0.57737  0.02358  1.0000
  H   H882      1.0  0.30923  0.96485  0.22485  1.0000
  C   C1108     1.0  0.32602  0.60160  0.00097  1.0000
  H   H883      1.0  0.38049  0.57157  0.04009  1.0000
  S   S169      1.0  0.25781  0.75734  0.10766  1.0000
  H   H884      1.0  0.30698  0.65664  0.03671  1.0000
  C   C1109     1.0  0.42823  0.54678  0.01793  1.0000
  C   C1110     1.0  0.44525  0.63669  0.04198  1.0000
  H   H885      1.0  0.38746  0.49940  0.04715  1.0000
  H   H886      1.0  0.28283  0.89565  0.41792  1.0000
  H   H887      1.0  0.41640  0.97167  0.44518  1.0000
  P   P37       1.0  0.46901  0.62060  0.00689  1.0000
  C   C1111     1.0  0.41995  0.53318  0.03476  1.0000
  C   C1112     1.0  0.28273  0.61173  0.07494  1.0000
  C   C1113     1.0  0.30523  0.93046  0.33237  1.0000
  C   C1114     1.0  0.39900  0.82285  0.47229  1.0000
  C   C1115     1.0  0.31303  0.98252  0.25227  1.0000
  H   H888      1.0  0.26611  0.82517  0.32717  1.0000
  Fe  Fe86      1.0  0.26198  0.72458  0.12407  1.0000
  H   H889      1.0  0.37305  0.87446  0.47418  1.0000
  C   C1116     1.0  0.25505  0.79684  0.18556  1.0000
  C   C1117     1.0  0.33151  0.68777  0.00802  1.0000
  C   C1118     1.0  0.33850  0.91027  0.33365  1.0000
  H   H890      1.0  0.40429  0.53659  0.04221  1.0000
  H   H891      1.0  0.38350  0.95718  0.43659  1.0000
  H   H892      1.0  0.29070  0.93343  0.32478  1.0000
  C   C1119     1.0  0.25363  0.93769  0.35219  1.0000
  C   C1120     1.0  0.31693  0.95634  0.47762  1.0000
  H   H893      1.0  0.25622  0.98185  0.24471  1.0000
  C   C1121     1.0  0.42932  0.64941  0.05190  1.0000
  Fe  Fe87      1.0  0.24274  0.85908  0.25513  1.0000
  H   H894      1.0  0.32020  0.70802  0.03313  1.0000
  C   C1122     1.0  0.44111  0.52768  0.10088  1.0000
  H   H895      1.0  0.45627  0.55664  0.10394  1.0000
  C   C1123     1.0  0.46148  0.95928  0.40265  1.0000
  C   C1124     1.0  0.28957  0.95138  0.27591  1.0000
  C   C1125     1.0  0.29413  0.95025  0.25382  1.0000
  C   C1126     1.0  0.30593  0.96574  0.24202  1.0000
  C   C1127     1.0  0.24608  0.96883  0.31920  1.0000
  H   H896      1.0  0.43023  0.89235  0.45743  1.0000
  C   C1128     1.0  0.29682  0.96800  0.28622  1.0000
  S   S170      1.0  0.24278  0.73389  0.15426  1.0000
  C   C1129     1.0  0.28131  0.95707  0.40933  1.0000
  H   H897      1.0  0.33074  0.94166  0.37537  1.0000
  C   C1130     1.0  0.48157  0.60574  0.08411  1.0000
  C   C1131     1.0  0.31301  0.75474  0.48591  1.0000
  H   H898      1.0  0.36724  0.54835  0.01486  1.0000
  S   S171      1.0  0.24955  0.87409  0.33502  1.0000
  C   C1132     1.0  0.44866  0.94340  0.36567  1.0000
  C   C1133     1.0  0.27793  0.69284  0.05832  1.0000
  C   C1134     1.0  0.30896  0.94035  0.35097  1.0000
  H   H899      1.0  0.42553  0.82539  0.49054  1.0000
  H   H900      1.0  0.27299  0.79643  0.21333  1.0000
  C   C1135     1.0  0.26097  0.97183  0.33367  1.0000
  C   C1136     1.0  0.26135  0.65619  0.00818  1.0000
  C   C1137     1.0  0.27875  0.94722  0.43012  1.0000
  C   C1138     1.0  0.40602  0.96472  0.45811  1.0000
  C   C1139     1.0  0.45806  0.53947  0.10450  1.0000
  H   H901      1.0  0.42673  0.64822  0.06924  1.0000
  H   H902      1.0  0.46796  0.91423  0.44163  1.0000
  H   H903      1.0  0.28002  0.93953  0.28487  1.0000
  H   H904      1.0  0.28813  0.93752  0.24582  1.0000
  H   H905      1.0  0.27671  0.95680  0.44382  1.0000
  H   H906      1.0  0.25138  0.69768  0.24682  1.0000
  H   H907      1.0  0.29321  0.96873  0.30329  1.0000
  C   C1140     1.0  0.27463  0.72494  0.02535  1.0000
  C   C1141     1.0  0.28086  0.72964  0.04522  1.0000
  H   H908      1.0  0.33011  0.63054  0.05634  1.0000
  P   P38       1.0  0.26138  0.66211  0.03602  1.0000
  C   C1142     1.0  0.43137  0.89292  0.47454  1.0000
  C   C1143     1.0  0.45200  0.51082  0.03231  1.0000
  H   H909      1.0  0.40395  0.67271  0.04718  1.0000
  H   H910      1.0  0.40186  0.91047  0.47937  1.0000
  H   H911      1.0  0.36116  0.95571  0.33049  1.0000
  H   H912      1.0  0.33675  0.98072  0.48452  1.0000
  C   C1144     1.0  0.31583  0.77643  0.48642  1.0000
  H   H913      1.0  0.27897  0.68076  0.07152  1.0000
  H   H914      1.0  0.31464  0.60182  0.08066  1.0000
  C   C1145     1.0  0.30007  0.64413  0.04728  1.0000
  C   C1146     1.0  0.27813  0.64280  0.05012  1.0000
  H   H915      1.0  0.42173  0.93283  0.38583  1.0000
  C   C1147     1.0  0.46198  0.49492  0.10753  1.0000
  H   H916      1.0  0.27729  0.76238  0.27336  1.0000
  C   C1148     1.0  0.35685  0.97219  0.32612  1.0000
  H   H917      1.0  0.28134  0.97419  0.40748  1.0000
  C   C1149     1.0  0.47062  0.92517  0.45347  1.0000
  C   C1150     1.0  0.43185  0.51523  0.04198  1.0000
  C   C1151     1.0  0.28493  0.92262  0.39481  1.0000
  H   H918      1.0  0.32591  0.95298  0.46269  1.0000
  C   C1152     1.0  0.46745  0.95379  0.36468  1.0000
  C   C1153     1.0  0.28223  0.91280  0.41556  1.0000
  C   C1154     1.0  0.30842  0.98381  0.27450  1.0000
  C   C1155     1.0  0.46098  0.56864  0.04976  1.0000
  C   C1156     1.0  0.33304  0.62221  0.99921  1.0000
  C   C1157     1.0  0.37195  0.56411  0.00921  1.0000
  H   H919      1.0  0.28614  0.63125  0.00922  1.0000
  C   C1158     1.0  0.32773  0.93497  0.36065  1.0000
  H   H920      1.0  0.27283  0.73752  0.01281  1.0000
  C   C1159     1.0  0.29568  0.98403  0.36621  1.0000
  C   C1160     1.0  0.32858  0.81583  0.45083  1.0000
  H   H921      1.0  0.46614  0.96544  0.41707  1.0000
  H   H922      1.0  0.31759  0.85423  0.48608  1.0000
  C   C1161     1.0  0.41644  0.66301  0.03945  1.0000
  H   H923      1.0  0.43278  0.94704  0.41837  1.0000
  H   H924      1.0  0.42623  0.53569  0.09758  1.0000
  H   H925      1.0  0.34956  0.89812  0.32749  1.0000
  C   C1162     1.0  0.49045  0.92548  0.46107  1.0000
  H   H926      1.0  0.44799  0.56025  0.05794  1.0000
  H   H927      1.0  0.44108  0.59126  0.03287  1.0000
  C   C1163     1.0  0.36578  0.81598  0.49280  1.0000
  C   C1164     1.0  0.46752  0.86014  0.43146  1.0000
  H   H928      1.0  0.47353  0.90867  0.39022  1.0000
  C   C1165     1.0  0.26953  0.62647  0.06403  1.0000
  C   C1166     1.0  0.32877  0.73986  0.49216  1.0000
  C   C1167     1.0  0.35849  0.66105  0.01739  1.0000
  C   C1168     1.0  0.39631  0.58995  0.17680  1.0000
  C   C1169     1.0  0.39922  0.58563  0.19857  1.0000
  C   C1170     1.0  0.39520  0.60166  0.21273  1.0000
  C   C1171     1.0  0.38855  0.62209  0.20504  1.0000
  C   C1172     1.0  0.38596  0.62665  0.18307  1.0000
  C   C1173     1.0  0.38942  0.61028  0.16909  1.0000
  P   P39       1.0  0.37755  0.65305  0.17298  1.0000
  C   C1174     1.0  0.38505  0.67193  0.19079  1.0000
  C   C1175     1.0  0.39048  0.65945  0.14661  1.0000
  C   C1176     1.0  0.41074  0.65071  0.14091  1.0000
  C   C1177     1.0  0.42125  0.65670  0.12105  1.0000
  C   C1178     1.0  0.41177  0.67171  0.10685  1.0000
  C   C1179     1.0  0.39157  0.68032  0.11227  1.0000
  C   C1180     1.0  0.38097  0.67425  0.13207  1.0000
  C   C1181     1.0  0.40447  0.68143  0.18702  1.0000
  C   C1182     1.0  0.41019  0.69598  0.20090  1.0000
  C   C1183     1.0  0.39664  0.70107  0.21869  1.0000
  C   C1184     1.0  0.37740  0.69150  0.22271  1.0000
  C   C1185     1.0  0.37164  0.67693  0.20889  1.0000
  C   C1186     1.0  0.34932  0.65512  0.17205  1.0000
  C   C1187     1.0  0.33791  0.63687  0.17171  1.0000
  C   C1188     1.0  0.31604  0.63860  0.17142  1.0000
  C   C1189     1.0  0.30541  0.65854  0.17116  1.0000
  C   C1190     1.0  0.31665  0.67680  0.17114  1.0000
  C   C1191     1.0  0.33850  0.67513  0.17167  1.0000
  H   H929      1.0  0.39974  0.57760  0.16576  1.0000
  H   H930      1.0  0.39739  0.59827  0.22963  1.0000
  H   H931      1.0  0.38562  0.63425  0.21628  1.0000
  H   H932      1.0  0.38720  0.61327  0.15214  1.0000
  H   H933      1.0  0.41860  0.63936  0.15180  1.0000
  H   H934      1.0  0.43677  0.64963  0.11678  1.0000
  H   H935      1.0  0.42010  0.67672  0.09169  1.0000
  H   H936      1.0  0.38411  0.69181  0.10122  1.0000
  H   H937      1.0  0.36545  0.68129  0.13597  1.0000
  H   H938      1.0  0.41528  0.67764  0.17342  1.0000
  H   H939      1.0  0.42516  0.70331  0.19784  1.0000
  H   H940      1.0  0.40108  0.71239  0.22940  1.0000
  H   H941      1.0  0.36694  0.69538  0.23656  1.0000
  H   H942      1.0  0.35676  0.66950  0.21237  1.0000
  H   H943      1.0  0.34579  0.62129  0.17121  1.0000
  H   H944      1.0  0.30742  0.62452  0.17040  1.0000
  H   H945      1.0  0.28855  0.65990  0.17011  1.0000
  H   H946      1.0  0.30844  0.69229  0.16999  1.0000
  H   H947      1.0  0.34695  0.68949  0.17142  1.0000
  H   H948      1.0  0.29608  0.93129  0.47578  1.0000
  C   C1192     1.0  0.29981  0.94426  0.48482  1.0000
  H   H949      1.0  0.28376  0.74583  0.04813  1.0000
  C   C1193     1.0  0.44855  0.54274  0.00856  1.0000
  C   C1194     1.0  0.46073  0.52480  0.01580  1.0000
  C   C1195     1.0  0.28274  0.71354  0.06159  1.0000
  C   C1196     1.0  0.33075  0.69476  0.02875  1.0000
  H   H950      1.0  0.30342  0.78777  0.48162  1.0000
  C   C1197     1.0  0.47406  0.59711  0.02463  1.0000
  C   C1198     1.0  0.27132  0.74832  0.26787  1.0000
  C   C1199     1.0  0.28566  0.73319  0.25901  1.0000
  P   P40       1.0  0.33803  0.81149  0.49371  1.0000
  C   C1200     1.0  0.33450  0.78342  0.49312  1.0000
  H   H951      1.0  0.47010  0.80060  0.48524  1.0000
  H   H952      1.0  0.25271  0.62513  0.06671  1.0000
  H   H953      1.0  0.48432  0.54943  0.06616  1.0000
  C   C1201     1.0  0.30451  0.61312  0.07196  1.0000
  C   C1202     1.0  0.47937  0.50692  0.10998  1.0000
  H   H954      1.0  0.33336  0.96480  0.30598  1.0000
  C   C1203     1.0  0.37750  0.81970  0.47300  1.0000
  H   H955      1.0  0.28737  0.71724  0.07707  1.0000
  C   C1204     1.0  0.28423  0.94479  0.39143  1.0000
  C   C1205     1.0  0.34247  0.92014  0.35192  1.0000
  H   H956      1.0  0.46057  0.87469  0.47420  1.0000
  C   C1206     1.0  0.27072  0.68815  0.03871  1.0000
  C   C1207     1.0  0.36714  0.98810  0.33460  1.0000
  C   C1208     1.0  0.44850  0.88277  0.48421  1.0000
  C   C1209     1.0  0.47187  0.89519  0.40184  1.0000
  H   H957      1.0  0.45457  0.55377  0.99577  1.0000
  C   C1210     1.0  0.27910  0.92509  0.43321  1.0000
  H   H958      1.0  0.36941  0.64801  0.01320  1.0000
  H   H959      1.0  0.30233  0.73581  0.25776  1.0000
  H   H960      1.0  0.28961  0.70337  0.24435  1.0000
  C   C1211     1.0  0.27500  0.64021  0.99955  1.0000
  C   C1212     1.0  0.41148  0.96341  0.47946  1.0000
  C   C1213     1.0  0.35729  0.66769  0.03825  1.0000
  H   H961      1.0  0.33669  0.62874  0.01371  1.0000
  H   H962      1.0  0.26200  0.78189  0.18045  1.0000
  H   H963      1.0  0.45516  0.62653  0.05190  1.0000
  H   H964      1.0  0.32659  0.72305  0.49171  1.0000
  C   C1214     1.0  0.26524  0.95606  0.35003  1.0000
  C   C1215     1.0  0.32280  0.97220  0.48990  1.0000
  P   P41       1.0  0.28858  0.95695  0.36438  1.0000
  C   C1216     1.0  0.31320  0.62935  0.05821  1.0000
  C   C1217     1.0  0.43515  0.65062  0.00705  1.0000
  C   C1218     1.0  0.32072  0.82667  0.43264  1.0000
  H   H965      1.0  0.29860  0.74946  0.48064  1.0000
  H   H966      1.0  0.30580  0.85557  0.41968  1.0000
  C   C1219     1.0  0.31680  0.98902  0.36612  1.0000
  C   C1220     1.0  0.45753  0.95327  0.47629  1.0000
  C   C1221     1.0  0.45422  0.93890  0.46107  1.0000
  C   C1222     1.0  0.44310  0.50554  0.10203  1.0000
  C   C1223     1.0  0.34927  0.89240  0.49264  1.0000
  H   H967      1.0  0.34216  0.68949  0.06025  1.0000
  C   C1224     1.0  0.43627  0.94096  0.38508  1.0000
  C   C1225     1.0  0.34505  0.67045  0.00234  1.0000
  H   H968      1.0  0.30374  0.87297  0.45404  1.0000
  P   P42       1.0  0.48671  0.51907  0.00301  1.0000
  H   H969      1.0  0.37911  0.98386  0.34570  1.0000
  H   H970      1.0  0.32484  0.59268  0.01650  1.0000
  C   C1226     1.0  0.44262  0.94893  0.40351  1.0000
  H   H971      1.0  0.28787  0.91295  0.38132  1.0000
  H   H972      1.0  0.46063  0.49642  0.03766  1.0000
  H   H973      1.0  0.31654  0.90734  0.31002  1.0000
  C   C1227     1.0  0.34331  0.68448  0.04399  1.0000
  C   C1228     1.0  0.44803  0.63682  0.01953  1.0000
  H   H974      1.0  0.41898  0.56065  0.01231  1.0000
  H   H975      1.0  0.48939  0.51003  0.04989  1.0000
  H   H976      1.0  0.43904  0.93792  0.45507  1.0000
  H   H977      1.0  0.42535  0.50473  0.05509  1.0000
  H   H978      1.0  0.44364  0.93720  0.35140  1.0000
  C   C1229     1.0  0.41941  0.66368  0.01703  1.0000
  P   P43       1.0  0.43675  0.97213  0.48524  1.0000
  H   H979      1.0  0.35985  0.94015  0.46542  1.0000
  H   H980      1.0  0.27612  0.59936  0.08599  1.0000
  C   C1230     1.0  0.45721  0.58605  0.03518  1.0000
  C   C1231     1.0  0.26511  0.81272  0.29624  1.0000
  H   H981      1.0  0.42969  0.49675  0.09920  1.0000
  C   C1232     1.0  0.36434  0.50028  0.11697  1.0000
  C   C1233     1.0  0.37380  0.94736  0.46945  1.0000
  H   H982      1.0  0.40922  0.67401  0.00747  1.0000
  C   C1234     1.0  0.38733  0.95663  0.45316  1.0000
  H   H983      1.0  0.48328  0.61094  0.06729  1.0000
  C   C1235     1.0  0.37944  0.50095  0.09939  1.0000
  H   H984      1.0  0.49053  0.53835  0.11126  1.0000
  H   H985      1.0  0.27539  0.82428  0.28790  1.0000
  C   C1236     1.0  0.27850  0.71493  0.25148  1.0000
  C   C1237     1.0  0.24965  0.74528  0.26922  1.0000
  C   C1238     1.0  0.47407  0.96171  0.38319  1.0000
  S   S172      1.0  0.26063  0.83420  0.23492  1.0000
  C   C1239     1.0  0.37327  0.98766  0.39749  1.0000
  C   C1240     1.0  0.31146  0.84710  0.43390  1.0000
  C   C1241     1.0  0.26124  0.80513  0.20422  1.0000
  C   C1242     1.0  0.25626  0.79802  0.28462  1.0000
  H   H986      1.0  0.40430  0.49598  0.01070  1.0000
  H   H987      1.0  0.47680  0.95573  0.34945  1.0000
  C   C1243     1.0  0.48148  0.56233  0.05425  1.0000
  H   H988      1.0  0.25690  0.92486  0.36406  1.0000
  H   H989      1.0  0.38808  0.99076  0.38838  1.0000
  C   C1244     1.0  0.48747  0.86828  0.42601  1.0000
  C   C1245     1.0  0.47849  0.81485  0.48614  1.0000
  H   H990      1.0  0.25987  0.79842  0.26736  1.0000
  C   C1246     1.0  0.36754  0.87939  0.48994  1.0000
  H   H991      1.0  0.48003  0.66218  0.01974  1.0000
  C   C1247     1.0  0.24589  0.79888  0.32881  1.0000
  C   C1248     1.0  0.40900  0.82234  0.49128  1.0000
  C   C1249     1.0  0.47730  0.52911  0.10873  1.0000
  H   H992      1.0  0.24371  0.98041  0.30582  1.0000
  H   H993      1.0  0.32150  0.69597  0.99666  1.0000
  Fe  Fe88      1.0  0.40499  0.56957  0.89940  1.0000
  S   S173      1.0  0.38749  0.54147  0.91421  1.0000
  S   S174      1.0  0.43976  0.56063  0.89395  1.0000
  Fe  Fe89      1.0  0.36451  0.59838  0.89888  1.0000
  S   S175      1.0  0.34454  0.57225  0.91325  1.0000
  S   S176      1.0  0.35025  0.63176  0.89124  1.0000
  Fe  Fe90      1.0  0.37008  0.56470  0.93521  1.0000
  S   S177      1.0  0.36147  0.55461  0.96981  1.0000
  Fe  Fe91      1.0  0.36378  0.55135  0.89088  1.0000
  S   S178      1.0  0.34783  0.52984  0.87103  1.0000
  S   S179      1.0  0.38935  0.59211  0.92246  1.0000
  S   S180      1.0  0.38209  0.57811  0.87435  1.0000
  Fe  Fe92      1.0  0.35350  0.88175  0.62712  1.0000
  S   S181      1.0  0.36035  0.90375  0.59730  1.0000
  S   S182      1.0  0.31905  0.88075  0.64063  1.0000
  Fe  Fe93      1.0  0.39937  0.86467  0.62670  1.0000
  S   S183      1.0  0.40941  0.88490  0.59738  1.0000
  S   S184      1.0  0.42201  0.84103  0.64270  1.0000
  Fe  Fe94      1.0  0.38940  0.91051  0.61282  1.0000
  S   S185      1.0  0.40446  0.94188  0.61111  1.0000
  Fe  Fe95      1.0  0.37980  0.87636  0.58424  1.0000
  S   S186      1.0  0.38501  0.86666  0.55012  1.0000
  S   S187      1.0  0.38128  0.89096  0.64361  1.0000
  S   S188      1.0  0.37102  0.85366  0.61258  1.0000
  H   H994      1.0  0.44236  0.60711  0.88922  1.0000
  S   S189      1.0  0.28360  0.86468  0.73897  1.0000
  C   C1250     1.0  0.44903  0.97113  0.72692  1.0000
  H   H995      1.0  0.26851  0.79150  0.84587  1.0000
  C   C1251     1.0  0.27745  0.75936  0.94935  1.0000
  C   C1252     1.0  0.45315  0.50577  0.87080  1.0000
  C   C1253     1.0  0.30963  0.87613  0.66810  1.0000
  C   C1254     1.0  0.32311  0.87390  0.68466  1.0000
  C   C1255     1.0  0.31487  0.87042  0.70623  1.0000
  C   C1256     1.0  0.29307  0.86949  0.71155  1.0000
  C   C1257     1.0  0.27958  0.87200  0.69499  1.0000
  C   C1258     1.0  0.28786  0.87494  0.67340  1.0000
  H   H996      1.0  0.33989  0.87463  0.68087  1.0000
  H   H997      1.0  0.32545  0.86842  0.71889  1.0000
  H   H998      1.0  0.26279  0.87141  0.69878  1.0000
  H   H999      1.0  0.27732  0.87628  0.66070  1.0000
  H   H1000     1.0  0.36442  0.93418  0.55419  1.0000
  H   H1001     1.0  0.36668  0.49597  0.89976  1.0000
  H   H1002     1.0  0.44143  0.93961  0.52033  1.0000
  C   C1259     1.0  0.38629  0.96341  0.60800  1.0000
  C   C1260     1.0  0.36471  0.96039  0.60950  1.0000
  H   H1003     1.0  0.25514  0.97801  0.77809  1.0000
  H   H1004     1.0  0.33278  0.95100  0.53885  1.0000
  C   C1261     1.0  0.43377  0.89377  0.51882  1.0000
  H   H1005     1.0  0.35900  0.94479  0.61368  1.0000
  C   C1262     1.0  0.36352  0.95114  0.54998  1.0000
  C   C1263     1.0  0.37151  0.87805  0.52835  1.0000
  C   C1264     1.0  0.35364  0.89176  0.53105  1.0000
  C   C1265     1.0  0.34243  0.89881  0.51319  1.0000
  H   H1006     1.0  0.31210  0.54081  0.91001  1.0000
  C   C1266     1.0  0.43332  0.51604  0.86918  1.0000
  H   H1007     1.0  0.26200  0.64207  0.78195  1.0000
  H   H1008     1.0  0.34812  0.89633  0.54693  1.0000
  H   H1009     1.0  0.35954  0.73515  0.50382  1.0000
  C   C1267     1.0  0.29859  0.92465  0.71324  1.0000
  P   P44       1.0  0.47303  0.92236  0.65794  1.0000
  C   C1268     1.0  0.44973  0.84152  0.63885  1.0000
  H   H1010     1.0  0.45132  0.87306  0.62364  1.0000
  H   H1011     1.0  0.45345  0.80979  0.65348  1.0000
  C   C1269     1.0  0.32288  0.63837  0.89539  1.0000
  C   C1270     1.0  0.30906  0.62394  0.90596  1.0000
  C   C1271     1.0  0.28735  0.62918  0.90834  1.0000
  C   C1272     1.0  0.27916  0.64909  0.90049  1.0000
  C   C1273     1.0  0.29299  0.66383  0.89041  1.0000
  C   C1274     1.0  0.31475  0.65843  0.88781  1.0000
  H   H1012     1.0  0.31513  0.60872  0.91228  1.0000
  H   H1013     1.0  0.27685  0.61780  0.91645  1.0000
  H   H1014     1.0  0.28688  0.67916  0.88417  1.0000
  H   H1015     1.0  0.32532  0.66976  0.87967  1.0000
  H   H1016     1.0  0.28441  0.96722  0.53109  1.0000
  H   H1017     1.0  0.37555  0.59735  0.96407  1.0000
  C   C1275     1.0  0.25286  0.81871  0.71037  1.0000
  H   H1018     1.0  0.40400  0.91152  0.51874  1.0000
  H   H1019     1.0  0.28296  0.91135  0.62717  1.0000
  H   H1020     1.0  0.43414  0.89382  0.53608  1.0000
  C   C1276     1.0  0.37084  0.57121  0.98761  1.0000
  H   H1021     1.0  0.33307  0.59839  0.86700  1.0000
  C   C1277     1.0  0.46076  0.57755  0.88814  1.0000
  C   C1278     1.0  0.25684  0.69794  0.73953  1.0000
  C   C1279     1.0  0.45802  0.59969  0.88734  1.0000
  H   H1022     1.0  0.47091  0.61550  0.92808  1.0000
  H   H1023     1.0  0.25939  0.64304  0.94865  1.0000
  C   C1280     1.0  0.34046  0.95837  0.68094  1.0000
  C   C1281     1.0  0.27147  0.94297  0.61696  1.0000
  H   H1024     1.0  0.30065  0.67145  0.97845  1.0000
  H   H1025     1.0  0.43799  0.97574  0.57577  1.0000
  C   C1282     1.0  0.44905  0.93709  0.66623  1.0000
  C   C1283     1.0  0.48989  0.53606  0.97849  1.0000
  H   H1026     1.0  0.26344  0.75835  0.70457  1.0000
  C   C1284     1.0  0.41101  0.95880  0.67898  1.0000
  C   C1285     1.0  0.43752  0.97359  0.51387  1.0000
  H   H1027     1.0  0.48341  0.62779  0.96055  1.0000
  C   C1286     1.0  0.46268  0.61138  0.94356  1.0000
  C   C1287     1.0  0.30589  0.83462  0.55724  1.0000
  C   C1288     1.0  0.42137  0.94536  0.69391  1.0000
  C   C1289     1.0  0.44042  0.93465  0.68762  1.0000
  C   C1290     1.0  0.35120  0.50196  0.87058  1.0000
  C   C1291     1.0  0.45808  0.91583  0.61856  1.0000
  C   C1292     1.0  0.46033  0.91175  0.59685  1.0000
  H   H1028     1.0  0.24648  0.78074  0.76413  1.0000
  C   C1293     1.0  0.27954  0.55221  0.91440  1.0000
  C   C1294     1.0  0.24913  0.58782  0.88681  1.0000
  H   H1029     1.0  0.29620  0.96901  0.75082  1.0000
  C   C1295     1.0  0.43974  0.84838  0.54671  1.0000
  C   C1296     1.0  0.35047  0.97764  0.60547  1.0000
  C   C1297     1.0  0.30911  0.80906  0.53011  1.0000
  C   C1298     1.0  0.48028  0.91036  0.58596  1.0000
  H   H1030     1.0  0.47147  0.91494  0.51871  1.0000
  H   H1031     1.0  0.41452  0.94301  0.71029  1.0000
  H   H1032     1.0  0.29250  0.54125  0.84322  1.0000
  H   H1033     1.0  0.44254  0.91564  0.62698  1.0000
  H   H1034     1.0  0.44661  0.90899  0.58870  1.0000
  C   C1299     1.0  0.40279  0.51619  0.97178  1.0000
  C   C1300     1.0  0.25479  0.94539  0.65980  1.0000
  C   C1301     1.0  0.48107  0.56814  0.88516  1.0000
  H   H1035     1.0  0.32832  0.90899  0.51530  1.0000
  C   C1302     1.0  0.34733  0.74668  0.49897  1.0000
  C   C1303     1.0  0.24676  0.66697  0.99514  1.0000
  C   C1304     1.0  0.27423  0.92570  0.63193  1.0000
  C   C1305     1.0  0.37856  0.87226  0.50772  1.0000
  C   C1306     1.0  0.44012  0.95486  0.52715  1.0000
  C   C1307     1.0  0.30666  0.98169  0.71896  1.0000
  C   C1308     1.0  0.32159  0.59210  0.98264  1.0000
  C   C1309     1.0  0.44958  0.88269  0.50653  1.0000
  H   H1036     1.0  0.38934  0.62040  0.98916  1.0000
  C   C1310     1.0  0.34565  0.93797  0.67445  1.0000
  C   C1311     1.0  0.33614  0.93079  0.65736  1.0000
  C   C1312     1.0  0.32157  0.94400  0.64662  1.0000
  H   H1037     1.0  0.25448  0.63424  0.74561  1.0000
  P   P45       1.0  0.24380  0.94639  0.68740  1.0000
  C   C1313     1.0  0.32919  0.57822  0.84162  1.0000
  C   C1314     1.0  0.29345  0.96468  0.51603  1.0000
  P   P46       1.0  0.27488  0.55085  0.88653  1.0000
  C   C1315     1.0  0.43569  0.51102  0.94000  1.0000
  H   H1038     1.0  0.34833  0.96393  0.69392  1.0000
  S   S190      1.0  0.25083  0.76068  0.87716  1.0000
  C   C1316     1.0  0.26602  0.92697  0.65322  1.0000
  H   H1039     1.0  0.41714  0.68675  0.96400  1.0000
  H   H1040     1.0  0.28776  0.80687  0.55871  1.0000
  H   H1041     1.0  0.26555  0.72750  0.84655  1.0000
  C   C1317     1.0  0.41544  0.50678  0.87930  1.0000
  H   H1042     1.0  0.43868  0.54476  0.94039  1.0000
  C   C1318     1.0  0.26266  0.93522  0.70561  1.0000
  H   H1043     1.0  0.28137  0.61369  0.85786  1.0000
  H   H1044     1.0  0.26064  0.97613  0.71499  1.0000
  H   H1045     1.0  0.25966  0.59336  0.89754  1.0000
  H   H1046     1.0  0.35720  0.92772  0.68246  1.0000
  H   H1047     1.0  0.34028  0.91507  0.65222  1.0000
  C   C1319     1.0  0.43812  0.97522  0.55849  1.0000
  C   C1320     1.0  0.33572  0.63355  0.97900  1.0000
  H   H1048     1.0  0.43919  0.89363  0.67200  1.0000
  C   C1321     1.0  0.43890  0.95116  0.65155  1.0000
  H   H1049     1.0  0.28464  0.62312  0.97157  1.0000
  C   C1322     1.0  0.27421  0.63546  0.97817  1.0000
  C   C1323     1.0  0.32478  0.82075  0.51822  1.0000
  H   H1050     1.0  0.30579  0.51616  0.87704  1.0000
  H   H1051     1.0  0.43823  0.82555  0.59787  1.0000
  C   C1324     1.0  0.26247  0.65281  0.82289  1.0000
  C   C1325     1.0  0.46144  0.82350  0.64623  1.0000
  H   H1052     1.0  0.44191  0.94116  0.55965  1.0000
  H   H1053     1.0  0.28960  0.55277  0.97476  1.0000
  H   H1054     1.0  0.30521  0.97448  0.64425  1.0000
  H   H1055     1.0  0.40515  0.81840  0.52589  1.0000
  C   C1326     1.0  0.47348  0.84958  0.56131  1.0000
  C   C1327     1.0  0.46549  0.83883  0.58036  1.0000
  H   H1056     1.0  0.32010  0.98575  0.57323  1.0000
  H   H1057     1.0  0.43180  0.53129  0.86012  1.0000
  H   H1058     1.0  0.42025  0.58533  0.96575  1.0000
  C   C1328     1.0  0.26313  0.55794  0.92957  1.0000
  H   H1059     1.0  0.27481  0.93896  0.50956  1.0000
  C   C1329     1.0  0.43172  0.83803  0.56597  1.0000
  H   H1060     1.0  0.38047  0.68703  0.97994  1.0000
  C   C1330     1.0  0.46839  0.97237  0.71482  1.0000
  C   C1331     1.0  0.47305  0.89574  0.67057  1.0000
  C   C1332     1.0  0.31764  0.56220  0.83494  1.0000
  H   H1061     1.0  0.48517  0.51037  0.90241  1.0000
  C   C1333     1.0  0.31620  0.96440  0.65313  1.0000
  H   H1062     1.0  0.42942  0.85170  0.53389  1.0000
  H   H1063     1.0  0.26498  0.68249  0.74123  1.0000
  H   H1064     1.0  0.24450  0.69223  0.70969  1.0000
  C   C1334     1.0  0.25588  0.92896  0.72694  1.0000
  H   H1065     1.0  0.32626  0.86075  0.55147  1.0000
  C   C1335     1.0  0.30047  0.63538  0.83768  1.0000
  C   C1336     1.0  0.30062  0.65228  0.82193  1.0000
  H   H1066     1.0  0.31505  0.62922  0.84401  1.0000
  H   H1067     1.0  0.31538  0.65902  0.81593  1.0000
  H   H1068     1.0  0.36788  0.93973  0.50338  1.0000
  C   C1337     1.0  0.30769  0.57755  0.87539  1.0000
  H   H1069     1.0  0.25319  0.82316  0.82556  1.0000
  H   H1070     1.0  0.47547  0.83497  0.59340  1.0000
  H   H1071     1.0  0.31483  0.93844  0.63296  1.0000
  C   C1338     1.0  0.25577  0.72253  0.83474  1.0000
  C   C1339     1.0  0.39357  0.98377  0.60319  1.0000
  C   C1340     1.0  0.28798  0.94851  0.50393  1.0000
  C   C1341     1.0  0.45406  0.88563  0.67555  1.0000
  H   H1072     1.0  0.47329  0.83688  0.69371  1.0000
  C   C1342     1.0  0.32553  0.97168  0.67049  1.0000
  C   C1343     1.0  0.47573  0.61220  0.88448  1.0000
  C   C1344     1.0  0.26395  0.76188  0.93287  1.0000
  C   C1345     1.0  0.28172  0.66090  0.81445  1.0000
  H   H1073     1.0  0.43952  0.85668  0.68748  1.0000
  C   C1346     1.0  0.27129  0.81123  0.69916  1.0000
  P   P47       1.0  0.34564  0.65998  0.97614  1.0000
  H   H1074     1.0  0.40072  0.95407  0.51250  1.0000
  H   H1075     1.0  0.31720  0.57576  0.98394  1.0000
  C   C1347     1.0  0.26682  0.55835  0.95123  1.0000
  H   H1076     1.0  0.28206  0.67440  0.80269  1.0000
  C   C1348     1.0  0.48260  0.85891  0.62809  1.0000
  H   H1077     1.0  0.39266  0.86219  0.50544  1.0000
  C   C1349     1.0  0.28680  0.55268  0.95795  1.0000
  H   H1078     1.0  0.34228  0.58439  0.83133  1.0000
  H   H1079     1.0  0.41161  0.97157  0.64603  1.0000
  C   C1350     1.0  0.45977  0.61236  0.98245  1.0000
  C   C1351     1.0  0.41673  0.90401  0.50902  1.0000
  H   H1080     1.0  0.33381  0.97526  0.60666  1.0000
  P   P48       1.0  0.47089  0.86829  0.51938  1.0000
  C   C1352     1.0  0.27276  0.77017  0.96792  1.0000
  S   S191      1.0  0.24682  0.71290  0.92134  1.0000
  H   H1081     1.0  0.29884  0.83987  0.57242  1.0000
  H   H1082     1.0  0.47675  0.51442  0.95870  1.0000
  H   H1083     1.0  0.28325  0.76832  0.98069  1.0000
  H   H1084     1.0  0.31277  0.96638  0.71422  1.0000
  C   C1353     1.0  0.27491  0.78947  0.69696  1.0000
  H   H1085     1.0  0.30379  0.58381  0.89086  1.0000
  H   H1086     1.0  0.45696  0.82671  0.51110  1.0000
  H   H1087     1.0  0.40006  0.51464  0.87770  1.0000
  H   H1088     1.0  0.47365  0.62930  0.88419  1.0000
  C   C1354     1.0  0.46033  0.85920  0.62946  1.0000
  C   C1355     1.0  0.29971  0.81601  0.54952  1.0000
  C   C1356     1.0  0.25244  0.56754  0.87910  1.0000
  C   C1357     1.0  0.30309  0.54653  0.94304  1.0000
  C   C1358     1.0  0.37601  0.81514  0.51187  1.0000
  C   C1359     1.0  0.37711  0.59151  0.98044  1.0000
  C   C1360     1.0  0.25222  0.96275  0.64467  1.0000
  C   C1361     1.0  0.47578  0.91921  0.62941  1.0000
  C   C1362     1.0  0.37879  0.98532  0.54860  1.0000
  H   H1089     1.0  0.26505  0.91537  0.75755  1.0000
  H   H1090     1.0  0.27791  0.94200  0.60046  1.0000
  C   C1363     1.0  0.48343  0.82309  0.64461  1.0000
  C   C1364     1.0  0.44456  0.83332  0.58282  1.0000
  C   C1365     1.0  0.45417  0.86464  0.68436  1.0000
  C   C1366     1.0  0.43430  0.59420  0.96481  1.0000
  H   H1091     1.0  0.31502  0.92224  0.70776  1.0000
  C   C1367     1.0  0.43054  0.53104  0.94750  1.0000
  H   H1092     1.0  0.30420  0.79450  0.52464  1.0000
  C   C1368     1.0  0.29659  0.56091  0.86919  1.0000
  C   C1369     1.0  0.40686  0.67477  0.96030  1.0000
  C   C1370     1.0  0.41436  0.65936  0.94635  1.0000
  C   C1371     1.0  0.40095  0.64427  0.94113  1.0000
  C   C1372     1.0  0.38014  0.64429  0.95011  1.0000
  C   C1373     1.0  0.37268  0.65921  0.96480  1.0000
  C   C1374     1.0  0.38608  0.67479  0.96939  1.0000
  H   H1093     1.0  0.26185  0.68951  0.84321  1.0000
  C   C1375     1.0  0.32936  0.67571  0.95804  1.0000
  C   C1376     1.0  0.33058  0.83961  0.52594  1.0000
  C   C1377     1.0  0.48419  0.54359  0.94070  1.0000
  C   C1378     1.0  0.38004  0.96344  0.55379  1.0000
  Fe  Fe96      1.0  0.24922  0.86692  0.75249  1.0000
  C   C1379     1.0  0.32376  0.60333  0.96255  1.0000
  C   C1380     1.0  0.33054  0.62406  0.96072  1.0000
  C   C1381     1.0  0.30761  0.67826  0.96330  1.0000
  C   C1382     1.0  0.29469  0.68953  0.94898  1.0000
  C   C1383     1.0  0.30335  0.69806  0.92915  1.0000
  C   C1384     1.0  0.32494  0.69541  0.92367  1.0000
  C   C1385     1.0  0.33792  0.68425  0.93801  1.0000
  H   H1094     1.0  0.44600  0.95746  0.73807  1.0000
  H   H1095     1.0  0.33625  0.50264  0.84103  1.0000
  H   H1096     1.0  0.30262  0.91054  0.74516  1.0000
  H   H1097     1.0  0.24741  0.56186  0.92481  1.0000
  C   C1386     1.0  0.24729  0.98387  0.70756  1.0000
  C   C1387     1.0  0.25457  0.78349  0.96999  1.0000
  H   H1098     1.0  0.39606  0.96679  0.68369  1.0000
  H   H1099     1.0  0.43046  0.65926  0.93931  1.0000
  H   H1100     1.0  0.40666  0.63267  0.92989  1.0000
  H   H1101     1.0  0.37003  0.63268  0.94542  1.0000
  C   C1388     1.0  0.25287  0.51382  0.88866  1.0000
  H   H1102     1.0  0.44248  0.99264  0.61825  1.0000
  H   H1103     1.0  0.28924  0.78374  0.68825  1.0000
  H   H1104     1.0  0.40977  0.54911  0.96897  1.0000
  H   H1105     1.0  0.32050  0.59578  0.94839  1.0000
  H   H1106     1.0  0.33216  0.63249  0.94495  1.0000
  H   H1107     1.0  0.25413  0.56287  0.96286  1.0000
  H   H1108     1.0  0.27790  0.69134  0.95308  1.0000
  H   H1109     1.0  0.29333  0.70639  0.91781  1.0000
  H   H1110     1.0  0.33155  0.70158  0.90807  1.0000
  H   H1111     1.0  0.26850  0.91355  0.66467  1.0000
  H   H1112     1.0  0.39360  0.95605  0.56123  1.0000
  C   C1389     1.0  0.46064  0.85458  0.54428  1.0000
  H   H1113     1.0  0.31858  0.54211  0.94833  1.0000
  H   H1114     1.0  0.44534  0.95362  0.63506  1.0000
  C   C1390     1.0  0.27241  0.52291  0.88402  1.0000
  H   H1115     1.0  0.41020  0.98622  0.60213  1.0000
  C   C1391     1.0  0.28148  0.62669  0.84553  1.0000
  H   H1116     1.0  0.35450  0.68200  0.93311  1.0000
  H   H1117     1.0  0.41539  0.83394  0.56798  1.0000
  C   C1392     1.0  0.27038  0.92058  0.74124  1.0000
  H   H1118     1.0  0.32176  0.55600  0.81942  1.0000
  C   C1393     1.0  0.29943  0.54603  0.92136  1.0000
  C   C1394     1.0  0.41425  0.53354  0.96353  1.0000
  C   C1395     1.0  0.28426  0.93364  0.69907  1.0000
  C   C1396     1.0  0.30123  0.55370  0.84859  1.0000
  C   C1397     1.0  0.32130  0.84642  0.54542  1.0000
  C   C1398     1.0  0.29730  0.98311  0.73986  1.0000
  C   C1399     1.0  0.44502  0.59921  0.94487  1.0000
  C   C1400     1.0  0.32410  0.58600  0.86178  1.0000
  C   C1401     1.0  0.41983  0.96170  0.65784  1.0000
  C   C1402     1.0  0.44040  0.95568  0.54938  1.0000
  H   H1119     1.0  0.44822  0.92418  0.69932  1.0000
  H   H1120     1.0  0.33680  0.51097  0.93171  1.0000
  C   C1403     1.0  0.48169  0.84838  0.50179  1.0000
  C   C1404     1.0  0.47321  0.85342  0.68776  1.0000
  C   C1405     1.0  0.34412  0.98284  0.53617  1.0000
  H   H1121     1.0  0.29009  0.93889  0.68297  1.0000
  C   C1406     1.0  0.29166  0.91813  0.73433  1.0000
  H   H1122     1.0  0.48311  0.55112  0.88498  1.0000
  C   C1407     1.0  0.43347  0.98736  0.72437  1.0000
  C   C1408     1.0  0.29042  0.50967  0.87969  1.0000
  H   H1123     1.0  0.43715  0.65113  0.98969  1.0000
  C   C1409     1.0  0.25176  0.79523  0.84782  1.0000
  H   H1124     1.0  0.34248  0.84891  0.51699  1.0000
  H   H1125     1.0  0.36469  0.77330  0.50484  1.0000
  C   C1410     1.0  0.26044  0.96146  0.62334  1.0000
  C   C1411     1.0  0.31093  0.97669  0.50911  1.0000
  H   H1126     1.0  0.46672  0.51309  0.86241  1.0000
  C   C1412     1.0  0.46993  0.61811  0.96220  1.0000
  H   H1127     1.0  0.48735  0.99066  0.69102  1.0000
  C   C1413     1.0  0.25809  0.71250  0.75495  1.0000
  C   C1414     1.0  0.24745  0.64842  0.77579  1.0000
  H   H1128     1.0  0.43950  0.59382  0.93043  1.0000
  C   C1415     1.0  0.43549  0.99397  0.54540  1.0000
  H   H1129     1.0  0.26715  0.70833  0.76866  1.0000
  C   C1416     1.0  0.44153  0.60084  0.98350  1.0000
  C   C1417     1.0  0.34560  0.96078  0.54126  1.0000
  H   H1130     1.0  0.24503  0.83946  0.88725  1.0000
  H   H1131     1.0  0.36740  0.81221  0.52738  1.0000
  H   H1132     1.0  0.48033  0.95965  0.71656  1.0000
  C   C1418     1.0  0.39754  0.81838  0.51109  1.0000
  C   C1419     1.0  0.43515  0.99319  0.52314  1.0000
  C   C1420     1.0  0.25991  0.64660  0.96525  1.0000
  H   H1133     1.0  0.38938  0.51886  0.98324  1.0000
  S   S192      1.0  0.25150  0.65409  0.90230  1.0000
  H   H1134     1.0  0.25811  0.97473  0.61169  1.0000
  C   C1421     1.0  0.26024  0.77514  0.70624  1.0000
  H   H1135     1.0  0.24827  0.82070  0.92298  1.0000
  H   H1136     1.0  0.36764  0.50951  0.95259  1.0000
  C   C1422     1.0  0.48637  0.90817  0.52353  1.0000
  H   H1137     1.0  0.28280  0.82235  0.69233  1.0000
  H   H1138     1.0  0.29160  0.74913  0.94764  1.0000
  C   C1423     1.0  0.48316  0.52978  0.95928  1.0000
  H   H1139     1.0  0.26782  0.75387  0.91827  1.0000
  C   C1424     1.0  0.49217  0.56360  0.94109  1.0000
  H   H1140     1.0  0.48206  0.90627  0.56946  1.0000
  C   C1425     1.0  0.25362  0.70092  0.83269  1.0000
  C   C1426     1.0  0.49072  0.88612  0.52448  1.0000
  C   C1427     1.0  0.30517  0.99357  0.56976  1.0000
  H   H1141     1.0  0.47847  0.53905  0.92603  1.0000
  C   C1428     1.0  0.34290  0.49581  0.93843  1.0000
  H   H1142     1.0  0.25148  0.79179  0.98445  1.0000
  H   H1143     1.0  0.44785  0.50927  0.92700  1.0000
  C   C1429     1.0  0.24614  0.66229  0.97377  1.0000
  C   C1430     1.0  0.49213  0.88408  0.67324  1.0000
  C   C1431     1.0  0.47109  0.82970  0.50079  1.0000
  H   H1144     1.0  0.48054  0.96415  0.49580  1.0000
  H   H1145     1.0  0.25009  0.83555  0.71229  1.0000
  C   C1432     1.0  0.47234  0.99000  0.70046  1.0000
  C   C1433     1.0  0.26256  0.63519  0.83801  1.0000
  C   C1434     1.0  0.35021  0.76838  0.49950  1.0000
  H   H1146     1.0  0.41832  0.98623  0.73347  1.0000
  H   H1147     1.0  0.35978  0.99125  0.65059  1.0000
  C   C1435     1.0  0.24551  0.77481  0.93505  1.0000
  H   H1148     1.0  0.24385  0.97725  0.64914  1.0000
  C   C1436     1.0  0.40790  0.49594  0.96454  1.0000
  C   C1437     1.0  0.49219  0.86311  0.68210  1.0000
  H   H1149     1.0  0.48963  0.85385  0.56018  1.0000
  H   H1150     1.0  0.49078  0.87259  0.62121  1.0000
  H   H1151     1.0  0.47885  0.98830  0.60162  1.0000
  H   H1152     1.0  0.49217  0.80903  0.65061  1.0000
  H   H1153     1.0  0.24806  0.62837  0.84455  1.0000
  C   C1438     1.0  0.24323  0.64387  0.75511  1.0000
  C   C1439     1.0  0.24458  0.73777  0.82233  1.0000
  H   H1154     1.0  0.24579  0.75449  0.82448  1.0000
  C   C1440     1.0  0.24311  0.81314  0.83624  1.0000
  C   C1441     1.0  0.24784  0.73258  0.75263  1.0000
  H   H1155     1.0  0.24947  0.74362  0.76456  1.0000
  C   C1442     1.0  0.24533  0.70345  0.72176  1.0000
  C   C1443     1.0  0.36072  0.49483  0.95002  1.0000
  C   C1444     1.0  0.38453  0.60470  0.99476  1.0000
  C   C1445     1.0  0.39728  0.95495  0.49587  1.0000
  Fe  Fe97      1.0  0.59286  0.37080  0.09743  1.0000
  S   S193      1.0  0.61277  0.39917  0.09457  1.0000
  S   S194      1.0  0.60296  0.33579  0.10264  1.0000
  Fe  Fe98      1.0  0.55271  0.39777  0.08681  1.0000
  S   S195      1.0  0.56940  0.42822  0.08356  1.0000
  S   S196      1.0  0.52007  0.40039  0.07519  1.0000
  Fe  Fe99      1.0  0.59520  0.40974  0.06568  1.0000
  S   S197      1.0  0.60796  0.42100  0.03262  1.0000
  Fe  Fe100     1.0  0.58503  0.41528  0.11268  1.0000
  S   S198      1.0  0.58801  0.43468  0.14086  1.0000
  S   S199      1.0  0.57770  0.38021  0.06691  1.0000
  S   S200      1.0  0.56612  0.38598  0.11782  1.0000
  Fe  Fe101     1.0  0.56040  0.06239  0.44385  1.0000
  S   S201      1.0  0.55685  0.09551  0.42845  1.0000
  S   S202      1.0  0.55675  0.05161  0.47947  1.0000
  Fe  Fe102     1.0  0.56014  0.04323  0.40059  1.0000
  S   S203      1.0  0.55544  0.07466  0.38205  1.0000
  S   S204      1.0  0.56459  0.01323  0.38369  1.0000
  Fe  Fe103     1.0  0.58033  0.08449  0.40184  1.0000
  S   S205      1.0  0.60825  0.10287  0.38689  1.0000
  Fe  Fe104     1.0  0.53237  0.08249  0.40995  1.0000
  C   C1446     1.0  0.63773  0.36641  0.15550  1.0000
  S   S206      1.0  0.58601  0.05246  0.41922  1.0000
  S   S207      1.0  0.53484  0.04993  0.42644  1.0000
  Fe  Fe105     1.0  0.70974  0.26689  0.11832  1.0000
  H   H1156     1.0  0.57444  0.28527  0.20254  1.0000
  S   S208      1.0  0.69661  0.30119  0.11783  1.0000
  Fe  Fe106     1.0  0.70712  0.22181  0.13887  1.0000
  S   S209      1.0  0.68965  0.20428  0.16740  1.0000
  C   C1447     1.0  0.72110  0.22691  0.03179  1.0000
  C   C1448     1.0  0.69835  0.01180  0.33177  1.0000
  S   S210      1.0  0.72165  0.25074  0.14855  1.0000
  S   S211      1.0  0.69278  0.23891  0.11006  1.0000
  S   S212      1.0  0.70075  0.06757  0.25277  1.0000
  Fe  Fe107     1.0  0.69231  0.08541  0.28249  1.0000
  S   S213      1.0  0.66016  0.07819  0.29965  1.0000
  H   H1157     1.0  0.53415  0.31826  0.01767  1.0000
  C   C1449     1.0  0.60897  0.02104  0.47458  1.0000
  C   C1450     1.0  0.69672  0.17801  0.17713  1.0000
  C   C1451     1.0  0.70508  0.13561  0.19330  1.0000
  C   C1452     1.0  0.69584  0.15060  0.20697  1.0000
  C   C1453     1.0  0.69139  0.17160  0.19881  1.0000
  H   H1158     1.0  0.69155  0.14585  0.22367  1.0000
  H   H1159     1.0  0.68356  0.18289  0.20926  1.0000
  C   C1454     1.0  0.64517  0.99911  0.40104  1.0000
  H   H1160     1.0  0.49555  0.00716  0.41415  1.0000
  Fe  Fe108     1.0  0.71340  0.09826  0.23772  1.0000
  H   H1161     1.0  0.60346  0.08454  0.44875  1.0000
  C   C1455     1.0  0.51896  0.43271  0.12298  1.0000
  C   C1456     1.0  0.62249  0.09616  0.36248  1.0000
  C   C1457     1.0  0.64074  0.10680  0.35503  1.0000
  C   C1458     1.0  0.65245  0.10169  0.33578  1.0000
  C   C1459     1.0  0.64612  0.08569  0.32390  1.0000
  C   C1460     1.0  0.62790  0.07507  0.33141  1.0000
  C   C1461     1.0  0.61616  0.08023  0.35055  1.0000
  H   H1162     1.0  0.64578  0.11913  0.36414  1.0000
  H   H1163     1.0  0.66633  0.11013  0.33013  1.0000
  H   H1164     1.0  0.62270  0.06284  0.32226  1.0000
  H   H1165     1.0  0.60212  0.07197  0.35600  1.0000
  H   H1166     1.0  0.60835  0.03813  0.47130  1.0000
  H   H1167     1.0  0.69021  0.07203  0.33325  1.0000
  H   H1168     1.0  0.53491  0.41370  0.01775  1.0000
  C   C1462     1.0  0.49752  0.39035  0.08986  1.0000
  C   C1463     1.0  0.50795  0.01786  0.37123  1.0000
  C   C1464     1.0  0.71708  0.02746  0.44230  1.0000
  H   H1169     1.0  0.72885  0.49343  0.12782  1.0000
  C   C1465     1.0  0.74202  0.00258  0.26318  1.0000
  H   H1170     1.0  0.53942  0.34131  0.05744  1.0000
  C   C1466     1.0  0.70525  0.25405  0.00743  1.0000
  H   H1171     1.0  0.56795  0.01007  0.42953  1.0000
  C   C1467     1.0  0.62919  0.32636  0.10626  1.0000
  C   C1468     1.0  0.64527  0.34024  0.10702  1.0000
  C   C1469     1.0  0.66590  0.33222  0.11003  1.0000
  C   C1470     1.0  0.67065  0.31027  0.11261  1.0000
  C   C1471     1.0  0.65464  0.29633  0.11155  1.0000
  C   C1472     1.0  0.63400  0.30437  0.10843  1.0000
  H   H1172     1.0  0.64176  0.35719  0.10575  1.0000
  H   H1173     1.0  0.67819  0.34312  0.11079  1.0000
  H   H1174     1.0  0.65809  0.27939  0.11345  1.0000
  H   H1175     1.0  0.62166  0.29349  0.10795  1.0000
  C   C1473     1.0  0.49597  0.37866  0.00280  1.0000
  C   C1474     1.0  0.63666  0.28220  0.18730  1.0000
  C   C1475     1.0  0.68516  0.29458  0.06249  1.0000
  C   C1476     1.0  0.58427  0.46269  0.13977  1.0000
  C   C1477     1.0  0.58070  0.47204  0.15933  1.0000
  H   H1176     1.0  0.64294  0.38179  0.14905  1.0000
  H   H1177     1.0  0.71091  0.03580  0.40947  1.0000
  C   C1478     1.0  0.62727  0.00521  0.39029  1.0000
  C   C1479     1.0  0.59561  0.26741  0.16732  1.0000
  H   H1178     1.0  0.57925  0.46213  0.17420  1.0000
  C   C1480     1.0  0.67984  0.01685  0.34452  1.0000
  H   H1179     1.0  0.70593  0.08154  0.40799  1.0000
  C   C1481     1.0  0.59464  0.32367  0.24054  1.0000
  C   C1482     1.0  0.56693  0.41720  0.02433  1.0000
  C   C1483     1.0  0.58782  0.41837  0.01577  1.0000
  H   H1180     1.0  0.59044  0.46101  0.00658  1.0000
  H   H1181     1.0  0.56295  0.41806  0.04132  1.0000
  C   C1484     1.0  0.58285  0.25820  0.15397  1.0000
  C   C1485     1.0  0.69519  0.28037  0.23691  1.0000
  C   C1486     1.0  0.49857  0.37829  0.10945  1.0000
  P   P49       1.0  0.72201  0.00143  0.34343  1.0000
  C   C1487     1.0  0.54415  0.28539  0.01740  1.0000
  H   H1182     1.0  0.64807  0.48837  0.13246  1.0000
  C   C1488     1.0  0.55092  0.41495  0.01088  1.0000
  S   S214      1.0  0.72348  0.07690  0.29604  1.0000
  H   H1183     1.0  0.61256  0.12210  0.44267  1.0000
  C   C1489     1.0  0.68900  0.03590  0.46920  1.0000
  H   H1184     1.0  0.71760  0.13054  0.16093  1.0000
  C   C1490     1.0  0.57219  0.99476  0.42347  1.0000
  C   C1491     1.0  0.67665  0.04474  0.45307  1.0000
  C   C1492     1.0  0.49507  0.34075  0.01160  1.0000
  C   C1493     1.0  0.58602  0.47580  0.12055  1.0000
  H   H1185     1.0  0.70377  0.25489  0.04207  1.0000
  C   C1494     1.0  0.57355  0.27064  0.13757  1.0000
  H   H1186     1.0  0.50179  0.39733  0.02888  1.0000
  P   P50       1.0  0.73215  0.22550  0.24078  1.0000
  P   P51       1.0  0.60778  0.31904  0.01774  1.0000
  C   C1495     1.0  0.62151  0.34125  0.02480  1.0000
  H   H1187     1.0  0.51236  0.00773  0.44803  1.0000
  H   H1188     1.0  0.72845  0.32001  0.08638  1.0000
  H   H1189     1.0  0.51613  0.05021  0.36312  1.0000
  H   H1190     1.0  0.63906  0.38849  0.00237  1.0000
  C   C1496     1.0  0.51296  0.27844  0.05100  1.0000
  C   C1497     1.0  0.57275  0.34710  0.01765  1.0000
  H   H1191     1.0  0.61668  0.46623  0.19252  1.0000
  S   S215      1.0  0.73613  0.21026  0.11966  1.0000
  C   C1498     1.0  0.64031  0.37746  0.03562  1.0000
  C   C1499     1.0  0.63503  0.36147  0.05146  1.0000
  C   C1500     1.0  0.62557  0.34346  0.04615  1.0000
  C   C1501     1.0  0.60126  0.30175  0.04143  1.0000
  C   C1502     1.0  0.61668  0.28710  0.04920  1.0000
  C   C1503     1.0  0.61216  0.27392  0.06778  1.0000
  C   C1504     1.0  0.59220  0.27521  0.07873  1.0000
  C   C1505     1.0  0.57673  0.28970  0.07110  1.0000
  C   C1506     1.0  0.58122  0.30292  0.05251  1.0000
  H   H1192     1.0  0.56648  0.31705  0.26087  1.0000
  H   H1193     1.0  0.68429  0.28906  0.24765  1.0000
  C   C1507     1.0  0.70948  0.24614  0.02845  1.0000
  H   H1194     1.0  0.56365  0.26351  0.12724  1.0000
  H   H1195     1.0  0.62946  0.46048  0.15488  1.0000
  H   H1196     1.0  0.58428  0.46077  0.04599  1.0000
  H   H1197     1.0  0.71078  0.33922  0.02494  1.0000
  C   C1508     1.0  0.67263  0.31078  0.05287  1.0000
  C   C1509     1.0  0.53137  0.30243  0.02478  1.0000
  H   H1198     1.0  0.57707  0.35114  0.03310  1.0000
  S   S216      1.0  0.72755  0.21639  0.05791  1.0000
  H   H1199     1.0  0.72881  0.03893  0.36621  1.0000
  H   H1200     1.0  0.64686  0.39180  0.03995  1.0000
  H   H1201     1.0  0.63771  0.36334  0.06800  1.0000
  H   H1202     1.0  0.62107  0.33162  0.05885  1.0000
  H   H1203     1.0  0.63230  0.28593  0.04103  1.0000
  H   H1204     1.0  0.62423  0.26285  0.07385  1.0000
  H   H1205     1.0  0.58887  0.26508  0.09320  1.0000
  H   H1206     1.0  0.56132  0.29090  0.07972  1.0000
  H   H1207     1.0  0.56905  0.31403  0.04704  1.0000
  H   H1208     1.0  0.66750  0.05678  0.36333  1.0000
  C   C1510     1.0  0.69964  0.28847  0.21569  1.0000
  C   C1511     1.0  0.71394  0.27742  0.20193  1.0000
  C   C1512     1.0  0.72380  0.25826  0.20933  1.0000
  C   C1513     1.0  0.71347  0.20625  0.25147  1.0000
  C   C1514     1.0  0.62453  0.30329  0.99958  1.0000
  C   C1515     1.0  0.70594  0.17281  0.27171  1.0000
  C   C1516     1.0  0.68523  0.17485  0.26604  1.0000
  C   C1517     1.0  0.67860  0.19248  0.25301  1.0000
  C   C1518     1.0  0.69268  0.20808  0.24562  1.0000
  H   H1209     1.0  0.69208  0.30333  0.20988  1.0000
  C   C1519     1.0  0.74015  0.03849  0.35236  1.0000
  H   H1210     1.0  0.67224  0.33925  0.03165  1.0000
  C   C1520     1.0  0.52512  0.44222  0.14065  1.0000
  H   H1211     1.0  0.59312  0.34235  0.17466  1.0000
  H   H1212     1.0  0.67444  0.16257  0.27150  1.0000
  H   H1213     1.0  0.66268  0.19375  0.24818  1.0000
  H   H1214     1.0  0.68746  0.22118  0.23490  1.0000
  C   C1521     1.0  0.57968  0.49413  0.15997  1.0000
  H   H1215     1.0  0.58022  0.24138  0.15634  1.0000
  C   C1522     1.0  0.50544  0.31870  0.09644  1.0000
  C   C1523     1.0  0.70657  0.16321  0.16361  1.0000
  C   C1524     1.0  0.65704  0.25906  0.21150  1.0000
  C   C1525     1.0  0.66886  0.25088  0.19391  1.0000
  C   C1526     1.0  0.66461  0.25825  0.17306  1.0000
  C   C1527     1.0  0.64853  0.27377  0.16974  1.0000
  H   H1216     1.0  0.66023  0.25314  0.22765  1.0000
  H   H1217     1.0  0.68124  0.23869  0.19634  1.0000
  H   H1218     1.0  0.67359  0.25163  0.15944  1.0000
  H   H1219     1.0  0.64521  0.27906  0.15347  1.0000
  H   H1220     1.0  0.66867  0.35099  0.15244  1.0000
  S   S217      1.0  0.70241  0.11656  0.26619  1.0000
  H   H1221     1.0  0.62802  0.05610  0.43575  1.0000
  H   H1222     1.0  0.64608  0.13134  0.42218  1.0000
  H   H1223     1.0  0.62113  0.32738  0.21728  1.0000
  H   H1224     1.0  0.53983  0.43702  0.14735  1.0000
  C   C1528     1.0  0.59913  0.28920  0.16442  1.0000
  C   C1529     1.0  0.55560  0.35810  0.00881  1.0000
  H   H1225     1.0  0.49478  0.46395  0.07308  1.0000
  H   H1226     1.0  0.67032  0.10345  0.40791  1.0000
  H   H1227     1.0  0.60013  0.33447  0.25119  1.0000
  C   C1530     1.0  0.50271  0.06070  0.47648  1.0000
  C   C1531     1.0  0.65219  0.34907  0.15743  1.0000
  H   H1228     1.0  0.55136  0.25169  0.02115  1.0000
  S   S218      1.0  0.50080  0.10082  0.40915  1.0000
  H   H1229     1.0  0.50955  0.31679  0.13034  1.0000
  C   C1532     1.0  0.53278  0.33572  0.07322  1.0000
  C   C1533     1.0  0.54375  0.33824  0.09117  1.0000
  C   C1534     1.0  0.53530  0.33166  0.11174  1.0000
  C   C1535     1.0  0.51224  0.45831  0.14975  1.0000
  C   C1536     1.0  0.49341  0.46516  0.14091  1.0000
  H   H1230     1.0  0.71750  0.28373  0.18549  1.0000
  C   C1537     1.0  0.50028  0.43969  0.11398  1.0000
  H   H1231     1.0  0.55880  0.34538  0.08926  1.0000
  H   H1232     1.0  0.54360  0.33428  0.12560  1.0000
  H   H1233     1.0  0.68289  0.03584  0.48591  1.0000
  H   H1234     1.0  0.58640  0.49395  0.06421  1.0000
  H   H1235     1.0  0.68070  0.02542  0.28244  1.0000
  H   H1236     1.0  0.60268  0.25753  0.17998  1.0000
  C   C1538     1.0  0.62225  0.02668  0.38530  1.0000
  H   H1237     1.0  0.65332  0.31812  0.00458  1.0000
  H   H1238     1.0  0.73735  0.20085  0.01608  1.0000
  C   C1539     1.0  0.65804  0.01452  0.40690  1.0000
  C   C1540     1.0  0.65281  0.03619  0.40230  1.0000
  C   C1541     1.0  0.63492  0.04210  0.39132  1.0000
  P   P52       1.0  0.66863  0.05648  0.41043  1.0000
  C   C1542     1.0  0.65129  0.07744  0.42111  1.0000
  C   C1543     1.0  0.68449  0.04511  0.43139  1.0000
  C   C1544     1.0  0.70469  0.03609  0.42609  1.0000
  C   C1545     1.0  0.65625  0.09884  0.41747  1.0000
  C   C1546     1.0  0.64251  0.11484  0.42561  1.0000
  C   C1547     1.0  0.62363  0.10966  0.43721  1.0000
  C   C1548     1.0  0.61854  0.08846  0.44078  1.0000
  C   C1549     1.0  0.63237  0.07240  0.43298  1.0000
  C   C1550     1.0  0.68541  0.06730  0.38802  1.0000
  C   C1551     1.0  0.68106  0.06492  0.36680  1.0000
  C   C1552     1.0  0.69377  0.07391  0.34960  1.0000
  C   C1553     1.0  0.71031  0.08619  0.35340  1.0000
  C   C1554     1.0  0.71473  0.08875  0.37448  1.0000
  C   C1555     1.0  0.70252  0.07911  0.39174  1.0000
  H   H1239     1.0  0.60823  0.03143  0.37711  1.0000
  S   S219      1.0  0.73978  0.25858  0.09830  1.0000
  C   C1556     1.0  0.62657  0.35754  0.00899  1.0000
  H   H1240     1.0  0.67175  0.00949  0.41531  1.0000
  H   H1241     1.0  0.63054  0.05870  0.38775  1.0000
  H   H1242     1.0  0.66106  0.05131  0.45767  1.0000
  C   C1557     1.0  0.71656  0.31115  0.04620  1.0000
  C   C1558     1.0  0.59940  0.30578  0.20736  1.0000
  H   H1243     1.0  0.49573  0.43192  0.10049  1.0000
  S   S220      1.0  0.70990  0.10869  0.20251  1.0000
  C   C1559     1.0  0.57719  0.29225  0.13441  1.0000
  H   H1244     1.0  0.71647  0.28216  0.06686  1.0000
  C   C1560     1.0  0.57569  0.31387  0.24599  1.0000
  Fe  Fe109     1.0  0.72337  0.22980  0.09126  1.0000
  C   C1561     1.0  0.62400  0.32633  0.17128  1.0000
  C   C1562     1.0  0.70702  0.29477  0.05918  1.0000
  H   H1245     1.0  0.58876  0.46870  0.10534  1.0000
  C   C1563     1.0  0.60965  0.34398  0.16977  1.0000
  H   H1246     1.0  0.49486  0.13906  0.43009  1.0000
  H   H1247     1.0  0.52378  0.24553  0.05104  1.0000
  H   H1248     1.0  0.62746  0.01474  0.44517  1.0000
  H   H1249     1.0  0.65691  0.31589  0.16598  1.0000
  H   H1250     1.0  0.55383  0.29247  0.23644  1.0000
  C   C1564     1.0  0.72175  0.99931  0.25770  1.0000
  C   C1565     1.0  0.64538  0.32906  0.16509  1.0000
  H   H1251     1.0  0.52182  0.48692  0.00143  1.0000
  H   H1252     1.0  0.63193  0.28064  0.22211  1.0000
  H   H1253     1.0  0.50450  0.36654  0.05514  1.0000
  C   C1566     1.0  0.68196  0.32681  0.03930  1.0000
  H   H1254     1.0  0.64779  0.03285  0.30498  1.0000
  C   C1567     1.0  0.50173  0.36404  0.03882  1.0000
  C   C1568     1.0  0.61646  0.36386  0.16165  1.0000
  H   H1255     1.0  0.67803  0.28204  0.07292  1.0000
  H   H1256     1.0  0.71958  0.09388  0.33999  1.0000
  P   P53       1.0  0.61486  0.30096  0.18253  1.0000
  C   C1569     1.0  0.72824  0.21568  0.01376  1.0000
  C   C1570     1.0  0.49971  0.34352  0.03269  1.0000
  H   H1257     1.0  0.52866  0.41992  0.11616  1.0000
  H   H1258     1.0  0.55775  0.00600  0.48831  1.0000
  C   C1571     1.0  0.71049  0.14204  0.17162  1.0000
  C   C1572     1.0  0.66177  0.02665  0.31248  1.0000
  C   C1573     1.0  0.71910  0.24980  0.23052  1.0000
  H   H1259     1.0  0.58983  0.08107  0.48289  1.0000
  C   C1574     1.0  0.50456  0.03853  0.36216  1.0000
  H   H1260     1.0  0.57054  0.30188  0.12133  1.0000
  H   H1261     1.0  0.60523  0.37732  0.16003  1.0000
  C   C1575     1.0  0.58035  0.29596  0.21296  1.0000
  C   C1576     1.0  0.58465  0.33152  0.00637  1.0000
  C   C1577     1.0  0.59170  0.47552  0.01429  1.0000
  H   H1262     1.0  0.51351  0.37516  0.11624  1.0000
  C   C1578     1.0  0.64102  0.27474  0.20826  1.0000
  C   C1579     1.0  0.68035  0.02249  0.29975  1.0000
  H   H1263     1.0  0.72027  0.20861  0.20196  1.0000
  C   C1580     1.0  0.72005  0.18830  0.26428  1.0000
  C   C1581     1.0  0.70925  0.02736  0.46384  1.0000
  H   H1264     1.0  0.71042  0.16788  0.14682  1.0000
  C   C1582     1.0  0.73723  0.20679  0.20194  1.0000
  H   H1265     1.0  0.64730  0.02826  0.34456  1.0000
  H   H1266     1.0  0.67947  0.01572  0.36184  1.0000
  C   C1583     1.0  0.66156  0.02405  0.33484  1.0000
  H   H1267     1.0  0.65575  0.31089  0.05614  1.0000
  H   H1268     1.0  0.59226  0.31828  0.14509  1.0000
  C   C1584     1.0  0.51340  0.32611  0.07573  1.0000
  H   H1269     1.0  0.55632  0.28816  0.00449  1.0000
  C   C1585     1.0  0.56856  0.30002  0.23222  1.0000
  C   C1586     1.0  0.60648  0.31964  0.22131  1.0000
  C   C1587     1.0  0.58973  0.30155  0.14790  1.0000
  C   C1588     1.0  0.70388  0.32688  0.03575  1.0000
  Fe  Fe110     1.0  0.73443  0.10708  0.27771  1.0000
  C   C1589     1.0  0.70487  0.26109  0.24431  1.0000
  H   H1270     1.0  0.73519  0.25033  0.19846  1.0000
  H   H1271     1.0  0.71120  0.15906  0.28168  1.0000
  H   H1272     1.0  0.73284  0.02098  0.43819  1.0000
  H   H1273     1.0  0.69642  0.26902  0.00519  1.0000
  H   H1274     1.0  0.52014  0.01409  0.48594  1.0000
  H   H1275     1.0  0.70145  0.25505  0.26084  1.0000
  C   C1590     1.0  0.52579  0.26141  0.04361  1.0000
  H   H1276     1.0  0.51376  0.04955  0.46876  1.0000
  C   C1591     1.0  0.63600  0.37554  0.01439  1.0000
  C   C1592     1.0  0.58801  0.47542  0.03664  1.0000
  C   C1593     1.0  0.51617  0.32184  0.11437  1.0000
  H   H1277     1.0  0.73119  0.21740  0.28844  1.0000
  H   H1278     1.0  0.71102  0.01282  0.25452  1.0000
  H   H1279     1.0  0.54681  0.37041  0.01742  1.0000
  H   H1280     1.0  0.50126  0.27562  0.06436  1.0000
  H   H1281     1.0  0.71887  0.02075  0.47641  1.0000
  C   C1594     1.0  0.54136  0.26488  0.02680  1.0000
  P   P54       1.0  0.50026  0.32114  0.05232  1.0000
  H   H1282     1.0  0.73639  0.05898  0.19260  1.0000
  C   C1595     1.0  0.74067  0.02194  0.33861  1.0000
  C   C1596     1.0  0.50771  0.47974  0.99775  1.0000
  C   C1597     1.0  0.50200  0.13970  0.46299  1.0000
  C   C1598     1.0  0.51548  0.29902  0.04143  1.0000
  C   C1599     1.0  0.64253  0.49124  0.14885  1.0000
  H   H1283     1.0  0.73607  0.18620  0.26867  1.0000
  H   H1284     1.0  0.51693  0.46552  0.16361  1.0000
  Fe  Fe111     1.0  0.73237  0.06079  0.26535  1.0000
  C   C1600     1.0  0.50000  0.38154  0.02392  1.0000
  C   C1601     1.0  0.62504  0.47849  0.18285  1.0000
  C   C1602     1.0  0.63228  0.47525  0.16161  1.0000
  H   H1285     1.0  0.73369  0.35428  0.05376  1.0000
  C   C1603     1.0  0.59819  0.01216  0.49318  1.0000
  H   H1286     1.0  0.51880  0.13718  0.45924  1.0000
  H   H1287     1.0  0.52211  0.01386  0.37922  1.0000
  H   H1288     1.0  0.74073  0.19414  0.17085  1.0000
  C   C1604     1.0  0.69859  0.01518  0.30935  1.0000
  C   C1605     1.0  0.61978  0.00789  0.45996  1.0000
  H   H1289     1.0  0.71294  0.01227  0.29928  1.0000
  H   H1290     1.0  0.73484  0.15380  0.22814  1.0000
  H   H1291     1.0  0.72743  0.09850  0.37737  1.0000
  C   C1606     1.0  0.49380  0.14147  0.48423  1.0000
  C   C1607     1.0  0.49314  0.00254  0.37017  1.0000
  H   H1292     1.0  0.49267  0.05747  0.40134  1.0000
  C   C1608     1.0  0.64631  0.30598  0.99676  1.0000
  H   H1293     1.0  0.49273  0.32508  0.00672  1.0000
  C   C1609     1.0  0.49337  0.35828  0.99665  1.0000
  H   H1294     1.0  0.49330  0.45029  0.03752  1.0000
  C   C1610     1.0  0.73361  0.99492  0.38557  1.0000
  C   C1611     1.0  0.59695  0.49421  0.00200  1.0000
  C   C1612     1.0  0.58920  0.49410  0.04687  1.0000
  Fe  Fe112     1.0  0.53346  0.38568  0.89870  1.0000
  S   S221      1.0  0.56658  0.37890  0.88444  1.0000
  S   S222      1.0  0.50501  0.38392  0.87990  1.0000
  Fe  Fe113     1.0  0.54804  0.39816  0.94038  1.0000
  S   S223      1.0  0.58208  0.39201  0.92987  1.0000
  S   S224      1.0  0.53562  0.40979  0.97235  1.0000
  Fe  Fe114     1.0  0.57365  0.40907  0.89888  1.0000
  S   S225      1.0  0.59562  0.43303  0.88230  1.0000
  Fe  Fe115     1.0  0.57219  0.36246  0.91679  1.0000
  S   S226      1.0  0.58970  0.33133  0.92691  1.0000
  S   S227      1.0  0.54028  0.41713  0.91015  1.0000
  S   S228      1.0  0.53844  0.36729  0.93004  1.0000
  Fe  Fe116     1.0  0.57039  0.04532  0.63094  1.0000
  S   S229      1.0  0.60056  0.06120  0.62120  1.0000
  S   S230      1.0  0.57188  0.01223  0.64674  1.0000
  Fe  Fe117     1.0  0.54295  0.08539  0.62240  1.0000
  S   S231      1.0  0.57105  0.10478  0.61268  1.0000
  S   S232      1.0  0.51015  0.10112  0.62278  1.0000
  Fe  Fe118     1.0  0.58279  0.07685  0.59402  1.0000
  S   S233      1.0  0.59774  0.08230  0.55998  1.0000
  Fe  Fe119     1.0  0.58630  0.08747  0.64072  1.0000
  S   S234      1.0  0.60034  0.10266  0.66777  1.0000
  S   S235      1.0  0.55380  0.05854  0.60222  1.0000
  S   S236      1.0  0.55700  0.07055  0.65192  1.0000
  Fe  Fe120     1.0  0.71222  0.24553  0.92778  1.0000
  S   S237      1.0  0.68631  0.23101  0.91236  1.0000
  C   C1613     1.0  0.50375  0.01484  0.56803  1.0000
  S   S238      1.0  0.71135  0.24285  0.86554  1.0000
  Fe  Fe121     1.0  0.68780  0.25923  0.88828  1.0000
  S   S239      1.0  0.66136  0.27914  0.87323  1.0000
  Fe  Fe122     1.0  0.71229  0.21594  0.89072  1.0000
  S   S240      1.0  0.71519  0.18142  0.88168  1.0000
  S   S241      1.0  0.71218  0.27457  0.90433  1.0000
  Fe  Fe123     1.0  0.72153  0.06926  0.77040  1.0000
  Fe  Fe124     1.0  0.70813  0.11642  0.77627  1.0000
  C   C1614     1.0  0.67087  0.02820  0.63358  1.0000
  S   S242      1.0  0.69267  0.14382  0.79500  1.0000
  Fe  Fe125     1.0  0.70548  0.09736  0.73262  1.0000
  S   S243      1.0  0.69221  0.09363  0.70043  1.0000
  S   S244      1.0  0.69127  0.08885  0.76600  1.0000
  C   C1615     1.0  0.49792  0.42554  0.84001  1.0000
  H   H1295     1.0  0.61466  0.01417  0.59032  1.0000
  H   H1296     1.0  0.53101  0.07553  0.69953  1.0000
  C   C1616     1.0  0.70957  0.17159  0.85702  1.0000
  C   C1617     1.0  0.70099  0.18465  0.84053  1.0000
  C   C1618     1.0  0.69632  0.17598  0.82149  1.0000
  C   C1619     1.0  0.70071  0.15431  0.81839  1.0000
  C   C1620     1.0  0.70953  0.14132  0.83475  1.0000
  C   C1621     1.0  0.71371  0.14989  0.85401  1.0000
  H   H1297     1.0  0.69757  0.20134  0.84264  1.0000
  H   H1298     1.0  0.52776  0.09611  0.50717  1.0000
  H   H1299     1.0  0.71272  0.12458  0.83277  1.0000
  C   C1622     1.0  0.52881  0.10189  0.52283  1.0000
  C   C1623     1.0  0.62540  0.09738  0.67784  1.0000
  C   C1624     1.0  0.64222  0.08776  0.66577  1.0000
  C   C1625     1.0  0.66243  0.08604  0.67335  1.0000
  C   C1626     1.0  0.66600  0.09370  0.69314  1.0000
  C   C1627     1.0  0.64899  0.10240  0.70569  1.0000
  C   C1628     1.0  0.62885  0.10444  0.69794  1.0000
  H   H1300     1.0  0.63985  0.08251  0.65018  1.0000
  H   H1301     1.0  0.67551  0.07934  0.66352  1.0000
  H   H1302     1.0  0.65147  0.10826  0.72098  1.0000
  H   H1303     1.0  0.61593  0.11194  0.70738  1.0000
  C   C1629     1.0  0.58553  0.07452  0.53773  1.0000
  C   C1630     1.0  0.59311  0.08162  0.51683  1.0000
  H   H1304     1.0  0.65165  0.43264  0.97961  1.0000
  C   C1631     1.0  0.55992  0.05453  0.52238  1.0000
  C   C1632     1.0  0.56871  0.06115  0.54041  1.0000
  H   H1305     1.0  0.50371  0.10240  0.57317  1.0000
  H   H1306     1.0  0.56271  0.05563  0.55634  1.0000
  H   H1307     1.0  0.49444  0.36257  0.92185  1.0000
  H   H1308     1.0  0.60609  0.09202  0.51461  1.0000
  C   C1633     1.0  0.65090  0.27667  0.97382  1.0000
  H   H1309     1.0  0.67213  0.21110  0.97344  1.0000
  H   H1310     1.0  0.50748  0.05844  0.60944  1.0000
  C   C1634     1.0  0.61053  0.31830  0.91171  1.0000
  C   C1635     1.0  0.61292  0.32100  0.88928  1.0000
  C   C1636     1.0  0.62856  0.30885  0.87775  1.0000
  C   C1637     1.0  0.64242  0.29454  0.88851  1.0000
  C   C1638     1.0  0.64044  0.29230  0.91098  1.0000
  C   C1639     1.0  0.62434  0.30389  0.92247  1.0000
  H   H1311     1.0  0.60229  0.33192  0.88080  1.0000
  H   H1312     1.0  0.62978  0.31037  0.86039  1.0000
  H   H1313     1.0  0.65100  0.28131  0.91945  1.0000
  H   H1314     1.0  0.62259  0.30178  0.93980  1.0000
  C   C1640     1.0  0.71457  0.00210  0.69291  1.0000
  H   H1315     1.0  0.67624  0.25090  0.79661  1.0000
  H   H1316     1.0  0.64220  0.03458  0.61800  1.0000
  C   C1641     1.0  0.64395  0.00287  0.63326  1.0000
  H   H1317     1.0  0.58013  0.41663  0.96304  1.0000
  C   C1642     1.0  0.59336  0.46090  0.88416  1.0000
  C   C1643     1.0  0.60769  0.47294  0.87101  1.0000
  C   C1644     1.0  0.49540  0.05619  0.54988  1.0000
  C   C1645     1.0  0.57843  0.47129  0.89814  1.0000
  H   H1318     1.0  0.61927  0.46514  0.86023  1.0000
  H   H1319     1.0  0.56734  0.46212  0.90848  1.0000
  H   H1320     1.0  0.73718  0.31886  0.84813  1.0000
  H   H1321     1.0  0.73820  0.02451  0.68267  1.0000
  C   C1646     1.0  0.61632  0.28646  0.99019  1.0000
  H   H1322     1.0  0.50822  0.00359  0.61787  1.0000
  H   H1323     1.0  0.72259  0.18851  0.64139  1.0000
  H   H1324     1.0  0.58024  0.02765  0.57861  1.0000
  H   H1325     1.0  0.53518  0.12097  0.57927  1.0000
  H   H1326     1.0  0.58486  0.03840  0.71516  1.0000
  C   C1647     1.0  0.67974  0.17392  0.92663  1.0000
  H   H1327     1.0  0.66933  0.20638  0.68455  1.0000
  H   H1328     1.0  0.52085  0.04357  0.72280  1.0000
  C   C1648     1.0  0.60535  0.04229  0.68624  1.0000
  C   C1649     1.0  0.62581  0.03938  0.67685  1.0000
  C   C1650     1.0  0.64175  0.03018  0.68905  1.0000
  C   C1651     1.0  0.63722  0.02375  0.71083  1.0000
  C   C1652     1.0  0.61654  0.02657  0.72014  1.0000
  P   P55       1.0  0.65764  0.01252  0.72722  1.0000
  C   C1653     1.0  0.68321  0.01611  0.71303  1.0000
  C   C1654     1.0  0.65655  0.02764  0.75074  1.0000
  C   C1655     1.0  0.64813  0.04872  0.74982  1.0000
  C   C1656     1.0  0.64734  0.06058  0.76781  1.0000
  C   C1657     1.0  0.65550  0.05177  0.78669  1.0000
  C   C1658     1.0  0.73265  0.26118  0.81010  1.0000
  H   H1329     1.0  0.55879  0.11517  0.51350  1.0000
  C   C1659     1.0  0.69149  0.03629  0.71063  1.0000
  C   C1660     1.0  0.71120  0.03927  0.69962  1.0000
  C   C1661     1.0  0.72277  0.02219  0.69083  1.0000
  H   H1330     1.0  0.58966  0.02254  0.50422  1.0000
  H   H1331     1.0  0.63174  0.46425  0.99268  1.0000
  H   H1332     1.0  0.64589  0.42031  0.94389  1.0000
  C   C1662     1.0  0.72975  0.24607  0.79551  1.0000
  C   C1663     1.0  0.54371  0.48263  0.95260  1.0000
  H   H1333     1.0  0.66111  0.26653  0.96375  1.0000
  C   C1664     1.0  0.69580  0.14062  0.64890  1.0000
  H   H1334     1.0  0.59317  0.04979  0.67676  1.0000
  H   H1335     1.0  0.62933  0.04474  0.66018  1.0000
  H   H1336     1.0  0.65756  0.02853  0.68155  1.0000
  C   C1665     1.0  0.55019  0.35374  0.98857  1.0000
  H   H1337     1.0  0.64255  0.05629  0.73511  1.0000
  H   H1338     1.0  0.64106  0.07686  0.76687  1.0000
  H   H1339     1.0  0.65562  0.06120  0.80039  1.0000
  C   C1666     1.0  0.55570  0.41393  0.98877  1.0000
  C   C1667     1.0  0.69239  0.23452  0.64132  1.0000
  H   H1340     1.0  0.68284  0.04977  0.71736  1.0000
  H   H1341     1.0  0.71760  0.05485  0.69814  1.0000
  H   H1342     1.0  0.52276  0.47140  0.85855  1.0000
  S   S245      1.0  0.73515  0.07703  0.73673  1.0000
  H   H1343     1.0  0.51137  0.08701  0.66787  1.0000
  H   H1344     1.0  0.70664  0.23177  0.77857  1.0000
  H   H1345     1.0  0.66182  0.13982  0.83935  1.0000
  C   C1668     1.0  0.65694  0.19627  0.94938  1.0000
  H   H1346     1.0  0.71784  0.28373  0.83127  1.0000
  C   C1669     1.0  0.71255  0.24292  0.98937  1.0000
  C   C1670     1.0  0.65964  0.18290  0.93233  1.0000
  H   H1347     1.0  0.58746  0.11617  0.96657  1.0000
  H   H1348     1.0  0.67159  0.02456  0.80190  1.0000
  H   H1349     1.0  0.56307  0.12704  0.54960  1.0000
  C   C1671     1.0  0.58395  0.07543  0.49880  1.0000
  C   C1672     1.0  0.58868  0.01482  0.57061  1.0000
  C   C1673     1.0  0.67134  0.16979  0.75000  1.0000
  S   S246      1.0  0.71982  0.12651  0.74213  1.0000
  H   H1350     1.0  0.69801  0.01722  0.65020  1.0000
  C   C1674     1.0  0.60070  0.03589  0.70788  1.0000
  C   C1675     1.0  0.64064  0.44136  0.96956  1.0000
  H   H1351     1.0  0.58083  0.12708  0.92872  1.0000
  C   C1676     1.0  0.71052  0.20007  0.64680  1.0000
  H   H1352     1.0  0.63484  0.14180  0.65661  1.0000
  C   C1677     1.0  0.51069  0.99472  0.51463  1.0000
  S   S247      1.0  0.71989  0.03520  0.78658  1.0000
  C   C1678     1.0  0.69683  0.17818  0.93781  1.0000
  C   C1679     1.0  0.69491  0.99905  0.70398  1.0000
  C   C1680     1.0  0.61189  0.46368  0.94392  1.0000
  C   C1681     1.0  0.62309  0.44564  0.93664  1.0000
  C   C1682     1.0  0.49915  0.44127  0.93776  1.0000
  C   C1683     1.0  0.51806  0.06648  0.69582  1.0000
  C   C1684     1.0  0.69400  0.19136  0.95480  1.0000
  C   C1685     1.0  0.70933  0.24277  0.79026  1.0000
  H   H1353     1.0  0.68165  0.27684  0.82313  1.0000
  C   C1686     1.0  0.69702  0.19535  0.66524  1.0000
  H   H1354     1.0  0.49495  0.39219  0.99118  1.0000
  H   H1355     1.0  0.62875  0.99915  0.62848  1.0000
  H   H1356     1.0  0.60135  0.47253  0.93350  1.0000
  H   H1357     1.0  0.62065  0.44044  0.92096  1.0000
  C   C1687     1.0  0.72681  0.00705  0.75385  1.0000
  C   C1688     1.0  0.73271  0.19718  0.77222  1.0000
  C   C1689     1.0  0.57930  0.32750  0.98585  1.0000
  C   C1690     1.0  0.67408  0.20045  0.96058  1.0000
  C   C1691     1.0  0.69504  0.26858  0.81504  1.0000
  C   C1692     1.0  0.61211  0.38669  0.85066  1.0000
  C   C1693     1.0  0.61073  0.37061  0.83690  1.0000
  C   C1694     1.0  0.62623  0.35414  0.83598  1.0000
  C   C1695     1.0  0.64312  0.35373  0.84883  1.0000
  C   C1696     1.0  0.64456  0.36976  0.86286  1.0000
  C   C1697     1.0  0.62879  0.38618  0.86375  1.0000
  P   P56       1.0  0.66608  0.36936  0.87993  1.0000
  C   C1698     1.0  0.68848  0.35367  0.86895  1.0000
  C   C1699     1.0  0.67275  0.39652  0.88157  1.0000
  C   C1700     1.0  0.67716  0.40379  0.90125  1.0000
  C   C1701     1.0  0.68080  0.42520  0.90268  1.0000
  C   C1702     1.0  0.68013  0.43946  0.88451  1.0000
  C   C1703     1.0  0.67612  0.43226  0.86481  1.0000
  C   C1704     1.0  0.67255  0.41086  0.86329  1.0000
  C   C1705     1.0  0.68798  0.33144  0.87023  1.0000
  C   C1706     1.0  0.70540  0.31902  0.86260  1.0000
  C   C1707     1.0  0.52533  0.00374  0.49926  1.0000
  C   C1708     1.0  0.72419  0.35075  0.85214  1.0000
  C   C1709     1.0  0.70672  0.36327  0.85973  1.0000
  C   C1710     1.0  0.65765  0.35850  0.90665  1.0000
  C   C1711     1.0  0.63791  0.36484  0.91638  1.0000
  C   C1712     1.0  0.63169  0.35717  0.93736  1.0000
  C   C1713     1.0  0.64486  0.34282  0.94860  1.0000
  C   C1714     1.0  0.66464  0.33663  0.93922  1.0000
  C   C1715     1.0  0.67118  0.34470  0.91846  1.0000
  H   H1358     1.0  0.60010  0.39951  0.85142  1.0000
  H   H1359     1.0  0.59755  0.37087  0.82709  1.0000
  H   H1360     1.0  0.62507  0.34154  0.82547  1.0000
  H   H1361     1.0  0.65478  0.34074  0.84781  1.0000
  H   H1362     1.0  0.62929  0.39871  0.87450  1.0000
  H   H1363     1.0  0.67751  0.39306  0.91555  1.0000
  H   H1364     1.0  0.68389  0.43083  0.91795  1.0000
  H   H1365     1.0  0.68259  0.45611  0.88571  1.0000
  H   H1366     1.0  0.67542  0.44335  0.85076  1.0000
  H   H1367     1.0  0.66915  0.40560  0.84796  1.0000
  H   H1368     1.0  0.67418  0.32364  0.87742  1.0000
  H   H1369     1.0  0.70485  0.30187  0.86388  1.0000
  H   H1370     1.0  0.61593  0.13206  0.98346  1.0000
  H   H1371     1.0  0.66585  0.24101  0.66390  1.0000
  H   H1372     1.0  0.70765  0.38033  0.85855  1.0000
  H   H1373     1.0  0.62718  0.37554  0.90781  1.0000
  H   H1374     1.0  0.61622  0.36166  0.94459  1.0000
  H   H1375     1.0  0.63950  0.33620  0.96438  1.0000
  H   H1376     1.0  0.67483  0.32536  0.94788  1.0000
  H   H1377     1.0  0.68676  0.33999  0.91177  1.0000
  H   H1378     1.0  0.66645  0.11957  0.87423  1.0000
  H   H1379     1.0  0.64165  0.20362  0.95390  1.0000
  H   H1380     1.0  0.72025  0.13961  0.86665  1.0000
  S   S248      1.0  0.73732  0.09641  0.78341  1.0000
  C   C1716     1.0  0.53328  0.11598  0.56339  1.0000
  C   C1717     1.0  0.50319  0.06321  0.49838  1.0000
  C   C1718     1.0  0.59691  0.12797  0.95746  1.0000
  C   C1719     1.0  0.69202  0.25382  0.80023  1.0000
  C   C1720     1.0  0.50706  0.07292  0.67791  1.0000
  H   H1381     1.0  0.50489  0.43216  0.87160  1.0000
  C   C1721     1.0  0.69036  0.18726  0.71907  1.0000
  H   H1382     1.0  0.67615  0.29491  0.98150  1.0000
  H   H1383     1.0  0.67227  0.00331  0.77096  1.0000
  H   H1384     1.0  0.68255  0.16406  0.91324  1.0000
  H   H1385     1.0  0.54732  0.04369  0.52466  1.0000
  C   C1722     1.0  0.51322  0.05133  0.56137  1.0000
  H   H1386     1.0  0.58873  0.31669  0.97600  1.0000
  H   H1387     1.0  0.70732  0.19490  0.96320  1.0000
  C   C1723     1.0  0.51237  0.04844  0.70885  1.0000
  H   H1388     1.0  0.71883  0.22325  0.62084  1.0000
  C   C1724     1.0  0.51740  0.03074  0.57025  1.0000
  C   C1725     1.0  0.68456  0.12883  0.63622  1.0000
  C   C1726     1.0  0.65936  0.29282  0.98378  1.0000
  H   H1389     1.0  0.53126  0.02719  0.57889  1.0000
  H   H1390     1.0  0.51099  0.44296  0.94873  1.0000
  H   H1391     1.0  0.73840  0.48250  0.58041  1.0000
  H   H1392     1.0  0.61801  0.99669  0.66952  1.0000
  H   H1393     1.0  0.63768  0.15860  0.96289  1.0000
  H   H1394     1.0  0.66176  0.13840  0.74594  1.0000
  H   H1395     1.0  0.53552  0.46885  0.94954  1.0000
  C   C1727     1.0  0.66486  0.01903  0.76977  1.0000
  C   C1728     1.0  0.62524  0.15208  0.95521  1.0000
  C   C1729     1.0  0.61294  0.13694  0.96697  1.0000
  C   C1730     1.0  0.51322  0.09800  0.53968  1.0000
  H   H1396     1.0  0.62247  0.35672  0.99267  1.0000
  C   C1731     1.0  0.66927  0.15226  0.73825  1.0000
  H   H1397     1.0  0.57027  0.46396  0.96359  1.0000
  H   H1398     1.0  0.55314  0.01308  0.60620  1.0000
  Fe  Fe126     1.0  0.73586  0.25653  0.88303  1.0000
  C   C1732     1.0  0.66439  0.03108  0.78760  1.0000
  H   H1399     1.0  0.65386  0.12017  0.62923  1.0000
  H   H1400     1.0  0.69285  0.11910  0.62442  1.0000
  S   S249      1.0  0.70711  0.25412  0.96316  1.0000
  P   P57       1.0  0.69927  0.16962  0.67967  1.0000
  C   C1733     1.0  0.74119  0.17991  0.73914  1.0000
  H   H1401     1.0  0.66526  0.16953  0.76672  1.0000
  C   C1734     1.0  0.51544  0.10542  0.55988  1.0000
  H   H1402     1.0  0.65441  0.16313  0.67871  1.0000
  C   C1735     1.0  0.56360  0.47992  0.96036  1.0000
  C   C1736     1.0  0.59039  0.22487  0.92061  1.0000
  C   C1737     1.0  0.60015  0.24213  0.90947  1.0000
  C   C1738     1.0  0.62090  0.23965  0.90074  1.0000
  C   C1739     1.0  0.63199  0.22006  0.90325  1.0000
  C   C1740     1.0  0.62229  0.20258  0.91423  1.0000
  C   C1741     1.0  0.60140  0.20515  0.92304  1.0000
  P   P58       1.0  0.63733  0.17767  0.91805  1.0000
  H   H1403     1.0  0.61278  0.02186  0.73698  1.0000
  C   C1742     1.0  0.62153  0.15839  0.93380  1.0000
  C   C1743     1.0  0.54890  0.11949  0.54667  1.0000
  H   H1404     1.0  0.69060  0.24964  0.63209  1.0000
  H   H1405     1.0  0.55788  0.33524  0.96134  1.0000
  C   C1744     1.0  0.59317  0.13412  0.93614  1.0000
  C   C1745     1.0  0.60545  0.14925  0.92433  1.0000
  C   C1746     1.0  0.72623  0.16005  0.68172  1.0000
  C   C1747     1.0  0.67751  0.15230  0.71683  1.0000
  C   C1748     1.0  0.68065  0.21009  0.67110  1.0000
  H   H1406     1.0  0.64812  0.21852  0.89645  1.0000
  C   C1749     1.0  0.61441  0.47028  0.96439  1.0000
  C   C1750     1.0  0.64535  0.16614  0.89286  1.0000
  C   C1751     1.0  0.64279  0.17748  0.87297  1.0000
  C   C1752     1.0  0.64869  0.16796  0.85378  1.0000
  C   C1753     1.0  0.65703  0.14706  0.85426  1.0000
  C   C1754     1.0  0.65960  0.13564  0.87394  1.0000
  C   C1755     1.0  0.65368  0.14507  0.89316  1.0000
  H   H1407     1.0  0.57429  0.22683  0.92740  1.0000
  H   H1408     1.0  0.59173  0.25747  0.90759  1.0000
  H   H1409     1.0  0.62845  0.25296  0.89199  1.0000
  H   H1410     1.0  0.71277  0.14014  0.64642  1.0000
  H   H1411     1.0  0.59357  0.19213  0.93194  1.0000
  H   H1412     1.0  0.56507  0.01227  0.54877  1.0000
  H   H1413     1.0  0.62295  0.26074  0.96951  1.0000
  H   H1414     1.0  0.68408  0.20051  0.74982  1.0000
  C   C1756     1.0  0.70833  0.21968  0.63502  1.0000
  H   H1415     1.0  0.60245  0.15381  0.90778  1.0000
  C   C1757     1.0  0.50889  0.45825  0.99398  1.0000
  C   C1758     1.0  0.66303  0.15356  0.66697  1.0000
  C   C1759     1.0  0.68511  0.15293  0.66450  1.0000
  H   H1416     1.0  0.69915  0.20057  0.71212  1.0000
  H   H1417     1.0  0.67654  0.04391  0.62926  1.0000
  H   H1418     1.0  0.63629  0.19361  0.87201  1.0000
  H   H1419     1.0  0.64711  0.17687  0.83846  1.0000
  C   C1760     1.0  0.65150  0.02296  0.62730  1.0000
  H   H1420     1.0  0.50797  0.41112  0.84002  1.0000
  H   H1421     1.0  0.65583  0.13599  0.90828  1.0000
  C   C1761     1.0  0.50154  0.48939  0.88017  1.0000
  C   C1762     1.0  0.54650  0.11273  0.52634  1.0000
  H   H1422     1.0  0.73058  0.02072  0.74303  1.0000
  C   C1763     1.0  0.63740  0.43441  0.94949  1.0000
  H   H1423     1.0  0.67635  0.13830  0.70819  1.0000
  C   C1764     1.0  0.68763  0.17004  0.70692  1.0000
  H   H1424     1.0  0.52416  0.06324  0.56342  1.0000
  H   H1425     1.0  0.53726  0.36271  0.98144  1.0000
  C   C1765     1.0  0.65186  0.14174  0.65429  1.0000
  H   H1426     1.0  0.51471  0.05388  0.50731  1.0000
  C   C1766     1.0  0.68194  0.18725  0.74044  1.0000
  H   H1427     1.0  0.68909  0.18610  0.80917  1.0000
  C   C1767     1.0  0.73083  0.13836  0.68654  1.0000
  C   C1768     1.0  0.71538  0.27247  0.81968  1.0000
  H   H1428     1.0  0.71842  0.12730  0.68848  1.0000
  C   C1769     1.0  0.67849  0.22968  0.65929  1.0000
  C   C1770     1.0  0.72356  0.32863  0.85367  1.0000
  H   H1429     1.0  0.59980  0.28335  0.99303  1.0000
  C   C1771     1.0  0.72952  0.18108  0.75896  1.0000
  C   C1772     1.0  0.60826  0.00730  0.57713  1.0000
  C   C1773     1.0  0.66261  0.12947  0.63886  1.0000
  C   C1774     1.0  0.72097  0.00975  0.77557  1.0000
  H   H1430     1.0  0.50137  0.02205  0.65108  1.0000
  C   C1775     1.0  0.58016  0.00602  0.55370  1.0000
  H   H1431     1.0  0.71845  0.16906  0.76438  1.0000
  C   C1776     1.0  0.57642  0.41607  0.98012  1.0000
  H   H1432     1.0  0.71240  0.17167  0.93286  1.0000
  H   H1433     1.0  0.73832  0.35816  0.84523  1.0000
  C   C1777     1.0  0.56189  0.33833  0.97722  1.0000
  C   C1778     1.0  0.68292  0.01317  0.64544  1.0000
  C   C1779     1.0  0.62914  0.45920  0.97704  1.0000
  C   C1780     1.0  0.72414  0.22366  0.99271  1.0000
  C   C1781     1.0  0.49678  0.45624  0.92040  1.0000
  H   H1434     1.0  0.50710  0.99894  0.57501  1.0000
  C   C1782     1.0  0.52050  0.48523  0.86777  1.0000
  H   H1435     1.0  0.58577  0.99649  0.69368  1.0000
  C   C1783     1.0  0.54684  0.99942  0.50089  1.0000
  C   C1784     1.0  0.59249  0.41791  0.99361  1.0000
  C   C1785     1.0  0.62941  0.27341  0.97712  1.0000
  C   C1786     1.0  0.56747  0.06166  0.50149  1.0000
  C   C1787     1.0  0.55567  0.99680  0.61216  1.0000
  H   H1436     1.0  0.73931  0.19111  0.67763  1.0000
  H   H1437     1.0  0.73039  0.21514  0.97909  1.0000
  H   H1438     1.0  0.72431  0.19721  0.78801  1.0000
  C   C1788     1.0  0.49565  0.03683  0.70398  1.0000
  S   S250      1.0  0.73836  0.22868  0.90765  1.0000
  H   H1439     1.0  0.60852  0.41877  0.98691  1.0000
  C   C1789     1.0  0.49607  0.43751  0.85798  1.0000
  H   H1440     1.0  0.49404  0.99811  0.51326  1.0000
  H   H1441     1.0  0.50675  0.46958  0.91856  1.0000
  C   C1790     1.0  0.57811  0.49370  0.89880  1.0000
  H   H1442     1.0  0.73921  0.16703  0.72920  1.0000
  H   H1443     1.0  0.74184  0.21974  0.82916  1.0000
  H   H1444     1.0  0.50428  0.14030  0.49702  1.0000
  C   C1791     1.0  0.74253  0.17419  0.68031  1.0000
  H   H1445     1.0  0.52371  0.44912  0.99484  1.0000
  P   P59       1.0  0.60069  0.49428  0.97308  1.0000
  Fe  Fe127     1.0  0.59728  0.60793  0.10772  1.0000
  S   S251      1.0  0.58377  0.60946  0.07574  1.0000
  S   S252      1.0  0.61015  0.63854  0.11725  1.0000
  Fe  Fe128     1.0  0.58417  0.56199  0.11801  1.0000
  S   S253      1.0  0.57013  0.56020  0.08678  1.0000
  S   S254      1.0  0.58254  0.53496  0.14389  1.0000
  Fe  Fe129     1.0  0.59867  0.57694  0.07289  1.0000
  S   S255      1.0  0.61535  0.56873  0.04141  1.0000
  Fe  Fe130     1.0  0.55609  0.59287  0.09243  1.0000
  S   S256      1.0  0.52444  0.60313  0.08010  1.0000
  S   S257      1.0  0.61426  0.57621  0.10370  1.0000
  S   S258      1.0  0.56816  0.59381  0.12495  1.0000
  Fe  Fe131     1.0  0.54425  0.88483  0.41879  1.0000
  S   S259      1.0  0.55854  0.85185  0.42540  1.0000
  S   S260      1.0  0.51449  0.89614  0.40327  1.0000
  Fe  Fe132     1.0  0.57944  0.90546  0.43759  1.0000
  S   S261      1.0  0.59650  0.87447  0.44618  1.0000
  S   S262      1.0  0.58991  0.93613  0.44791  1.0000
  Fe  Fe133     1.0  0.58955  0.86586  0.41333  1.0000
  S   S263      1.0  0.61660  0.84776  0.39527  1.0000
  Fe  Fe134     1.0  0.56470  0.86314  0.45742  1.0000
  C   C1792     1.0  0.57802  0.97760  0.43763  1.0000
  S   S264      1.0  0.57468  0.89790  0.40399  1.0000
  S   S265      1.0  0.54809  0.89493  0.45160  1.0000
  Fe  Fe135     1.0  0.72535  0.73913  0.09785  1.0000
  S   S266      1.0  0.69651  0.72904  0.11857  1.0000
  C   C1793     1.0  0.70052  0.87435  0.36988  1.0000
  S   S267      1.0  0.72829  0.70947  0.15477  1.0000
  Fe  Fe136     1.0  0.71545  0.69855  0.12515  1.0000
  S   S268      1.0  0.70462  0.66540  0.12063  1.0000
  Fe  Fe137     1.0  0.71181  0.74117  0.14625  1.0000
  S   S269      1.0  0.69483  0.75884  0.17386  1.0000
  Fe  Fe138     1.0  0.69386  0.86609  0.28554  1.0000
  S   S270      1.0  0.69752  0.88346  0.25281  1.0000
  S   S271      1.0  0.66037  0.87019  0.30126  1.0000
  C   C1794     1.0  0.69805  0.65158  0.00580  1.0000
  H   H1446     1.0  0.66774  0.83315  0.25839  1.0000
  C   C1795     1.0  0.66561  0.94118  0.31909  1.0000
  C   C1796     1.0  0.57338  0.78857  0.47181  1.0000
  Fe  Fe139     1.0  0.71961  0.85660  0.24249  1.0000
  S   S272      1.0  0.72383  0.84365  0.20916  1.0000
  C   C1797     1.0  0.71748  0.69602  0.35064  1.0000
  S   S273      1.0  0.71344  0.83772  0.27398  1.0000
  C   C1798     1.0  0.62813  0.49771  0.19139  1.0000
  H   H1447     1.0  0.62294  0.52137  0.11917  1.0000
  C   C1799     1.0  0.68327  0.91698  0.35323  1.0000
  H   H1448     1.0  0.69963  0.97626  0.25200  1.0000
  C   C1800     1.0  0.70406  0.78181  0.18395  1.0000
  C   C1801     1.0  0.69648  0.78750  0.20462  1.0000
  C   C1802     1.0  0.70276  0.80604  0.21285  1.0000
  C   C1803     1.0  0.71611  0.81957  0.20014  1.0000
  H   H1449     1.0  0.52110  0.83995  0.46262  1.0000
  C   C1804     1.0  0.71765  0.79523  0.17138  1.0000
  H   H1450     1.0  0.68558  0.77761  0.21429  1.0000
  H   H1451     1.0  0.69697  0.81003  0.22884  1.0000
  H   H1452     1.0  0.72121  0.66192  0.27944  1.0000
  C   C1805     1.0  0.60599  0.81648  0.46490  1.0000
  C   C1806     1.0  0.71767  0.75714  0.02107  1.0000
  C   C1807     1.0  0.72334  0.74479  0.03960  1.0000
  H   H1453     1.0  0.57791  0.97974  0.45457  1.0000
  C   C1808     1.0  0.64951  0.86482  0.32810  1.0000
  C   C1809     1.0  0.63139  0.87669  0.33552  1.0000
  C   C1810     1.0  0.62126  0.87195  0.35613  1.0000
  C   C1811     1.0  0.62893  0.85494  0.36938  1.0000
  C   C1812     1.0  0.64696  0.84302  0.36190  1.0000
  C   C1813     1.0  0.65741  0.84811  0.34153  1.0000
  H   H1454     1.0  0.62503  0.88953  0.32517  1.0000
  H   H1455     1.0  0.60733  0.88120  0.36157  1.0000
  H   H1456     1.0  0.65274  0.82962  0.37189  1.0000
  H   H1457     1.0  0.67113  0.83864  0.33593  1.0000
  C   C1814     1.0  0.58316  0.95760  0.42998  1.0000
  H   H1458     1.0  0.53598  0.98947  0.35440  1.0000
  C   C1815     1.0  0.49971  0.60066  0.09491  1.0000
  C   C1816     1.0  0.57669  0.97195  0.39397  1.0000
  C   C1817     1.0  0.58260  0.95484  0.40812  1.0000
  H   H1459     1.0  0.53828  0.94428  0.44113  1.0000
  H   H1460     1.0  0.58702  0.93964  0.40200  1.0000
  H   H1461     1.0  0.58654  0.50831  0.10651  1.0000
  H   H1462     1.0  0.66406  0.91790  0.44884  1.0000
  H   H1463     1.0  0.67748  0.86014  0.39338  1.0000
  C   C1818     1.0  0.69183  0.92452  0.21197  1.0000
  H   H1464     1.0  0.56869  0.79602  0.43827  1.0000
  H   H1465     1.0  0.62003  0.71283  0.00662  1.0000
  C   C1819     1.0  0.69674  0.83644  0.37731  1.0000
  C   C1820     1.0  0.63659  0.64602  0.11680  1.0000
  C   C1821     1.0  0.64043  0.66597  0.12366  1.0000
  C   C1822     1.0  0.66111  0.67230  0.12453  1.0000
  C   C1823     1.0  0.67828  0.65867  0.11862  1.0000
  C   C1824     1.0  0.67447  0.63884  0.11137  1.0000
  C   C1825     1.0  0.65375  0.63260  0.11032  1.0000
  H   H1466     1.0  0.62729  0.67650  0.12871  1.0000
  H   H1467     1.0  0.66378  0.68757  0.13017  1.0000
  H   H1468     1.0  0.68762  0.62819  0.10669  1.0000
  H   H1469     1.0  0.65103  0.61721  0.10504  1.0000
  H   H1470     1.0  0.64959  0.89303  0.37863  1.0000
  H   H1471     1.0  0.57631  0.96976  0.37707  1.0000
  C   C1826     1.0  0.67427  0.93745  0.35612  1.0000
  H   H1472     1.0  0.63867  0.59514  0.00827  1.0000
  H   H1473     1.0  0.51149  0.59028  0.12537  1.0000
  C   C1827     1.0  0.57637  0.57972  0.02784  1.0000
  C   C1828     1.0  0.59716  0.57309  0.02193  1.0000
  C   C1829     1.0  0.69876  0.51019  0.13326  1.0000
  H   H1474     1.0  0.57139  0.58244  0.04432  1.0000
  H   H1475     1.0  0.55725  0.53813  0.01961  1.0000
  P   P60       1.0  0.69553  0.65297  0.03472  1.0000
  H   H1476     1.0  0.53357  0.97626  0.46178  1.0000
  P   P61       1.0  0.69382  0.90150  0.37573  1.0000
  C   C1830     1.0  0.71649  0.52787  0.16660  1.0000
  H   H1477     1.0  0.51258  0.68144  0.01431  1.0000
  H   H1478     1.0  0.50938  0.93970  0.48220  1.0000
  H   H1479     1.0  0.69192  0.50270  0.12073  1.0000
  C   C1831     1.0  0.68680  0.52499  0.14544  1.0000
  C   C1832     1.0  0.69561  0.53330  0.16256  1.0000
  P   P62       1.0  0.65952  0.53098  0.14102  1.0000
  C   C1833     1.0  0.65116  0.55749  0.14799  1.0000
  C   C1834     1.0  0.65507  0.53069  0.11298  1.0000
  C   C1835     1.0  0.69830  0.97220  0.40023  1.0000
  C   C1836     1.0  0.64750  0.53143  0.06944  1.0000
  C   C1837     1.0  0.58514  0.79230  0.48897  1.0000
  H   H1480     1.0  0.73692  0.63510  0.01836  1.0000
  C   C1838     1.0  0.67059  0.53713  0.09693  1.0000
  C   C1839     1.0  0.63011  0.56225  0.15504  1.0000
  C   C1840     1.0  0.62322  0.58306  0.15901  1.0000
  C   C1841     1.0  0.63736  0.59925  0.15614  1.0000
  C   C1842     1.0  0.65839  0.59463  0.14927  1.0000
  C   C1843     1.0  0.66520  0.57393  0.14477  1.0000
  C   C1844     1.0  0.57146  0.99190  0.40163  1.0000
  C   C1845     1.0  0.49654  0.81852  0.47243  1.0000
  H   H1481     1.0  0.70045  0.69667  0.35273  1.0000
  H   H1482     1.0  0.72338  0.79127  0.15536  1.0000
  H   H1483     1.0  0.57746  0.50101  0.17534  1.0000
  C   C1846     1.0  0.49391  0.93949  0.47641  1.0000
  C   C1847     1.0  0.70056  0.98084  0.37895  1.0000
  C   C1848     1.0  0.50471  0.99327  0.41990  1.0000
  C   C1849     1.0  0.73703  0.75079  0.27207  1.0000
  C   C1850     1.0  0.50398  0.51627  0.04292  1.0000
  H   H1484     1.0  0.68633  0.54388  0.17289  1.0000
  C   C1851     1.0  0.72727  0.72774  0.99864  1.0000
  S   S274      1.0  0.72156  0.75647  0.06471  1.0000
  H   H1485     1.0  0.71776  0.81612  0.35821  1.0000
  C   C1852     1.0  0.51800  0.96185  0.36457  1.0000
  H   H1486     1.0  0.72556  0.88287  0.34578  1.0000
  H   H1487     1.0  0.61885  0.55002  0.15695  1.0000
  H   H1488     1.0  0.60679  0.58671  0.16382  1.0000
  H   H1489     1.0  0.63190  0.61548  0.15873  1.0000
  H   H1490     1.0  0.66925  0.60729  0.14689  1.0000
  H   H1491     1.0  0.68132  0.57089  0.13854  1.0000
  H   H1492     1.0  0.64088  0.52843  0.18562  1.0000
  C   C1853     1.0  0.72774  0.69678  0.32999  1.0000
  H   H1493     1.0  0.69342  0.84929  0.12384  1.0000
  H   H1494     1.0  0.71521  0.77760  0.26562  1.0000
  H   H1495     1.0  0.71474  0.93680  0.30562  1.0000
  C   C1854     1.0  0.50797  0.97545  0.40774  1.0000
  C   C1855     1.0  0.53423  0.92856  0.35269  1.0000
  H   H1496     1.0  0.57733  0.65636  0.01219  1.0000
  H   H1497     1.0  0.62153  0.88570  0.21934  1.0000
  C   C1856     1.0  0.55105  0.96142  0.34215  1.0000
  H   H1498     1.0  0.64877  0.98243  0.40508  1.0000
  C   C1857     1.0  0.70183  0.73769  0.24866  1.0000
  S   S275      1.0  0.72087  0.88152  0.29752  1.0000
  H   H1499     1.0  0.61655  0.52174  0.08085  1.0000
  H   H1500     1.0  0.50811  0.59890  0.02249  1.0000
  Fe  Fe140     1.0  0.72498  0.89853  0.26454  1.0000
  C   C1858     1.0  0.74195  0.74699  0.22496  1.0000
  C   C1859     1.0  0.71940  0.74864  0.00075  1.0000
  H   H1501     1.0  0.66833  0.66370  0.07302  1.0000
  H   H1502     1.0  0.72182  0.67481  0.00012  1.0000
  H   H1503     1.0  0.52230  0.94353  0.40700  1.0000
  H   H1504     1.0  0.49453  0.49932  0.11299  1.0000
  H   H1505     1.0  0.53419  0.91140  0.35293  1.0000
  C   C1860     1.0  0.64896  0.61294  0.05636  1.0000
  C   C1861     1.0  0.73070  0.72375  0.03754  1.0000
  C   C1862     1.0  0.65980  0.63045  0.04730  1.0000
  H   H1506     1.0  0.60975  0.95985  0.48556  1.0000
  C   C1863     1.0  0.51966  0.95759  0.41588  1.0000
  C   C1864     1.0  0.63179  0.52557  0.08534  1.0000
  H   H1507     1.0  0.50221  0.80715  0.46092  1.0000
  C   C1865     1.0  0.54239  0.53200  0.02615  1.0000
  H   H1508     1.0  0.65557  0.92072  0.16994  1.0000
  C   C1866     1.0  0.60935  0.97694  0.48285  1.0000
  C   C1867     1.0  0.72416  0.66073  0.06398  1.0000
  H   H1509     1.0  0.68823  0.93767  0.22202  1.0000
  S   S276      1.0  0.71983  0.93479  0.25814  1.0000
  C   C1868     1.0  0.53487  0.97259  0.35371  1.0000
  H   H1510     1.0  0.73378  0.89794  0.18742  1.0000
  C   C1869     1.0  0.71781  0.91139  0.38331  1.0000
  H   H1511     1.0  0.70955  0.61256  0.05750  1.0000
  C   C1870     1.0  0.72542  0.93062  0.37404  1.0000
  H   H1512     1.0  0.72328  0.53453  0.17970  1.0000
  H   H1513     1.0  0.61878  0.86525  0.18110  1.0000
  H   H1514     1.0  0.70910  0.69928  0.27206  1.0000
  C   C1871     1.0  0.64069  0.90771  0.42977  1.0000
  C   C1872     1.0  0.72495  0.69420  0.26650  1.0000
  C   C1873     1.0  0.68435  0.69639  0.02957  1.0000
  C   C1874     1.0  0.73846  0.70855  0.25498  1.0000
  H   H1515     1.0  0.72505  0.92912  0.20894  1.0000
  H   H1516     1.0  0.63349  0.84561  0.27583  1.0000
  C   C1875     1.0  0.66687  0.53726  0.07522  1.0000
  H   H1517     1.0  0.56069  0.77782  0.47416  1.0000
  H   H1518     1.0  0.70358  0.73225  0.21471  1.0000
  C   C1876     1.0  0.67173  0.73604  0.22774  1.0000
  C   C1877     1.0  0.65813  0.73974  0.24589  1.0000
  C   C1878     1.0  0.66628  0.74213  0.26552  1.0000
  C   C1879     1.0  0.68805  0.74099  0.26696  1.0000
  C   C1880     1.0  0.72918  0.69443  0.36860  1.0000
  H   H1519     1.0  0.59414  0.52762  0.04249  1.0000
  H   H1520     1.0  0.70172  0.97048  0.32030  1.0000
  C   C1881     1.0  0.50698  0.52245  0.02085  1.0000
  H   H1521     1.0  0.71194  0.96816  0.43065  1.0000
  C   C1882     1.0  0.72717  0.77075  0.27574  1.0000
  S   S277      1.0  0.73891  0.75395  0.12504  1.0000
  H   H1522     1.0  0.71193  0.77344  0.02247  1.0000
  H   H1523     1.0  0.55123  0.52836  0.05869  1.0000
  C   C1883     1.0  0.49468  0.59043  0.02925  1.0000
  C   C1884     1.0  0.71267  0.91965  0.20464  1.0000
  H   H1524     1.0  0.71106  0.66810  0.07330  1.0000
  C   C1885     1.0  0.70163  0.88942  0.18780  1.0000
  H   H1525     1.0  0.66555  0.73445  0.21237  1.0000
  H   H1526     1.0  0.64129  0.74083  0.24468  1.0000
  H   H1527     1.0  0.65570  0.74498  0.27959  1.0000
  H   H1528     1.0  0.69405  0.74270  0.28233  1.0000
  C   C1886     1.0  0.67611  0.71567  0.03700  1.0000
  C   C1887     1.0  0.65996  0.59536  0.06563  1.0000
  C   C1888     1.0  0.66484  0.71612  0.05708  1.0000
  C   C1889     1.0  0.49760  0.59414  0.11682  1.0000
  H   H1529     1.0  0.59779  0.82052  0.43215  1.0000
  C   C1890     1.0  0.71361  0.97502  0.41421  1.0000
  H   H1530     1.0  0.50796  0.86651  0.48772  1.0000
  H   H1531     1.0  0.67913  0.73038  0.02748  1.0000
  H   H1532     1.0  0.65904  0.73115  0.06308  1.0000
  C   C1891     1.0  0.73132  0.98626  0.40685  1.0000
  C   C1892     1.0  0.71804  0.96534  0.32142  1.0000
  C   C1893     1.0  0.72336  0.81414  0.17933  1.0000
  C   C1894     1.0  0.59707  0.51310  0.01228  1.0000
  C   C1895     1.0  0.51192  0.66633  0.00744  1.0000
  H   H1533     1.0  0.63199  0.61296  0.05632  1.0000
  H   H1534     1.0  0.68809  0.89230  0.33090  1.0000
  H   H1535     1.0  0.68868  0.82343  0.38604  1.0000
  C   C1896     1.0  0.62025  0.98586  0.46427  1.0000
  C   C1897     1.0  0.55077  0.93941  0.34169  1.0000
  C   C1898     1.0  0.67016  0.67796  0.06249  1.0000
  C   C1899     1.0  0.63427  0.70940  0.99655  1.0000
  C   C1900     1.0  0.60148  0.80640  0.48533  1.0000
  C   C1901     1.0  0.57792  0.79873  0.45141  1.0000
  H   H1536     1.0  0.62799  0.90943  0.44223  1.0000
  H   H1537     1.0  0.62830  0.97558  0.45281  1.0000
  H   H1538     1.0  0.71868  0.69804  0.31606  1.0000
  H   H1539     1.0  0.69338  0.69664  0.01419  1.0000
  H   H1540     1.0  0.56407  0.96986  0.33401  1.0000
  H   H1541     1.0  0.65854  0.96530  0.34138  1.0000
  C   C1902     1.0  0.73872  0.64229  0.03316  1.0000
  H   H1542     1.0  0.54564  0.58776  0.01716  1.0000
  C   C1903     1.0  0.56171  0.58274  0.01240  1.0000
  H   H1543     1.0  0.51739  0.51389  0.07354  1.0000
  C   C1904     1.0  0.65299  0.89841  0.39391  1.0000
  H   H1544     1.0  0.65331  0.69761  0.08550  1.0000
  H   H1545     1.0  0.67365  0.94383  0.37169  1.0000
  C   C1905     1.0  0.57901  0.65833  0.04595  1.0000
  C   C1906     1.0  0.59124  0.66329  0.06215  1.0000
  C   C1907     1.0  0.61113  0.67111  0.05678  1.0000
  C   C1908     1.0  0.61878  0.67413  0.03520  1.0000
  C   C1909     1.0  0.60651  0.66938  0.01877  1.0000
  C   C1910     1.0  0.58668  0.66116  0.02437  1.0000
  C   C1911     1.0  0.71756  0.90212  0.19255  1.0000
  C   C1912     1.0  0.66168  0.69724  0.06972  1.0000
  H   H1546     1.0  0.69022  0.58191  0.07368  1.0000
  H   H1547     1.0  0.68545  0.54226  0.10117  1.0000
  C   C1913     1.0  0.51990  0.51836  0.05649  1.0000
  H   H1548     1.0  0.62095  0.89680  0.40711  1.0000
  H   H1549     1.0  0.62670  0.93975  0.15167  1.0000
  H   H1550     1.0  0.67533  0.62753  0.00524  1.0000
  C   C1914     1.0  0.72907  0.96064  0.26014  1.0000
  H   H1551     1.0  0.59385  0.92185  0.14788  1.0000
  C   C1915     1.0  0.68174  0.67737  0.04240  1.0000
  H   H1552     1.0  0.61842  0.82756  0.46223  1.0000
  C   C1916     1.0  0.51793  0.93970  0.36403  1.0000
  H   H1553     1.0  0.67881  0.54227  0.06283  1.0000
  H   H1554     1.0  0.51421  0.56877  0.04805  1.0000
  H   H1555     1.0  0.72397  0.88412  0.40542  1.0000
  C   C1917     1.0  0.67400  0.92063  0.31625  1.0000
  C   C1918     1.0  0.69038  0.85739  0.38139  1.0000
  H   H1556     1.0  0.65488  0.83074  0.19435  1.0000
  H   H1557     1.0  0.56383  0.65166  0.05025  1.0000
  H   H1558     1.0  0.58554  0.66056  0.07893  1.0000
  H   H1559     1.0  0.62072  0.67438  0.06948  1.0000
  H   H1560     1.0  0.63447  0.67967  0.03149  1.0000
  C   C1919     1.0  0.63551  0.52530  0.10703  1.0000
  C   C1920     1.0  0.63669  0.90065  0.41001  1.0000
  C   C1921     1.0  0.59429  0.81260  0.44795  1.0000
  C   C1922     1.0  0.66554  0.94953  0.33910  1.0000
  H   H1561     1.0  0.69303  0.91434  0.42050  1.0000
  H   H1562     1.0  0.64440  0.53198  0.05265  1.0000
  C   C1923     1.0  0.52590  0.97587  0.44707  1.0000
  H   H1563     1.0  0.74248  0.71757  0.20920  1.0000
  C   C1924     1.0  0.59366  0.51298  0.03467  1.0000
  C   C1925     1.0  0.68173  0.63052  0.04737  1.0000
  C   C1926     1.0  0.71726  0.87003  0.35455  1.0000
  H   H1564     1.0  0.50313  0.91491  0.45488  1.0000
  C   C1927     1.0  0.53902  0.52644  0.04814  1.0000
  H   H1565     1.0  0.64708  0.73943  0.00081  1.0000
  H   H1566     1.0  0.59247  0.71180  0.47812  1.0000
  C   C1928     1.0  0.52661  0.52976  0.01253  1.0000
  H   H1567     1.0  0.71710  0.93998  0.36199  1.0000
  P   P63       1.0  0.72997  0.73613  0.25034  1.0000
  H   H1568     1.0  0.56352  0.93071  0.33314  1.0000
  C   C1929     1.0  0.69346  0.73491  0.22912  1.0000
  H   H1569     1.0  0.72561  0.79772  0.29497  1.0000
  H   H1570     1.0  0.68507  0.81193  0.13468  1.0000
  C   C1930     1.0  0.68177  0.59539  0.06611  1.0000
  H   H1571     1.0  0.61049  0.87184  0.25623  1.0000
  C   C1931     1.0  0.67351  0.90313  0.39746  1.0000
  H   H1572     1.0  0.66559  0.80299  0.16971  1.0000
  H   H1573     1.0  0.68889  0.97805  0.36812  1.0000
  C   C1932     1.0  0.67746  0.91030  0.41734  1.0000
  C   C1933     1.0  0.69267  0.61287  0.05696  1.0000
  H   H1574     1.0  0.62614  0.63083  0.01763  1.0000
  H   H1575     1.0  0.68484  0.96300  0.40578  1.0000
  C   C1934     1.0  0.49832  0.57314  0.04394  1.0000
  H   H1576     1.0  0.73352  0.82459  0.16929  1.0000
  C   C1935     1.0  0.52863  0.95786  0.43542  1.0000
  C   C1936     1.0  0.73301  0.78224  0.29226  1.0000
  C   C1937     1.0  0.58211  0.50736  0.14107  1.0000
  H   H1577     1.0  0.65890  0.95046  0.30581  1.0000
  C   C1938     1.0  0.71536  0.97851  0.25622  1.0000
  H   H1578     1.0  0.65148  0.58181  0.07258  1.0000
  H   H1579     1.0  0.65114  0.64393  0.04015  1.0000
  P   P64       1.0  0.49812  0.97563  0.38150  1.0000
  H   H1580     1.0  0.67363  0.91395  0.30085  1.0000
  C   C1939     1.0  0.71309  0.83231  0.36166  1.0000
  C   C1940     1.0  0.72138  0.65221  0.04446  1.0000
  C   C1941     1.0  0.68258  0.90846  0.33331  1.0000
  H   H1581     1.0  0.73913  0.69932  0.01588  1.0000
  H   H1582     1.0  0.59004  0.88455  0.16251  1.0000
  C   C1942     1.0  0.68063  0.89427  0.19499  1.0000
  C   C1943     1.0  0.67587  0.91182  0.20731  1.0000
  P   P65       1.0  0.65992  0.87719  0.19077  1.0000
  C   C1944     1.0  0.63903  0.89174  0.17748  1.0000
  C   C1945     1.0  0.66855  0.85626  0.17346  1.0000
  C   C1946     1.0  0.67898  0.86133  0.15319  1.0000
  C   C1947     1.0  0.68500  0.84540  0.13927  1.0000
  C   C1948     1.0  0.68019  0.82439  0.14527  1.0000
  C   C1949     1.0  0.66923  0.81934  0.16509  1.0000
  C   C1950     1.0  0.66341  0.83516  0.17916  1.0000
  C   C1951     1.0  0.62056  0.88159  0.17492  1.0000
  C   C1952     1.0  0.60429  0.89246  0.16435  1.0000
  C   C1953     1.0  0.60645  0.91345  0.15609  1.0000
  C   C1954     1.0  0.62495  0.92354  0.15825  1.0000
  C   C1955     1.0  0.64126  0.91271  0.16880  1.0000
  C   C1956     1.0  0.65078  0.86650  0.21726  1.0000
  C   C1957     1.0  0.63150  0.87374  0.22734  1.0000
  C   C1958     1.0  0.62518  0.86599  0.24830  1.0000
  C   C1959     1.0  0.63811  0.85115  0.25936  1.0000
  C   C1960     1.0  0.65744  0.84413  0.24954  1.0000
  C   C1961     1.0  0.66383  0.85190  0.22864  1.0000
  C   C1962     1.0  0.66107  0.91250  0.43345  1.0000
  H   H1583     1.0  0.70598  0.87542  0.17926  1.0000
  H   H1584     1.0  0.50561  0.93086  0.37292  1.0000
  H   H1585     1.0  0.67911  0.84682  0.22143  1.0000
  H   H1586     1.0  0.65991  0.91536  0.21379  1.0000
  H   H1587     1.0  0.68252  0.87759  0.14819  1.0000
  C   C1963     1.0  0.49341  0.65533  0.01043  1.0000
  C   C1964     1.0  0.63010  0.62811  0.00091  1.0000
  C   C1965     1.0  0.71964  0.50475  0.13736  1.0000
  H   H1588     1.0  0.72123  0.69386  0.38462  1.0000
  C   C1966     1.0  0.58683  0.74075  0.49415  1.0000
  C   C1967     1.0  0.72855  0.51370  0.15393  1.0000
  C   C1968     1.0  0.64537  0.51076  0.15719  1.0000
  H   H1589     1.0  0.73510  0.71401  0.05159  1.0000
  S   S278      1.0  0.55619  0.84509  0.48921  1.0000
  C   C1969     1.0  0.63844  0.51373  0.17868  1.0000
  C   C1970     1.0  0.52970  0.65764  0.99606  1.0000
  C   C1971     1.0  0.60326  0.56953  0.00047  1.0000
  H   H1590     1.0  0.59964  0.52793  0.00300  1.0000
  H   H1591     1.0  0.57115  0.90988  0.49345  1.0000
  C   C1972     1.0  0.72338  0.84911  0.35033  1.0000
  H   H1592     1.0  0.59958  0.85637  0.49181  1.0000
  H   H1593     1.0  0.59829  0.74917  0.48345  1.0000
  C   C1973     1.0  0.50714  0.83705  0.47331  1.0000
  C   C1974     1.0  0.49969  0.85205  0.48777  1.0000
  C   C1975     1.0  0.71806  0.99255  0.37154  1.0000
  H   H1594     1.0  0.57356  0.94873  0.48995  1.0000
  C   C1976     1.0  0.72529  0.94607  0.31329  1.0000
  H   H1595     1.0  0.50116  0.86086  0.43304  1.0000
  C   C1977     1.0  0.73285  0.71541  0.01718  1.0000
  C   C1978     1.0  0.73177  0.67300  0.27078  1.0000
  H   H1596     1.0  0.73609  0.84592  0.33820  1.0000
  C   C1979     1.0  0.58365  0.71954  0.49115  1.0000
  Fe  Fe141     1.0  0.74101  0.85439  0.28360  1.0000
  C   C1980     1.0  0.51392  0.99355  0.43934  1.0000
  C   C1981     1.0  0.73181  0.97774  0.33073  1.0000
  C   C1982     1.0  0.72942  0.89922  0.39837  1.0000
  H   H1597     1.0  0.61707  0.99337  0.38601  1.0000
  H   H1598     1.0  0.62234  0.50027  0.20780  1.0000
  C   C1983     1.0  0.58489  0.49819  0.12121  1.0000
  H   H1599     1.0  0.61922  0.56404  0.99588  1.0000
  C   C1984     1.0  0.68626  0.63766  0.99588  1.0000
  Fe  Fe142     1.0  0.54712  0.60170  0.89524  1.0000
  S   S279      1.0  0.57840  0.59397  0.87747  1.0000
  S   S280      1.0  0.51824  0.61823  0.88166  1.0000
  Fe  Fe143     1.0  0.56209  0.58584  0.93785  1.0000
  S   S281      1.0  0.59454  0.57672  0.92415  1.0000
  S   S282      1.0  0.54888  0.58245  0.97221  1.0000
  Fe  Fe144     1.0  0.59285  0.60790  0.90442  1.0000
  S   S283      1.0  0.62397  0.62422  0.89806  1.0000
  Fe  Fe145     1.0  0.57825  0.56325  0.89838  1.0000
  S   S284      1.0  0.59288  0.53371  0.88348  1.0000
  S   S285      1.0  0.56152  0.61819  0.92052  1.0000
  S   S286      1.0  0.54574  0.56991  0.91373  1.0000
  Fe  Fe146     1.0  0.54638  0.86322  0.62652  1.0000
  S   S287      1.0  0.58016  0.85160  0.62964  1.0000
  S   S288      1.0  0.52193  0.83891  0.63569  1.0000
  Fe  Fe147     1.0  0.55864  0.90714  0.60887  1.0000
  S   S289      1.0  0.59306  0.89926  0.61068  1.0000
  S   S290      1.0  0.54723  0.93854  0.59327  1.0000
  Fe  Fe148     1.0  0.58625  0.86884  0.59710  1.0000
  S   S291      1.0  0.60754  0.85787  0.56895  1.0000
  Fe  Fe149     1.0  0.58423  0.88291  0.64313  1.0000
  S   S292      1.0  0.59947  0.88953  0.67360  1.0000
  S   S293      1.0  0.55237  0.87797  0.59301  1.0000
  S   S294      1.0  0.54977  0.89332  0.64237  1.0000
  Fe  Fe150     1.0  0.70374  0.87001  0.73603  1.0000
  S   S295      1.0  0.68852  0.89194  0.75994  1.0000
  S   S296      1.0  0.68884  0.85857  0.70731  1.0000
  Fe  Fe151     1.0  0.70211  0.86848  0.78501  1.0000
  S   S297      1.0  0.68281  0.85312  0.81374  1.0000
  Fe  Fe152     1.0  0.68702  0.72497  0.91075  1.0000
  S   S298      1.0  0.69570  0.75074  0.93087  1.0000
  S   S299      1.0  0.65283  0.71605  0.91360  1.0000
  Fe  Fe153     1.0  0.71643  0.76183  0.90146  1.0000
  S   S300      1.0  0.72523  0.79496  0.88793  1.0000
  Fe  Fe154     1.0  0.72269  0.72816  0.93926  1.0000
  C   C1985     1.0  0.73011  0.68516  0.73534  1.0000
  S   S301      1.0  0.70520  0.73823  0.88072  1.0000
  S   S302      1.0  0.71323  0.70203  0.92001  1.0000
  H   H1600     1.0  0.58676  0.64606  0.97256  1.0000
  H   H1601     1.0  0.61080  0.75343  0.75978  1.0000
  C   C1986     1.0  0.56526  0.51810  0.96030  1.0000
  C   C1987     1.0  0.69511  0.83626  0.83355  1.0000
  C   C1988     1.0  0.68299  0.82211  0.84718  1.0000
  C   C1989     1.0  0.69210  0.80883  0.86341  1.0000
  C   C1990     1.0  0.71331  0.81025  0.86678  1.0000
  C   C1991     1.0  0.72533  0.82471  0.85343  1.0000
  C   C1992     1.0  0.71644  0.83727  0.83658  1.0000
  H   H1602     1.0  0.66640  0.82165  0.84533  1.0000
  H   H1603     1.0  0.68257  0.79807  0.87378  1.0000
  C   C1993     1.0  0.64653  0.53738  0.96166  1.0000
  H   H1604     1.0  0.72594  0.84817  0.82631  1.0000
  S   S303      1.0  0.71503  0.84561  0.76116  1.0000
  H   H1605     1.0  0.56676  0.50171  0.90961  1.0000
  H   H1606     1.0  0.60011  0.94508  0.59662  1.0000
  C   C1994     1.0  0.62450  0.88079  0.68249  1.0000
  C   C1995     1.0  0.63080  0.88847  0.70133  1.0000
  C   C1996     1.0  0.65039  0.88189  0.70913  1.0000
  C   C1997     1.0  0.66391  0.86739  0.69824  1.0000
  C   C1998     1.0  0.65764  0.85973  0.67940  1.0000
  C   C1999     1.0  0.63811  0.86644  0.67149  1.0000
  H   H1607     1.0  0.62045  0.89957  0.70998  1.0000
  H   H1608     1.0  0.65501  0.88802  0.72356  1.0000
  H   H1609     1.0  0.66799  0.84859  0.67078  1.0000
  H   H1610     1.0  0.63353  0.86040  0.65700  1.0000
  C   C2000     1.0  0.55353  0.95916  0.60815  1.0000
  C   C2001     1.0  0.59378  0.98157  0.68972  1.0000
  H   H1611     1.0  0.69040  0.93928  0.71148  1.0000
  H   H1612     1.0  0.58441  0.90843  0.55965  1.0000
  C   C2002     1.0  0.56749  0.97098  0.63962  1.0000
  C   C2003     1.0  0.56213  0.95451  0.62782  1.0000
  C   C2004     1.0  0.67017  0.92351  0.65854  1.0000
  H   H1613     1.0  0.50567  0.81202  0.56022  1.0000
  H   H1614     1.0  0.57414  0.96725  0.65479  1.0000
  H   H1615     1.0  0.56476  0.93821  0.63398  1.0000
  C   C2005     1.0  0.53452  0.50300  0.94875  1.0000
  C   C2006     1.0  0.60355  0.85613  0.52577  1.0000
  C   C2007     1.0  0.59377  0.85357  0.54670  1.0000
  C   C2008     1.0  0.57291  0.84776  0.54968  1.0000
  C   C2009     1.0  0.56177  0.84497  0.53189  1.0000
  H   H1616     1.0  0.61974  0.86048  0.52338  1.0000
  H   H1617     1.0  0.56550  0.84486  0.56572  1.0000
  H   H1618     1.0  0.54574  0.84037  0.53442  1.0000
  C   C2010     1.0  0.58210  0.95074  0.52244  1.0000
  H   H1619     1.0  0.70179  0.90459  0.69755  1.0000
  C   C2011     1.0  0.51615  0.52061  0.89219  1.0000
  H   H1620     1.0  0.56654  0.70669  0.82118  1.0000
  H   H1621     1.0  0.51442  0.86106  0.53049  1.0000
  H   H1622     1.0  0.62814  0.54143  0.91199  1.0000
  C   C2012     1.0  0.63425  0.67505  0.84473  1.0000
  C   C2013     1.0  0.63157  0.64934  0.90437  1.0000
  C   C2014     1.0  0.61700  0.66522  0.91127  1.0000
  C   C2015     1.0  0.62383  0.68536  0.91476  1.0000
  C   C2016     1.0  0.64523  0.68982  0.91141  1.0000
  C   C2017     1.0  0.65985  0.67366  0.90538  1.0000
  C   C2018     1.0  0.65303  0.65357  0.90180  1.0000
  H   H1623     1.0  0.60048  0.66209  0.91359  1.0000
  H   H1624     1.0  0.61243  0.69769  0.91965  1.0000
  H   H1625     1.0  0.67635  0.67683  0.90278  1.0000
  H   H1626     1.0  0.66443  0.64134  0.89656  1.0000
  C   C2019     1.0  0.59236  0.50563  0.88509  1.0000
  H   H1627     1.0  0.64113  0.61591  0.94109  1.0000
  H   H1628     1.0  0.73320  0.50398  0.54620  1.0000
  H   H1629     1.0  0.56058  0.76847  0.87384  1.0000
  H   H1630     1.0  0.59331  0.56936  0.96858  1.0000
  H   H1631     1.0  0.61070  0.80989  0.49816  1.0000
  C   C2020     1.0  0.54518  0.52072  0.95288  1.0000
  H   H1632     1.0  0.49444  0.95915  0.63792  1.0000
  C   C2021     1.0  0.63223  0.63997  0.96314  1.0000
  C   C2022     1.0  0.62012  0.95171  0.62095  1.0000
  C   C2023     1.0  0.49871  0.58055  0.88275  1.0000
  C   C2024     1.0  0.63736  0.69004  0.98683  1.0000
  C   C2025     1.0  0.64080  0.95255  0.62653  1.0000
  H   H1633     1.0  0.53842  0.68120  0.82657  1.0000
  H   H1634     1.0  0.62112  0.92824  0.67352  1.0000
  H   H1635     1.0  0.66527  0.96354  0.69209  1.0000
  C   C2026     1.0  0.57670  0.94005  0.50505  1.0000
  C   C2027     1.0  0.58457  0.67542  0.86326  1.0000
  H   H1636     1.0  0.63041  0.65233  0.95043  1.0000
  C   C2028     1.0  0.58261  0.91732  0.54432  1.0000
  H   H1637     1.0  0.54756  0.52723  0.87903  1.0000
  H   H1638     1.0  0.68925  0.98326  0.70581  1.0000
  C   C2029     1.0  0.57113  0.84838  0.51095  1.0000
  H   H1639     1.0  0.67365  0.94875  0.61522  1.0000
  C   C2030     1.0  0.56584  0.68921  0.94466  1.0000
  H   H1640     1.0  0.68540  0.69844  0.96037  1.0000
  C   C2031     1.0  0.50134  0.92171  0.52893  1.0000
  C   C2032     1.0  0.57792  0.90682  0.52668  1.0000
  C   C2033     1.0  0.62784  0.64450  0.98470  1.0000
  C   C2034     1.0  0.61718  0.51480  0.96079  1.0000
  C   C2035     1.0  0.53473  0.51667  0.87940  1.0000
  H   H1641     1.0  0.72372  0.98871  0.68652  1.0000
  C   C2036     1.0  0.72267  0.79010  0.78988  1.0000
  C   C2037     1.0  0.70991  0.78017  0.80676  1.0000
  C   C2038     1.0  0.71799  0.77605  0.82693  1.0000
  P   P66       1.0  0.68413  0.77165  0.80197  1.0000
  C   C2039     1.0  0.66487  0.77672  0.82425  1.0000
  C   C2040     1.0  0.67672  0.78580  0.77718  1.0000
  C   C2041     1.0  0.67483  0.80809  0.77576  1.0000
  C   C2042     1.0  0.67029  0.81940  0.75648  1.0000
  C   C2043     1.0  0.66828  0.80864  0.73821  1.0000
  C   C2044     1.0  0.67067  0.78650  0.73926  1.0000
  C   C2045     1.0  0.67496  0.77510  0.75861  1.0000
  C   C2046     1.0  0.64794  0.79177  0.82213  1.0000
  C   C2047     1.0  0.63298  0.79481  0.83944  1.0000
  C   C2048     1.0  0.63460  0.78276  0.85895  1.0000
  C   C2049     1.0  0.65102  0.76742  0.86108  1.0000
  C   C2050     1.0  0.66591  0.76427  0.84376  1.0000
  C   C2051     1.0  0.68470  0.74316  0.80074  1.0000
  C   C2052     1.0  0.70177  0.73022  0.80758  1.0000
  C   C2053     1.0  0.70161  0.70814  0.80759  1.0000
  C   C2054     1.0  0.68412  0.69875  0.80124  1.0000
  C   C2055     1.0  0.66671  0.71146  0.79513  1.0000
  C   C2056     1.0  0.66698  0.73356  0.79496  1.0000
  H   H1642     1.0  0.69722  0.67955  0.74205  1.0000
  C   C2057     1.0  0.63366  0.95318  0.73364  1.0000
  C   C2058     1.0  0.58858  0.57257  0.98498  1.0000
  H   H1643     1.0  0.71728  0.79340  0.77401  1.0000
  H   H1644     1.0  0.70878  0.76867  0.84038  1.0000
  H   H1645     1.0  0.67728  0.81681  0.78949  1.0000
  H   H1646     1.0  0.66890  0.83662  0.75551  1.0000
  H   H1647     1.0  0.66528  0.81760  0.72318  1.0000
  H   H1648     1.0  0.66951  0.77827  0.72492  1.0000
  H   H1649     1.0  0.67741  0.75809  0.75876  1.0000
  H   H1650     1.0  0.64617  0.80141  0.80737  1.0000
  H   H1651     1.0  0.62037  0.80689  0.83785  1.0000
  H   H1652     1.0  0.62324  0.78539  0.87246  1.0000
  H   H1653     1.0  0.65229  0.75798  0.87621  1.0000
  H   H1654     1.0  0.67815  0.75191  0.84562  1.0000
  H   H1655     1.0  0.71507  0.73705  0.81335  1.0000
  H   H1656     1.0  0.71488  0.69830  0.81302  1.0000
  H   H1657     1.0  0.68387  0.68161  0.80164  1.0000
  H   H1658     1.0  0.65292  0.70416  0.79083  1.0000
  H   H1659     1.0  0.65335  0.74323  0.79048  1.0000
  C   C2059     1.0  0.55393  0.98661  0.51840  1.0000
  C   C2060     1.0  0.71719  0.97108  0.78141  1.0000
  H   H1660     1.0  0.55410  0.69339  0.93334  1.0000
  C   C2061     1.0  0.59212  0.85393  0.50789  1.0000
  H   H1661     1.0  0.50635  0.97432  0.54374  1.0000
  C   C2062     1.0  0.52524  0.89145  0.53601  1.0000
  C   C2063     1.0  0.56101  0.73949  0.52488  1.0000
  C   C2064     1.0  0.51049  0.62701  0.99040  1.0000
  C   C2065     1.0  0.73419  0.76684  0.71490  1.0000
  P   P67       1.0  0.57991  0.77818  0.51501  1.0000
  C   C2066     1.0  0.55660  0.78966  0.52920  1.0000
  C   C2067     1.0  0.60215  0.77906  0.53084  1.0000
  C   C2068     1.0  0.60522  0.79758  0.54079  1.0000
  C   C2069     1.0  0.62225  0.79869  0.55313  1.0000
  C   C2070     1.0  0.63646  0.78123  0.55560  1.0000
  C   C2071     1.0  0.63361  0.76267  0.54568  1.0000
  C   C2072     1.0  0.61653  0.76156  0.53331  1.0000
  C   C2073     1.0  0.53967  0.79841  0.51798  1.0000
  H   H1662     1.0  0.52291  0.97964  0.64892  1.0000
  H   H1663     1.0  0.62041  0.97033  0.54088  1.0000
  C   C2074     1.0  0.53654  0.79708  0.56289  1.0000
  C   C2075     1.0  0.55479  0.78892  0.55180  1.0000
  C   C2076     1.0  0.56915  0.70832  0.50495  1.0000
  P   P68       1.0  0.58149  0.97930  0.52009  1.0000
  H   H1664     1.0  0.51919  0.50504  0.94258  1.0000
  C   C2077     1.0  0.50275  0.93170  0.68571  1.0000
  H   H1665     1.0  0.57553  0.72118  0.94501  1.0000
  C   C2078     1.0  0.65386  0.98456  0.73433  1.0000
  C   C2079     1.0  0.52627  0.96053  0.67843  1.0000
  C   C2080     1.0  0.52070  0.91333  0.53539  1.0000
  H   H1666     1.0  0.63492  0.98559  0.57134  1.0000
  H   H1667     1.0  0.55223  0.74684  0.53814  1.0000
  C   C2081     1.0  0.61208  0.98162  0.67575  1.0000
  H   H1668     1.0  0.59440  0.81119  0.53890  1.0000
  H   H1669     1.0  0.62437  0.81316  0.56076  1.0000
  H   H1670     1.0  0.64965  0.78213  0.56519  1.0000
  H   H1671     1.0  0.64467  0.74916  0.54758  1.0000
  C   C2082     1.0  0.71235  0.66413  0.99295  1.0000
  H   H1672     1.0  0.65860  0.67183  0.96548  1.0000
  C   C2083     1.0  0.52134  0.80630  0.52916  1.0000
  H   H1673     1.0  0.73778  0.78240  0.96051  1.0000
  H   H1674     1.0  0.53543  0.79684  0.58030  1.0000
  H   H1675     1.0  0.56744  0.78204  0.56095  1.0000
  C   C2084     1.0  0.65581  0.98776  0.64547  1.0000
  C   C2085     1.0  0.66664  0.95034  0.75003  1.0000
  H   H1676     1.0  0.51431  0.57305  0.88072  1.0000
  C   C2086     1.0  0.52900  0.63795  0.98759  1.0000
  S   S304      1.0  0.73087  0.71632  0.97334  1.0000
  C   C2087     1.0  0.61619  0.94563  0.60075  1.0000
  C   C2088     1.0  0.56752  0.69385  0.83357  1.0000
  C   C2089     1.0  0.66924  0.97194  0.74477  1.0000
  P   P69       1.0  0.60522  0.71007  0.84314  1.0000
  C   C2090     1.0  0.70385  0.71158  0.74758  1.0000
  C   C2091     1.0  0.63290  0.93986  0.58614  1.0000
  H   H1677     1.0  0.56669  0.69189  0.50260  1.0000
  C   C2092     1.0  0.51715  0.96634  0.65923  1.0000
  C   C2093     1.0  0.65401  0.66517  0.84785  1.0000
  C   C2094     1.0  0.63084  0.69703  0.84632  1.0000
  H   H1678     1.0  0.72569  0.67289  0.96097  1.0000
  C   C2095     1.0  0.55143  0.67956  0.83668  1.0000
  H   H1679     1.0  0.72151  0.82001  0.71290  1.0000
  C   C2096     1.0  0.57415  0.75763  0.87585  1.0000
  H   H1680     1.0  0.53223  0.92372  0.53995  1.0000
  H   H1681     1.0  0.63529  0.51649  0.98825  1.0000
  C   C2097     1.0  0.65360  0.94102  0.59140  1.0000
  S   S305      1.0  0.73464  0.88598  0.73234  1.0000
  C   C2098     1.0  0.58010  0.74296  0.86055  1.0000
  H   H1682     1.0  0.50854  0.81331  0.52035  1.0000
  C   C2099     1.0  0.60681  0.72390  0.81678  1.0000
  C   C2100     1.0  0.58449  0.93929  0.54231  1.0000
  C   C2101     1.0  0.66418  0.94358  0.66589  1.0000
  C   C2102     1.0  0.55203  0.66311  0.85290  1.0000
  C   C2103     1.0  0.63697  0.60767  0.99561  1.0000
  H   H1683     1.0  0.71504  0.74211  0.75218  1.0000
  C   C2104     1.0  0.64783  0.70905  0.84977  1.0000
  C   C2105     1.0  0.69140  0.91552  0.68869  1.0000
  H   H1684     1.0  0.64541  0.58719  0.96998  1.0000
  H   H1685     1.0  0.53962  0.65195  0.85525  1.0000
  Fe  Fe155     1.0  0.71990  0.90727  0.75770  1.0000
  C   C2106     1.0  0.66753  0.69913  0.85304  1.0000
  H   H1686     1.0  0.68838  0.89412  0.66426  1.0000
  C   C2107     1.0  0.62215  0.96240  0.66982  1.0000
  C   C2108     1.0  0.68393  0.90969  0.66979  1.0000
  C   C2109     1.0  0.60580  0.71267  0.79848  1.0000
  C   C2110     1.0  0.64084  0.60320  0.97408  1.0000
  H   H1687     1.0  0.60272  0.71172  0.96999  1.0000
  C   C2111     1.0  0.60718  0.72331  0.77800  1.0000
  H   H1688     1.0  0.56895  0.64837  0.87886  1.0000
  H   H1689     1.0  0.51467  0.53427  0.90172  1.0000
  H   H1690     1.0  0.59714  0.67374  0.87389  1.0000
  H   H1691     1.0  0.64567  0.72601  0.85050  1.0000
  C   C2112     1.0  0.51761  0.98147  0.53182  1.0000
  C   C2113     1.0  0.63309  0.52234  0.97186  1.0000
  H   H1692     1.0  0.71300  0.78742  0.69662  1.0000
  H   H1693     1.0  0.61403  0.77321  0.79191  1.0000
  C   C2114     1.0  0.61040  0.74570  0.81423  1.0000
  S   S306      1.0  0.72405  0.94310  0.74834  1.0000
  C   C2115     1.0  0.72920  0.80481  0.71766  1.0000
  C   C2116     1.0  0.49398  0.93707  0.66606  1.0000
  C   C2117     1.0  0.67113  0.70141  0.97052  1.0000
  H   H1694     1.0  0.61229  0.75455  0.82799  1.0000
  H   H1695     1.0  0.68544  0.98150  0.65992  1.0000
  H   H1696     1.0  0.54360  0.98392  0.58506  1.0000
  H   H1697     1.0  0.62212  0.71851  0.88375  1.0000
  H   H1698     1.0  0.60601  0.71462  0.76393  1.0000
  C   C2118     1.0  0.61962  0.99122  0.56643  1.0000
  C   C2119     1.0  0.67061  0.67718  0.85217  1.0000
  C   C2120     1.0  0.58563  0.75824  0.89380  1.0000
  C   C2121     1.0  0.57497  0.91811  0.50706  1.0000
  C   C2122     1.0  0.56855  0.66110  0.86624  1.0000
  C   C2123     1.0  0.56910  0.66810  0.95246  1.0000
  H   H1699     1.0  0.61190  0.74431  0.91044  1.0000
  C   C2124     1.0  0.64466  0.54441  0.94015  1.0000
  C   C2125     1.0  0.51049  0.87795  0.53022  1.0000
  C   C2126     1.0  0.61159  0.75633  0.79375  1.0000
  H   H1700     1.0  0.60379  0.69571  0.80008  1.0000
  C   C2127     1.0  0.51905  0.94324  0.69170  1.0000
  H   H1701     1.0  0.64718  0.92404  0.74808  1.0000
  C   C2128     1.0  0.60296  0.74409  0.89649  1.0000
  C   C2129     1.0  0.59775  0.72896  0.86298  1.0000
  C   C2130     1.0  0.58449  0.69156  0.84655  1.0000
  H   H1702     1.0  0.53909  0.96936  0.68282  1.0000
  H   H1703     1.0  0.65506  0.55602  0.93215  1.0000
  H   H1704     1.0  0.73432  0.66919  0.73080  1.0000
  C   C2131     1.0  0.63841  0.61936  0.95783  1.0000
  H   H1705     1.0  0.58105  0.76957  0.90567  1.0000
  H   H1706     1.0  0.58705  0.94723  0.55648  1.0000
  C   C2132     1.0  0.71472  0.66295  0.97068  1.0000
  H   H1707     1.0  0.66388  0.91815  0.64455  1.0000
  H   H1708     1.0  0.70453  0.64848  0.94364  1.0000
  H   H1709     1.0  0.65627  0.64807  0.84759  1.0000
  H   H1710     1.0  0.68354  0.97866  0.74845  1.0000
  H   H1711     1.0  0.58884  0.92821  0.69796  1.0000
  C   C2133     1.0  0.57531  0.75097  0.51087  1.0000
  C   C2134     1.0  0.62946  0.53627  0.92879  1.0000
  C   C2135     1.0  0.49800  0.91353  0.59663  1.0000
  C   C2136     1.0  0.70283  0.64920  0.96095  1.0000
  C   C2137     1.0  0.68875  0.63644  0.97357  1.0000
  H   H1712     1.0  0.62005  0.94577  0.72904  1.0000
  H   H1713     1.0  0.50505  0.58546  0.96024  1.0000
  H   H1714     1.0  0.57097  0.74253  0.84682  1.0000
  C   C2138     1.0  0.61567  0.52166  0.93908  1.0000
  H   H1715     1.0  0.60700  0.95574  0.63214  1.0000
  C   C2139     1.0  0.60990  0.74515  0.77564  1.0000
  H   H1716     1.0  0.68767  0.71612  0.75245  1.0000
  C   C2140     1.0  0.49417  0.84080  0.63587  1.0000
  H   H1717     1.0  0.73033  0.75275  0.70762  1.0000
  H   H1718     1.0  0.51351  0.91200  0.58829  1.0000
  H   H1719     1.0  0.66657  0.93665  0.58003  1.0000
  C   C2141     1.0  0.64893  0.94090  0.74436  1.0000
  H   H1720     1.0  0.51045  0.61152  0.98421  1.0000
  C   C2142     1.0  0.59538  0.94320  0.69201  1.0000
  H   H1721     1.0  0.61817  0.50400  0.86077  1.0000
  C   C2143     1.0  0.49614  0.60260  0.88289  1.0000
  C   C2144     1.0  0.49954  0.50710  0.89251  1.0000
  C   C2145     1.0  0.60889  0.72946  0.88120  1.0000
  C   C2146     1.0  0.68485  0.93506  0.69657  1.0000
  C   C2147     1.0  0.53697  0.49890  0.86734  1.0000
  C   C2148     1.0  0.49876  0.56998  0.96010  1.0000
  C   C2149     1.0  0.72327  0.96837  0.75972  1.0000
  H   H1722     1.0  0.67976  0.62561  0.96601  1.0000
  H   H1723     1.0  0.62172  0.66533  0.84141  1.0000
  C   C2150     1.0  0.56455  0.99211  0.63170  1.0000
  Fe  Fe156     1.0  0.73242  0.71735  0.89170  1.0000
  H   H1724     1.0  0.60403  0.51554  0.92992  1.0000
  P   P70       1.0  0.64596  0.96165  0.65210  1.0000
  H   H1725     1.0  0.54673  0.70954  0.53262  1.0000
  C   C2151     1.0  0.67095  0.94884  0.68544  1.0000
  H   H1726     1.0  0.68035  0.70840  0.85658  1.0000
  C   C2152     1.0  0.63603  0.97491  0.72873  1.0000
  C   C2153     1.0  0.65586  0.68627  0.97361  1.0000
  H   H1727     1.0  0.54062  0.79958  0.50063  1.0000
  C   C2154     1.0  0.61366  0.94323  0.67806  1.0000
  H   H1728     1.0  0.52624  0.93862  0.70653  1.0000
  H   H1729     1.0  0.50984  0.91969  0.62640  1.0000
  C   C2155     1.0  0.74040  0.72063  0.74067  1.0000
  H   H1730     1.0  0.68576  0.66946  0.85520  1.0000
  C   C2156     1.0  0.65755  0.94768  0.61140  1.0000
  H   H1731     1.0  0.71329  0.95741  0.79217  1.0000
  C   C2157     1.0  0.71937  0.72630  0.74724  1.0000
  C   C2158     1.0  0.58548  0.96237  0.69794  1.0000
  H   H1732     1.0  0.57333  0.53202  0.96335  1.0000
  H   H1733     1.0  0.73990  0.72881  0.78306  1.0000
  H   H1734     1.0  0.62404  0.98393  0.72031  1.0000
  H   H1735     1.0  0.62977  0.93448  0.57077  1.0000
  C   C2159     1.0  0.66801  0.72050  0.98036  1.0000
  H   H1736     1.0  0.55986  0.65595  0.94721  1.0000
  H   H1737     1.0  0.57121  0.96234  0.70859  1.0000
  C   C2160     1.0  0.55015  0.98031  0.60034  1.0000
  H   H1738     1.0  0.54427  0.96741  0.54737  1.0000
  C   C2161     1.0  0.49581  0.91795  0.61828  1.0000
  C   C2162     1.0  0.72814  0.98654  0.74611  1.0000
  H   H1739     1.0  0.57605  0.88998  0.52834  1.0000
  H   H1740     1.0  0.53797  0.53655  0.95028  1.0000
  H   H1741     1.0  0.54016  0.88486  0.54112  1.0000
  H   H1742     1.0  0.67865  0.94083  0.75817  1.0000
  C   C2163     1.0  0.51977  0.80568  0.55159  1.0000
  H   H1743     1.0  0.73308  0.98469  0.72941  1.0000
  C   C2164     1.0  0.73828  0.78165  0.83010  1.0000
  H   H1744     1.0  0.50697  0.85399  0.68350  1.0000
  C   C2165     1.0  0.72436  0.78642  0.70858  1.0000
  C   C2166     1.0  0.59139  0.98969  0.54303  1.0000
  C   C2167     1.0  0.59333  0.69937  0.96553  1.0000
  C   C2168     1.0  0.58443  0.66257  0.96683  1.0000
  C   C2169     1.0  0.59679  0.67816  0.97341  1.0000
  C   C2170     1.0  0.57788  0.70484  0.95126  1.0000
  H   H1745     1.0  0.61464  0.74707  0.52578  1.0000
  H   H1746     1.0  0.65855  0.54340  0.97037  1.0000
  C   C2171     1.0  0.53913  0.97766  0.53389  1.0000
  H   H1747     1.0  0.71495  0.75834  0.98672  1.0000
  C   C2172     1.0  0.49724  0.55651  0.97885  1.0000
  H   H1748     1.0  0.54289  0.63082  0.97921  1.0000
  H   H1749     1.0  0.67999  0.73210  0.97797  1.0000
  C   C2173     1.0  0.70922  0.69100  0.74170  1.0000
  C   C2174     1.0  0.50111  0.95466  0.65303  1.0000
  H   H1750     1.0  0.50699  0.89093  0.66797  1.0000
  C   C2175     1.0  0.55789  0.71827  0.52184  1.0000
  C   C2176     1.0  0.67555  0.99295  0.65121  1.0000
  S   S307      1.0  0.73208  0.88545  0.78478  1.0000
  C   C2177     1.0  0.64951  0.72456  0.99325  1.0000
  C   C2178     1.0  0.60709  0.49502  0.87136  1.0000
  H   H1751     1.0  0.50180  0.56215  0.99357  1.0000
  P   P71       1.0  0.61740  0.67062  0.99107  1.0000
  C   C2179     1.0  0.56778  0.57917  0.99096  1.0000
  C   C2180     1.0  0.71622  0.99157  0.78925  1.0000
  H   H1752     1.0  0.49717  0.91854  0.69635  1.0000
  C   C2181     1.0  0.59757  0.99006  0.49706  1.0000
  C   C2182     1.0  0.57477  0.49767  0.96365  1.0000
  H   H1753     1.0  0.55167  0.49559  0.85790  1.0000
  C   C2183     1.0  0.61131  0.98255  0.54930  1.0000
  H   H1754     1.0  0.49786  0.93866  0.52833  1.0000
  H   H1755     1.0  0.71171  0.99333  0.80609  1.0000
  H   H1756     1.0  0.49305  0.57435  0.92677  1.0000
  H   H1757     1.0  0.74169  0.82607  0.85593  1.0000
  C   C2184     1.0  0.74259  0.79644  0.79339  1.0000
  H   H1758     1.0  0.52995  0.53373  0.99551  1.0000
  H   H1759     1.0  0.54406  0.66608  0.99407  1.0000
  Fe  Fe157     1.0  0.88413  0.40614  0.39991  1.0000
  S   S308      1.0  0.85540  0.38748  0.39852  1.0000
  S   S309      1.0  0.88447  0.44005  0.38450  1.0000
  Fe  Fe158     1.0  0.90677  0.36809  0.42235  1.0000
  S   S310      1.0  0.88020  0.34652  0.42234  1.0000
  S   S311      1.0  0.93582  0.35653  0.43815  1.0000
  Fe  Fe159     1.0  0.87761  0.36039  0.38824  1.0000
  S   S312      1.0  0.87547  0.34552  0.35628  1.0000
  Fe  Fe160     1.0  0.86070  0.37536  0.43263  1.0000
  S   S313      1.0  0.83664  0.37700  0.46139  1.0000
  S   S314      1.0  0.90612  0.37987  0.38772  1.0000
  S   S315      1.0  0.88760  0.39599  0.43445  1.0000
  C   C2185     1.0  0.97171  0.32464  0.22405  1.0000
  C   C2186     1.0  0.75446  0.02267  0.31993  1.0000
  S   S316      1.0  0.78361  0.23675  0.13860  1.0000
  C   C2187     1.0  0.81643  0.43111  0.46305  1.0000
  H   H1760     1.0  0.95232  0.44263  0.37824  1.0000
  C   C2188     1.0  0.83556  0.43319  0.42116  1.0000
  H   H1761     1.0  0.89955  0.39297  0.48325  1.0000
  C   C2189     1.0  0.75217  0.28983  0.02525  1.0000
  H   H1762     1.0  0.95309  0.35654  0.48247  1.0000
  C   C2190     1.0  0.97616  0.39026  0.37172  1.0000
  C   C2191     1.0  0.77012  0.33760  0.01479  1.0000
  Fe  Fe161     1.0  0.84964  0.20468  0.26856  1.0000
  S   S317      1.0  0.86079  0.22053  0.23643  1.0000
  S   S318      1.0  0.84160  0.16978  0.26983  1.0000
  Fe  Fe162     1.0  0.85454  0.24510  0.29178  1.0000
  S   S319      1.0  0.86468  0.26389  0.26112  1.0000
  S   S320      1.0  0.85337  0.25585  0.32590  1.0000
  Fe  Fe163     1.0  0.83925  0.24791  0.24629  1.0000
  S   S321      1.0  0.81544  0.26566  0.22522  1.0000
  Fe  Fe164     1.0  0.88552  0.23499  0.25375  1.0000
  S   S322      1.0  0.91898  0.23796  0.23747  1.0000
  S   S323      1.0  0.82718  0.23156  0.27785  1.0000
  S   S324      1.0  0.87629  0.21664  0.28495  1.0000
  C   C2192     1.0  0.94377  0.23953  0.24825  1.0000
  C   C2193     1.0  0.94556  0.24033  0.27024  1.0000
  C   C2194     1.0  0.96542  0.24189  0.27805  1.0000
  C   C2195     1.0  0.92845  0.19726  0.30062  1.0000
  C   C2196     1.0  0.96224  0.24008  0.23422  1.0000
  H   H1763     1.0  0.93157  0.23989  0.28119  1.0000
  H   H1764     1.0  0.92549  0.45402  0.46923  1.0000
  H   H1765     1.0  0.96109  0.23956  0.21714  1.0000
  C   C2197     1.0  0.77558  0.14344  0.28540  1.0000
  C   C2198     1.0  0.79253  0.13056  0.27734  1.0000
  C   C2199     1.0  0.81270  0.13873  0.27316  1.0000
  C   C2200     1.0  0.81606  0.16003  0.27632  1.0000
  C   C2201     1.0  0.79904  0.17297  0.28410  1.0000
  C   C2202     1.0  0.77904  0.16462  0.28894  1.0000
  H   H1766     1.0  0.79015  0.11424  0.27465  1.0000
  H   H1767     1.0  0.82571  0.12853  0.26721  1.0000
  H   H1768     1.0  0.80133  0.18935  0.28668  1.0000
  H   H1769     1.0  0.76614  0.17469  0.29536  1.0000
  C   C2203     1.0  0.99181  0.12204  0.36447  1.0000
  C   C2204     1.0  0.79123  0.24385  0.16362  1.0000
  C   C2205     1.0  0.81018  0.23495  0.17108  1.0000
  C   C2206     1.0  0.81725  0.24076  0.19043  1.0000
  C   C2207     1.0  0.80586  0.25614  0.20213  1.0000
  C   C2208     1.0  0.78690  0.26507  0.19467  1.0000
  C   C2209     1.0  0.77945  0.25874  0.17570  1.0000
  H   H1770     1.0  0.81938  0.22342  0.16187  1.0000
  H   H1771     1.0  0.83186  0.23389  0.19597  1.0000
  H   H1772     1.0  0.77802  0.27710  0.20351  1.0000
  H   H1773     1.0  0.76494  0.26585  0.17009  1.0000
  C   C2210     1.0  0.96147  0.47839  0.46135  1.0000
  H   H1774     1.0  0.96840  0.10979  0.34668  1.0000
  H   H1775     1.0  0.96002  0.36193  0.38088  1.0000
  H   H1776     1.0  0.77905  0.29645  0.12382  1.0000
  H   H1777     1.0  0.96427  0.32604  0.40768  1.0000
  H   H1778     1.0  0.98749  0.29852  0.47483  1.0000
  C   C2211     1.0  0.86938  0.32032  0.34847  1.0000
  C   C2212     1.0  0.86873  0.31766  0.32644  1.0000
  C   C2213     1.0  0.86408  0.29805  0.31921  1.0000
  C   C2214     1.0  0.85990  0.28080  0.33403  1.0000
  C   C2215     1.0  0.86066  0.28341  0.35608  1.0000
  C   C2216     1.0  0.86540  0.30303  0.36329  1.0000
  H   H1779     1.0  0.87147  0.33103  0.31494  1.0000
  H   H1780     1.0  0.86335  0.29640  0.30224  1.0000
  H   H1781     1.0  0.85734  0.27020  0.36767  1.0000
  H   H1782     1.0  0.86570  0.30485  0.38028  1.0000
  C   C2217     1.0  0.88822  0.46320  0.39764  1.0000
  C   C2218     1.0  0.98873  0.31004  0.22647  1.0000
  C   C2219     1.0  0.89984  0.46258  0.41563  1.0000
  C   C2220     1.0  0.76861  0.37591  0.01534  1.0000
  H   H1783     1.0  0.90626  0.44753  0.42230  1.0000
  H   H1784     1.0  0.91485  0.35717  0.49089  1.0000
  C   C2221     1.0  0.96351  0.41154  0.42032  1.0000
  C   C2222     1.0  0.94837  0.39636  0.42496  1.0000
  C   C2223     1.0  0.95420  0.37601  0.43357  1.0000
  C   C2224     1.0  0.97493  0.37110  0.43831  1.0000
  C   C2225     1.0  0.75158  0.06395  0.19616  1.0000
  H   H1785     1.0  0.95904  0.42718  0.41346  1.0000
  H   H1786     1.0  0.93229  0.40033  0.42152  1.0000
  H   H1787     1.0  0.97071  0.43102  0.46047  1.0000
  H   H1788     1.0  0.80359  0.08404  0.21265  1.0000
  H   H1789     1.0  0.79042  0.04992  0.22903  1.0000
  C   C2226     1.0  0.77283  0.29989  0.10827  1.0000
  C   C2227     1.0  0.78486  0.29454  0.08957  1.0000
  C   C2228     1.0  0.77653  0.29821  0.06958  1.0000
  H   H1790     1.0  0.74781  0.00288  0.37997  1.0000
  C   C2229     1.0  0.99007  0.32807  0.32138  1.0000
  C   C2230     1.0  0.87422  0.44163  0.47904  1.0000
  H   H1791     1.0  0.76465  0.15548  0.16562  1.0000
  C   C2231     1.0  0.94209  0.47479  0.36924  1.0000
  H   H1792     1.0  0.80915  0.42913  0.47921  1.0000
  H   H1793     1.0  0.84313  0.43378  0.40498  1.0000
  C   C2232     1.0  0.78945  0.07823  0.20737  1.0000
  H   H1794     1.0  0.78240  0.09411  0.14217  1.0000
  C   C2233     1.0  0.74879  0.19852  0.18426  1.0000
  C   C2234     1.0  0.74948  0.29297  0.00318  1.0000
  P   P72       1.0  0.84783  0.45330  0.47911  1.0000
  C   C2235     1.0  0.78204  0.05897  0.21673  1.0000
  Fe  Fe165     1.0  0.75010  0.24002  0.12811  1.0000
  C   C2236     1.0  0.97794  0.40397  0.48171  1.0000
  H   H1795     1.0  0.99264  0.10815  0.37571  1.0000
  H   H1796     1.0  0.97044  0.22587  0.37785  1.0000
  H   H1797     1.0  0.86046  0.44823  0.43381  1.0000
  H   H1798     1.0  0.77425  0.39118  0.00909  1.0000
  C   C2237     1.0  0.99004  0.38625  0.43357  1.0000
  C   C2238     1.0  0.98452  0.40617  0.42381  1.0000
  H   H1799     1.0  0.85816  0.08271  0.16388  1.0000
  H   H1800     1.0  0.80049  0.28717  0.09067  1.0000
  H   H1801     1.0  0.78609  0.29405  0.05525  1.0000
  C   C2239     1.0  0.91206  0.44445  0.47327  1.0000
  H   H1802     1.0  0.79278  0.41381  0.45044  1.0000
  C   C2240     1.0  0.98384  0.24279  0.26404  1.0000
  C   C2241     1.0  0.76516  0.14434  0.15335  1.0000
  H   H1803     1.0  0.96349  0.40038  0.37856  1.0000
  H   H1804     1.0  0.75361  0.22869  0.31486  1.0000
  C   C2242     1.0  0.87728  0.41958  0.48224  1.0000
  C   C2243     1.0  0.83544  0.44130  0.45848  1.0000
  C   C2244     1.0  0.75795  0.13760  0.20729  1.0000
  P   P73       1.0  0.74487  0.31104  0.04255  1.0000
  C   C2245     1.0  0.75651  0.23399  0.29804  1.0000
  H   H1805     1.0  0.93056  0.41489  0.47527  1.0000
  C   C2246     1.0  0.95955  0.49175  0.42434  1.0000
  C   C2247     1.0  0.78096  0.20201  0.20102  1.0000
  C   C2248     1.0  0.77068  0.19633  0.18369  1.0000
  C   C2249     1.0  0.76642  0.15996  0.23446  1.0000
  H   H1806     1.0  0.92562  0.47127  0.37000  1.0000
  H   H1807     1.0  0.74922  0.09268  0.17595  1.0000
  C   C2250     1.0  0.76949  0.21054  0.21864  1.0000
  C   C2251     1.0  0.98739  0.32862  0.48866  1.0000
  C   C2252     1.0  0.94329  0.17099  0.27682  1.0000
  C   C2253     1.0  0.77270  0.24757  0.29162  1.0000
  H   H1808     1.0  0.96654  0.24255  0.29510  1.0000
  H   H1809     1.0  0.96359  0.39671  0.47915  1.0000
  H   H1810     1.0  0.94842  0.20693  0.32323  1.0000
  H   H1811     1.0  0.97105  0.46024  0.43393  1.0000
  C   C2254     1.0  0.77627  0.25464  0.27001  1.0000
  C   C2255     1.0  0.76404  0.24776  0.25472  1.0000
  H   H1812     1.0  0.79790  0.20021  0.20064  1.0000
  H   H1813     1.0  0.77969  0.19061  0.16967  1.0000
  C   C2256     1.0  0.76424  0.25330  0.02022  1.0000
  C   C2257     1.0  0.80700  0.42231  0.44670  1.0000
  H   H1814     1.0  0.77793  0.21487  0.23174  1.0000
  C   C2258     1.0  0.75581  0.30660  0.06826  1.0000
  H   H1815     1.0  0.86394  0.40969  0.48475  1.0000
  C   C2259     1.0  0.76582  0.11621  0.12099  1.0000
  H   H1816     1.0  0.99092  0.32967  0.28678  1.0000
  H   H1817     1.0  0.78249  0.25266  0.30336  1.0000
  H   H1818     1.0  0.78874  0.26532  0.26503  1.0000
  H   H1819     1.0  0.76714  0.25341  0.23802  1.0000
  H   H1820     1.0  0.80945  0.41625  0.41317  1.0000
  C   C2260     1.0  0.75263  0.30934  0.10693  1.0000
  C   C2261     1.0  0.96466  0.47531  0.43941  1.0000
  C   C2262     1.0  0.81649  0.42349  0.42574  1.0000
  C   C2263     1.0  0.98477  0.48383  0.36738  1.0000
  C   C2264     1.0  0.75390  0.33635  0.03139  1.0000
  H   H1821     1.0  0.97493  0.19476  0.20781  1.0000
  C   C2265     1.0  0.84786  0.49152  0.45294  1.0000
  H   H1822     1.0  0.75374  0.06760  0.35863  1.0000
  C   C2266     1.0  0.86139  0.35438  0.49020  1.0000
  C   C2267     1.0  0.84578  0.37048  0.48709  1.0000
  C   C2268     1.0  0.98970  0.15799  0.33528  1.0000
  S   S325      1.0  0.75095  0.02849  0.26546  1.0000
  C   C2269     1.0  0.95720  0.45862  0.37387  1.0000
  H   H1823     1.0  0.79924  0.16308  0.23734  1.0000
  P   P74       1.0  0.98856  0.18131  0.31672  1.0000
  H   H1824     1.0  0.96638  0.14115  0.32107  1.0000
  C   C2270     1.0  0.95891  0.19549  0.17879  1.0000
  C   C2271     1.0  0.95990  0.19454  0.20106  1.0000
  C   C2272     1.0  0.94142  0.19392  0.21464  1.0000
  C   C2273     1.0  0.92193  0.19430  0.20604  1.0000
  C   C2274     1.0  0.92077  0.19517  0.18368  1.0000
  C   C2275     1.0  0.93943  0.19590  0.17010  1.0000
  P   P75       1.0  0.89542  0.19659  0.17272  1.0000
  C   C2276     1.0  0.88418  0.22351  0.17218  1.0000
  C   C2277     1.0  0.89847  0.18778  0.14580  1.0000
  C   C2278     1.0  0.90375  0.20221  0.12823  1.0000
  C   C2279     1.0  0.90596  0.19555  0.10734  1.0000
  C   C2280     1.0  0.90311  0.17441  0.10386  1.0000
  C   C2281     1.0  0.89821  0.15987  0.12128  1.0000
  C   C2282     1.0  0.89600  0.16648  0.14219  1.0000
  C   C2283     1.0  0.86899  0.23031  0.15784  1.0000
  C   C2284     1.0  0.85950  0.25078  0.15818  1.0000
  C   C2285     1.0  0.86468  0.26441  0.17319  1.0000
  C   C2286     1.0  0.87975  0.25776  0.18750  1.0000
  C   C2287     1.0  0.88956  0.23748  0.18691  1.0000
  C   C2288     1.0  0.87829  0.17939  0.18967  1.0000
  C   C2289     1.0  0.88632  0.15994  0.19885  1.0000
  C   C2290     1.0  0.87345  0.14719  0.21303  1.0000
  C   C2291     1.0  0.85254  0.15380  0.21822  1.0000
  C   C2292     1.0  0.84436  0.17296  0.20894  1.0000
  C   C2293     1.0  0.85709  0.18564  0.19458  1.0000
  H   H1825     1.0  0.97326  0.19624  0.16827  1.0000
  C   C2294     1.0  0.75287  0.37473  0.03226  1.0000
  H   H1826     1.0  0.94209  0.19405  0.23187  1.0000
  H   H1827     1.0  0.90774  0.19460  0.21687  1.0000
  H   H1828     1.0  0.93905  0.19697  0.15282  1.0000
  H   H1829     1.0  0.90616  0.21863  0.13065  1.0000
  H   H1830     1.0  0.90985  0.20682  0.09384  1.0000
  H   H1831     1.0  0.90476  0.16929  0.08765  1.0000
  H   H1832     1.0  0.89612  0.14345  0.11855  1.0000
  H   H1833     1.0  0.89241  0.15493  0.15543  1.0000
  H   H1834     1.0  0.86401  0.21966  0.14677  1.0000
  H   H1835     1.0  0.84742  0.25579  0.14745  1.0000
  H   H1836     1.0  0.85662  0.27991  0.17411  1.0000
  H   H1837     1.0  0.88354  0.26812  0.19943  1.0000
  H   H1838     1.0  0.90093  0.23266  0.19836  1.0000
  H   H1839     1.0  0.90266  0.15485  0.19546  1.0000
  H   H1840     1.0  0.87982  0.13252  0.22060  1.0000
  H   H1841     1.0  0.84285  0.14443  0.23001  1.0000
  H   H1842     1.0  0.82838  0.17841  0.21359  1.0000
  H   H1843     1.0  0.85045  0.20059  0.18799  1.0000
  C   C2295     1.0  0.75609  0.15062  0.13419  1.0000
  H   H1844     1.0  0.75947  0.26615  0.05092  1.0000
  C   C2296     1.0  0.76317  0.05179  0.21103  1.0000
  H   H1845     1.0  0.75711  0.03720  0.21876  1.0000
  C   C2297     1.0  0.78779  0.15587  0.22891  1.0000
  C   C2298     1.0  0.92650  0.18461  0.28366  1.0000
  H   H1846     1.0  0.76156  0.17009  0.24724  1.0000
  H   H1847     1.0  0.81486  0.15009  0.16883  1.0000
  C   C2299     1.0  0.76801  0.03928  0.31541  1.0000
  C   C2300     1.0  0.96414  0.18276  0.30394  1.0000
  C   C2301     1.0  0.94722  0.19651  0.31061  1.0000
  C   C2302     1.0  0.76786  0.05535  0.32946  1.0000
  C   C2303     1.0  0.96203  0.17003  0.28691  1.0000
  H   H1848     1.0  0.77807  0.06846  0.32565  1.0000
  H   H1849     1.0  0.96545  0.46556  0.47282  1.0000
  H   H1850     1.0  0.97888  0.34148  0.32281  1.0000
  C   C2304     1.0  0.89755  0.41007  0.48142  1.0000
  C   C2305     1.0  0.96234  0.31943  0.37446  1.0000
  C   C2306     1.0  0.95452  0.32075  0.39600  1.0000
  C   C2307     1.0  0.93370  0.31612  0.40250  1.0000
  C   C2308     1.0  0.92055  0.31008  0.38762  1.0000
  C   C2309     1.0  0.92828  0.30840  0.36626  1.0000
  C   C2310     1.0  0.94906  0.31317  0.35966  1.0000
  C   C2311     1.0  0.77504  0.10991  0.14010  1.0000
  H   H1851     1.0  0.81088  0.13845  0.20969  1.0000
  H   H1852     1.0  0.87480  0.11726  0.15639  1.0000
  P   P76       1.0  0.98897  0.32653  0.36605  1.0000
  C   C2312     1.0  0.98217  0.24158  0.24204  1.0000
  C   C2313     1.0  0.90368  0.48157  0.42462  1.0000
  H   H1853     1.0  0.88992  0.47112  0.47144  1.0000
  H   H1854     1.0  0.91203  0.18547  0.27573  1.0000
  H   H1855     1.0  0.85288  0.15097  0.15868  1.0000
  C   C2314     1.0  0.77729  0.35734  0.00668  1.0000
  H   H1856     1.0  0.82012  0.08163  0.17402  1.0000
  H   H1857     1.0  0.91551  0.20800  0.30579  1.0000
  C   C2315     1.0  0.89177  0.45409  0.47454  1.0000
  H   H1858     1.0  0.97939  0.35551  0.44534  1.0000
  H   H1859     1.0  0.92757  0.31775  0.41902  1.0000
  H   H1860     1.0  0.90425  0.30706  0.39255  1.0000
  H   H1861     1.0  0.91790  0.30384  0.35479  1.0000
  H   H1862     1.0  0.95451  0.31241  0.34298  1.0000
  C   C2316     1.0  0.88908  0.30595  0.23839  1.0000
  C   C2317     1.0  0.87303  0.32072  0.24455  1.0000
  C   C2318     1.0  0.87554  0.33361  0.26118  1.0000
  C   C2319     1.0  0.89410  0.33178  0.27163  1.0000
  C   C2320     1.0  0.91019  0.31680  0.26566  1.0000
  C   C2321     1.0  0.90746  0.30373  0.24911  1.0000
  P   P77       1.0  0.93391  0.31338  0.27949  1.0000
  C   C2322     1.0  0.95556  0.31180  0.25894  1.0000
  C   C2323     1.0  0.93636  0.33596  0.29498  1.0000
  C   C2324     1.0  0.94933  0.35254  0.28723  1.0000
  C   C2325     1.0  0.95109  0.36975  0.29960  1.0000
  C   C2326     1.0  0.93996  0.37054  0.31976  1.0000
  C   C2327     1.0  0.92689  0.35425  0.32745  1.0000
  C   C2328     1.0  0.92496  0.33712  0.31508  1.0000
  C   C2329     1.0  0.97265  0.29705  0.26111  1.0000
  H   H1863     1.0  0.74868  0.16636  0.13194  1.0000
  C   C2330     1.0  0.95519  0.32551  0.24017  1.0000
  C   C2331     1.0  0.93254  0.29020  0.29832  1.0000
  C   C2332     1.0  0.94882  0.28502  0.31179  1.0000
  C   C2333     1.0  0.94726  0.26811  0.32751  1.0000
  C   C2334     1.0  0.92928  0.25634  0.33008  1.0000
  C   C2335     1.0  0.91293  0.26144  0.31687  1.0000
  C   C2336     1.0  0.91451  0.27826  0.30104  1.0000
  H   H1864     1.0  0.88698  0.29566  0.22581  1.0000
  H   H1865     1.0  0.85850  0.32190  0.23670  1.0000
  H   H1866     1.0  0.86297  0.34485  0.26619  1.0000
  H   H1867     1.0  0.89563  0.34190  0.28447  1.0000
  H   H1868     1.0  0.91940  0.29159  0.24468  1.0000
  H   H1869     1.0  0.95811  0.35232  0.27172  1.0000
  H   H1870     1.0  0.96107  0.38252  0.29357  1.0000
  H   H1871     1.0  0.94122  0.38386  0.32938  1.0000
  H   H1872     1.0  0.91798  0.35503  0.34295  1.0000
  H   H1873     1.0  0.91430  0.32493  0.32114  1.0000
  H   H1874     1.0  0.97335  0.28592  0.27501  1.0000
  H   H1875     1.0  0.91312  0.48106  0.43817  1.0000
  H   H1876     1.0  0.94207  0.33689  0.23800  1.0000
  H   H1877     1.0  0.96270  0.29417  0.31025  1.0000
  H   H1878     1.0  0.95997  0.26419  0.33770  1.0000
  H   H1879     1.0  0.92790  0.24335  0.34236  1.0000
  H   H1880     1.0  0.89887  0.25246  0.31896  1.0000
  H   H1881     1.0  0.90146  0.28194  0.29126  1.0000
  C   C2337     1.0  0.98197  0.42363  0.47102  1.0000
  C   C2338     1.0  0.84525  0.44157  0.43754  1.0000
  H   H1882     1.0  0.77813  0.03999  0.30057  1.0000
  C   C2339     1.0  0.84581  0.13582  0.16225  1.0000
  C   C2340     1.0  0.85809  0.11688  0.16094  1.0000
  C   C2341     1.0  0.84873  0.09741  0.16525  1.0000
  C   C2342     1.0  0.82715  0.09685  0.17122  1.0000
  C   C2343     1.0  0.81489  0.11582  0.17335  1.0000
  C   C2344     1.0  0.82426  0.13529  0.16814  1.0000
  P   P78       1.0  0.78700  0.11568  0.18079  1.0000
  H   H1883     1.0  0.76895  0.23762  0.02699  1.0000
  H   H1884     1.0  0.94176  0.16122  0.26365  1.0000
  H   H1885     1.0  0.74636  0.13048  0.19906  1.0000
  C   C2345     1.0  0.97710  0.14084  0.33354  1.0000
  H   H1886     1.0  0.98983  0.45062  0.37778  1.0000
  C   C2346     1.0  0.77825  0.09017  0.19182  1.0000
  H   H1887     1.0  0.97491  0.15938  0.28140  1.0000
  H   H1888     1.0  0.84585  0.48257  0.43937  1.0000
  H   H1889     1.0  0.86825  0.34599  0.47668  1.0000
  C   C2347     1.0  0.79429  0.14221  0.21289  1.0000
  C   C2348     1.0  0.77935  0.13336  0.20161  1.0000
  C   C2349     1.0  0.75890  0.26963  0.03378  1.0000
  H   H1890     1.0  0.77744  0.32338  0.00825  1.0000
  C   C2350     1.0  0.77455  0.12386  0.15651  1.0000
  C   C2351     1.0  0.97821  0.20661  0.35107  1.0000
  H   H1891     1.0  0.87153  0.48359  0.37489  1.0000
  C   C2352     1.0  0.75145  0.15081  0.22370  1.0000
  C   C2353     1.0  0.74752  0.21331  0.21905  1.0000
  C   C2354     1.0  0.97424  0.36830  0.37292  1.0000
  H   H1892     1.0  0.96666  0.19513  0.35668  1.0000
  S   S326      1.0  0.75010  0.13369  0.29222  1.0000
  C   C2355     1.0  0.75902  0.08309  0.18664  1.0000
  H   H1893     1.0  0.80537  0.46588  0.49508  1.0000
  H   H1894     1.0  0.97124  0.33519  0.20959  1.0000
  H   H1895     1.0  0.76596  0.10530  0.10848  1.0000
  C   C2356     1.0  0.99065  0.35502  0.36420  1.0000
  C   C2357     1.0  0.91495  0.42244  0.47675  1.0000
  H   H1896     1.0  0.75441  0.01075  0.30845  1.0000
  C   C2358     1.0  0.74813  0.23359  0.26089  1.0000
  S   S327      1.0  0.74594  0.09045  0.24824  1.0000
  C   C2359     1.0  0.98037  0.22394  0.36314  1.0000
  C   C2360     1.0  0.97841  0.46316  0.37330  1.0000
  C   C2361     1.0  0.98919  0.29629  0.24499  1.0000
  C   C2362     1.0  0.97817  0.12296  0.34810  1.0000
  C   C2363     1.0  0.99090  0.20411  0.33188  1.0000
  H   H1897     1.0  0.74906  0.14149  0.10331  1.0000
  C   C2364     1.0  0.88035  0.48295  0.38894  1.0000
  H   H1898     1.0  0.96145  0.48923  0.40746  1.0000
  C   C2365     1.0  0.75404  0.05488  0.34801  1.0000
  C   C2366     1.0  0.75631  0.13656  0.11805  1.0000
  C   C2367     1.0  0.74404  0.22728  0.28283  1.0000
  C   C2368     1.0  0.84879  0.48172  0.47380  1.0000
  C   C2369     1.0  0.76226  0.25678  0.99817  1.0000
  H   H1899     1.0  0.98987  0.28493  0.38949  1.0000
  C   C2370     1.0  0.74566  0.35501  0.04039  1.0000
  H   H1900     1.0  0.74636  0.38908  0.03921  1.0000
  H   H1901     1.0  0.74317  0.31335  0.12141  1.0000
  C   C2371     1.0  0.74422  0.31288  0.08699  1.0000
  C   C2372     1.0  0.85192  0.49417  0.49071  1.0000
  H   H1902     1.0  0.74307  0.30800  0.99644  1.0000
  Fe  Fe166     1.0  0.90622  0.40314  0.58888  1.0000
  S   S328      1.0  0.88893  0.41230  0.61973  1.0000
  S   S329      1.0  0.93820  0.41333  0.57616  1.0000
  Fe  Fe167     1.0  0.87223  0.37500  0.57817  1.0000
  S   S330      1.0  0.85211  0.38143  0.60851  1.0000
  S   S331      1.0  0.86657  0.35093  0.55463  1.0000
  Fe  Fe168     1.0  0.86085  0.41549  0.60043  1.0000
  S   S332      1.0  0.83517  0.44162  0.60156  1.0000
  Fe  Fe169     1.0  0.88204  0.37760  0.62526  1.0000
  S   S333      1.0  0.89127  0.35919  0.65612  1.0000
  S   S334      1.0  0.87877  0.40904  0.56893  1.0000
  S   S335      1.0  0.90148  0.36861  0.59551  1.0000
  Fe  Fe170     1.0  0.85957  0.21371  0.73952  1.0000
  S   S336      1.0  0.87897  0.21410  0.76792  1.0000
  S   S337      1.0  0.85166  0.18373  0.72451  1.0000
  Fe  Fe171     1.0  0.85507  0.26206  0.73400  1.0000
  S   S338      1.0  0.87290  0.26608  0.76268  1.0000
  S   S339      1.0  0.83981  0.28853  0.71286  1.0000
  Fe  Fe172     1.0  0.89599  0.24091  0.74948  1.0000
  S   S340      1.0  0.93012  0.25101  0.74781  1.0000
  Fe  Fe173     1.0  0.85467  0.23912  0.77900  1.0000
  S   S341      1.0  0.84283  0.23408  0.81431  1.0000
  S   S342      1.0  0.87877  0.23843  0.71990  1.0000
  S   S343      1.0  0.83468  0.23711  0.75147  1.0000
  C   C2373     1.0  0.95196  0.43138  0.67502  1.0000
  H   H1903     1.0  0.96934  0.46072  0.51136  1.0000
  H   H1904     1.0  0.95737  0.39685  0.64970  1.0000
  C   C2374     1.0  0.98078  0.20811  0.75073  1.0000
  H   H1905     1.0  0.79743  0.29828  0.73577  1.0000
  C   C2375     1.0  0.98481  0.46164  0.73903  1.0000
  S   S344      1.0  0.78128  0.11480  0.73540  1.0000
  H   H1906     1.0  0.85576  0.47013  0.55656  1.0000
  C   C2376     1.0  0.76202  0.14798  0.79850  1.0000
  C   C2377     1.0  0.81956  0.24582  0.82691  1.0000
  C   C2378     1.0  0.80968  0.23514  0.84522  1.0000
  C   C2379     1.0  0.79100  0.24372  0.85556  1.0000
  C   C2380     1.0  0.78245  0.26348  0.84813  1.0000
  C   C2381     1.0  0.79272  0.27452  0.83024  1.0000
  C   C2382     1.0  0.81118  0.26573  0.81966  1.0000
  H   H1907     1.0  0.81639  0.22002  0.85131  1.0000
  H   H1908     1.0  0.78345  0.23521  0.86951  1.0000
  H   H1909     1.0  0.78639  0.28997  0.82457  1.0000
  H   H1910     1.0  0.81904  0.27444  0.80605  1.0000
  C   C2383     1.0  0.83064  0.16610  0.72851  1.0000
  C   C2384     1.0  0.83374  0.14695  0.71866  1.0000
  C   C2385     1.0  0.81845  0.13178  0.72127  1.0000
  C   C2386     1.0  0.79940  0.13542  0.73349  1.0000
  C   C2387     1.0  0.79583  0.15481  0.74319  1.0000
  C   C2388     1.0  0.81152  0.17009  0.74085  1.0000
  H   H1911     1.0  0.84834  0.14360  0.70915  1.0000
  H   H1912     1.0  0.82149  0.11700  0.71368  1.0000
  H   H1913     1.0  0.78117  0.15797  0.75256  1.0000
  H   H1914     1.0  0.80885  0.18483  0.74855  1.0000
  C   C2389     1.0  0.95590  0.23880  0.74924  1.0000
  C   C2390     1.0  0.95996  0.21681  0.74980  1.0000
  C   C2391     1.0  0.75847  0.26430  0.75063  1.0000
  C   C2392     1.0  0.97290  0.25187  0.74992  1.0000
  H   H1915     1.0  0.94712  0.20652  0.74929  1.0000
  C   C2393     1.0  0.75912  0.21115  0.74562  1.0000
  H   H1916     1.0  0.97005  0.26889  0.74946  1.0000
  C   C2394     1.0  0.87695  0.33889  0.67086  1.0000
  C   C2395     1.0  0.85595  0.33600  0.66777  1.0000
  C   C2396     1.0  0.84480  0.32046  0.68069  1.0000
  C   C2397     1.0  0.85465  0.30739  0.69650  1.0000
  C   C2398     1.0  0.87580  0.30995  0.69924  1.0000
  C   C2399     1.0  0.88679  0.32581  0.68665  1.0000
  H   H1917     1.0  0.84818  0.34613  0.65585  1.0000
  H   H1918     1.0  0.82842  0.31868  0.67853  1.0000
  H   H1919     1.0  0.88353  0.30011  0.71145  1.0000
  H   H1920     1.0  0.90292  0.32809  0.68934  1.0000
  C   C2400     1.0  0.85881  0.35929  0.52869  1.0000
  C   C2401     1.0  0.86744  0.34844  0.51099  1.0000
  H   H1921     1.0  0.82688  0.26113  0.53807  1.0000
  H   H1922     1.0  0.92192  0.38068  0.55221  1.0000
  H   H1923     1.0  0.85858  0.43054  0.52062  1.0000
  C   C2402     1.0  0.84379  0.37598  0.52547  1.0000
  H   H1924     1.0  0.87898  0.33546  0.51335  1.0000
  H   H1925     1.0  0.96057  0.32499  0.75882  1.0000
  H   H1926     1.0  0.84066  0.24750  0.69408  1.0000
  H   H1927     1.0  0.83690  0.38432  0.53900  1.0000
  C   C2403     1.0  0.83638  0.46829  0.60790  1.0000
  C   C2404     1.0  0.99155  0.40878  0.60641  1.0000
  C   C2405     1.0  0.87720  0.30569  0.59816  1.0000
  H   H1928     1.0  0.86986  0.47130  0.60179  1.0000
  H   H1929     1.0  0.80297  0.47041  0.61552  1.0000
  H   H1930     1.0  0.95894  0.48175  0.68698  1.0000
  C   C2406     1.0  0.97730  0.41155  0.59051  1.0000
  C   C2407     1.0  0.95586  0.40932  0.59604  1.0000
  C   C2408     1.0  0.94871  0.40398  0.61739  1.0000
  C   C2409     1.0  0.96293  0.40136  0.63329  1.0000
  C   C2410     1.0  0.76765  0.14487  0.68752  1.0000
  H   H1931     1.0  0.93227  0.40167  0.62171  1.0000
  H   H1932     1.0  0.87705  0.28783  0.65103  1.0000
  C   C2411     1.0  0.74714  0.21268  0.76539  1.0000
  H   H1933     1.0  0.78525  0.46060  0.53058  1.0000
  H   H1934     1.0  0.96335  0.23877  0.64629  1.0000
  C   C2412     1.0  0.93869  0.47725  0.51041  1.0000
  H   H1935     1.0  0.76273  0.28908  0.72519  1.0000
  C   C2413     1.0  0.91601  0.36902  0.52213  1.0000
  C   C2414     1.0  0.76628  0.14489  0.83663  1.0000
  C   C2415     1.0  0.94970  0.26499  0.82035  1.0000
  C   C2416     1.0  0.98323  0.28655  0.79201  1.0000
  H   H1936     1.0  0.79885  0.27790  0.56199  1.0000
  C   C2417     1.0  0.91347  0.48143  0.63199  1.0000
  H   H1937     1.0  0.96029  0.37907  0.54478  1.0000
  H   H1938     1.0  0.77243  0.48231  0.59667  1.0000
  C   C2418     1.0  0.83691  0.38117  0.50483  1.0000
  C   C2419     1.0  0.93876  0.26087  0.80278  1.0000
  C   C2420     1.0  0.91749  0.25645  0.80563  1.0000
  C   C2421     1.0  0.90685  0.25624  0.82606  1.0000
  C   C2422     1.0  0.91755  0.26044  0.84369  1.0000
  C   C2423     1.0  0.93890  0.26476  0.84089  1.0000
  H   H1939     1.0  0.90583  0.48842  0.51191  1.0000
  H   H1940     1.0  0.89220  0.44010  0.69043  1.0000
  P   P79       1.0  0.98780  0.36738  0.50716  1.0000
  H   H1941     1.0  0.75482  0.11409  0.69376  1.0000
  C   C2424     1.0  0.85497  0.47935  0.60644  1.0000
  H   H1942     1.0  0.85580  0.20652  0.64291  1.0000
  C   C2425     1.0  0.98976  0.27097  0.85795  1.0000
  H   H1943     1.0  0.78358  0.13896  0.69011  1.0000
  H   H1944     1.0  0.93869  0.46107  0.71577  1.0000
  H   H1945     1.0  0.89917  0.37021  0.52548  1.0000
  C   C2426     1.0  0.96717  0.35087  0.62074  1.0000
  H   H1946     1.0  0.95220  0.30233  0.79198  1.0000
  C   C2427     1.0  0.89668  0.31487  0.59579  1.0000
  C   C2428     1.0  0.92487  0.36182  0.50267  1.0000
  C   C2429     1.0  0.82741  0.32442  0.62386  1.0000
  C   C2430     1.0  0.95069  0.37397  0.53292  1.0000
  H   H1947     1.0  0.94675  0.26083  0.78688  1.0000
  H   H1948     1.0  0.90929  0.25299  0.79196  1.0000
  H   H1949     1.0  0.89035  0.25269  0.82818  1.0000
  H   H1950     1.0  0.90927  0.26020  0.85954  1.0000
  H   H1951     1.0  0.94685  0.26779  0.85480  1.0000
  H   H1952     1.0  0.80460  0.27985  0.64684  1.0000
  C   C2431     1.0  0.92888  0.37503  0.53722  1.0000
  H   H1953     1.0  0.98290  0.41535  0.57394  1.0000
  C   C2432     1.0  0.98509  0.33902  0.62684  1.0000
  C   C2433     1.0  0.84688  0.45485  0.65880  1.0000
  C   C2434     1.0  0.95255  0.45977  0.51514  1.0000
  C   C2435     1.0  0.94477  0.44069  0.52447  1.0000
  C   C2436     1.0  0.92317  0.43896  0.52932  1.0000
  C   C2437     1.0  0.90931  0.45635  0.52508  1.0000
  C   C2438     1.0  0.91698  0.47540  0.51555  1.0000
  C   C2439     1.0  0.83340  0.44858  0.50508  1.0000
  C   C2440     1.0  0.98436  0.22751  0.80656  1.0000
  H   H1954     1.0  0.91719  0.42410  0.53642  1.0000
  H   H1955     1.0  0.89256  0.45488  0.52879  1.0000
  C   C2441     1.0  0.88247  0.29492  0.63540  1.0000
  C   C2442     1.0  0.75462  0.27652  0.98968  1.0000
  C   C2443     1.0  0.92550  0.46858  0.59718  1.0000
  C   C2444     1.0  0.80695  0.29647  0.64239  1.0000
  H   H1956     1.0  0.82137  0.48568  0.54692  1.0000
  C   C2445     1.0  0.98397  0.32524  0.64545  1.0000
  H   H1957     1.0  0.87856  0.44221  0.65336  1.0000
  H   H1958     1.0  0.97330  0.32560  0.49906  1.0000
  H   H1959     1.0  0.96639  0.49395  0.53871  1.0000
  C   C2446     1.0  0.96639  0.47603  0.70133  1.0000
  H   H1960     1.0  0.93089  0.45557  0.58751  1.0000
  C   C2447     1.0  0.85371  0.48712  0.55283  1.0000
  C   C2448     1.0  0.92064  0.46468  0.61930  1.0000
  C   C2449     1.0  0.92308  0.48911  0.58751  1.0000
  C   C2450     1.0  0.87770  0.47456  0.66245  1.0000
  C   C2451     1.0  0.81866  0.27959  0.58790  1.0000
  H   H1961     1.0  0.86255  0.25342  0.55039  1.0000
  C   C2452     1.0  0.94094  0.44909  0.66597  1.0000
  H   H1962     1.0  0.83818  0.42545  0.55567  1.0000
  C   C2453     1.0  0.81055  0.44272  0.54531  1.0000
  C   C2454     1.0  0.85025  0.26055  0.56095  1.0000
  C   C2455     1.0  0.98907  0.46311  0.63146  1.0000
  C   C2456     1.0  0.96783  0.30103  0.78389  1.0000
  H   H1963     1.0  0.95510  0.44805  0.74917  1.0000
  C   C2457     1.0  0.97618  0.47760  0.61999  1.0000
  C   C2458     1.0  0.87015  0.29520  0.61786  1.0000
  H   H1964     1.0  0.95543  0.42715  0.52807  1.0000
  C   C2459     1.0  0.80127  0.45411  0.52825  1.0000
  C   C2460     1.0  0.90878  0.43770  0.68564  1.0000
  H   H1965     1.0  0.76569  0.24388  0.98779  1.0000
  C   C2461     1.0  0.91975  0.41968  0.69426  1.0000
  H   H1966     1.0  0.91146  0.40810  0.70496  1.0000
  H   H1967     1.0  0.94985  0.40248  0.69541  1.0000
  H   H1968     1.0  0.75957  0.04419  0.81007  1.0000
  C   C2462     1.0  0.82514  0.30278  0.62987  1.0000
  H   H1969     1.0  0.76165  0.14994  0.85258  1.0000
  H   H1970     1.0  0.77814  0.07157  0.82605  1.0000
  C   C2463     1.0  0.75674  0.15485  0.81898  1.0000
  C   C2464     1.0  0.79164  0.31166  0.64939  1.0000
  C   C2465     1.0  0.84827  0.22503  0.67016  1.0000
  H   H1971     1.0  0.84919  0.21148  0.68188  1.0000
  C   C2466     1.0  0.81728  0.47888  0.61402  1.0000
  C   C2467     1.0  0.85198  0.22228  0.64821  1.0000
  C   C2468     1.0  0.79419  0.33320  0.64365  1.0000
  H   H1972     1.0  0.81396  0.35624  0.62625  1.0000
  H   H1973     1.0  0.78242  0.34499  0.64918  1.0000
  H   H1974     1.0  0.90187  0.32305  0.58055  1.0000
  C   C2469     1.0  0.83117  0.43429  0.54234  1.0000
  C   C2470     1.0  0.83888  0.27546  0.59495  1.0000
  H   H1975     1.0  0.96871  0.42892  0.67087  1.0000
  H   H1976     1.0  0.82481  0.39362  0.50254  1.0000
  H   H1977     1.0  0.76089  0.19790  0.85596  1.0000
  C   C2471     1.0  0.86872  0.45589  0.65788  1.0000
  C   C2472     1.0  0.90181  0.30444  0.63303  1.0000
  C   C2473     1.0  0.98738  0.48023  0.70352  1.0000
  C   C2474     1.0  0.76693  0.21743  0.80357  1.0000
  C   C2475     1.0  0.78698  0.20819  0.79804  1.0000
  C   C2476     1.0  0.79773  0.19573  0.81341  1.0000
  C   C2477     1.0  0.78836  0.19201  0.83427  1.0000
  C   C2478     1.0  0.76823  0.20077  0.83979  1.0000
  C   C2479     1.0  0.81437  0.27434  0.56749  1.0000
  C   C2480     1.0  0.78656  0.25859  0.77432  1.0000
  C   C2481     1.0  0.79729  0.27502  0.76273  1.0000
  C   C2482     1.0  0.75607  0.19488  0.73255  1.0000
  C   C2483     1.0  0.76323  0.16653  0.68288  1.0000
  C   C2484     1.0  0.76717  0.25300  0.76824  1.0000
  C   C2485     1.0  0.85461  0.26579  0.58133  1.0000
  C   C2486     1.0  0.91925  0.45230  0.67102  1.0000
  C   C2487     1.0  0.95481  0.46444  0.71772  1.0000
  C   C2488     1.0  0.85084  0.23981  0.63315  1.0000
  H   H1978     1.0  0.80189  0.44046  0.56093  1.0000
  P   P80       1.0  0.84500  0.28324  0.62080  1.0000
  H   H1979     1.0  0.81699  0.47202  0.66373  1.0000
  H   H1980     1.0  0.87036  0.26261  0.58635  1.0000
  C   C2489     1.0  0.84592  0.26028  0.63998  1.0000
  H   H1981     1.0  0.79440  0.21077  0.78190  1.0000
  H   H1982     1.0  0.81352  0.18932  0.80923  1.0000
  H   H1983     1.0  0.79681  0.18257  0.84623  1.0000
  C   C2490     1.0  0.83389  0.47263  0.66372  1.0000
  C   C2491     1.0  0.84264  0.43722  0.52236  1.0000
  H   H1984     1.0  0.79348  0.25025  0.78790  1.0000
  H   H1985     1.0  0.81243  0.27913  0.76730  1.0000
  H   H1986     1.0  0.77585  0.17737  0.68175  1.0000
  C   C2492     1.0  0.78880  0.28586  0.74493  1.0000
  C   C2493     1.0  0.94133  0.41652  0.68894  1.0000
  C   C2494     1.0  0.83016  0.26489  0.55400  1.0000
  C   C2495     1.0  0.84261  0.26288  0.66210  1.0000
  C   C2496     1.0  0.94811  0.34895  0.63326  1.0000
  H   H1987     1.0  0.74331  0.26044  0.74594  1.0000
  C   C2497     1.0  0.76934  0.28056  0.73892  1.0000
  C   C2498     1.0  0.90901  0.31421  0.61321  1.0000
  C   C2499     1.0  0.96501  0.32374  0.65850  1.0000
  C   C2500     1.0  0.94696  0.33524  0.65189  1.0000
  P   P81       1.0  0.96310  0.30557  0.68226  1.0000
  C   C2501     1.0  0.95115  0.28252  0.67436  1.0000
  H   H1988     1.0  0.98251  0.26552  0.70077  1.0000
  C   C2502     1.0  0.84351  0.24532  0.67705  1.0000
  H   H1989     1.0  0.80625  0.28715  0.59793  1.0000
  H   H1990     1.0  0.83930  0.27849  0.66786  1.0000
  H   H1991     1.0  0.94936  0.46040  0.65515  1.0000
  H   H1992     1.0  0.85383  0.23723  0.61630  1.0000
  C   C2503     1.0  0.92972  0.27931  0.67982  1.0000
  C   C2504     1.0  0.92061  0.26148  0.67355  1.0000
  C   C2505     1.0  0.93274  0.24682  0.66155  1.0000
  C   C2506     1.0  0.95395  0.25014  0.65560  1.0000
  C   C2507     1.0  0.96309  0.26801  0.66183  1.0000
  C   C2508     1.0  0.94749  0.31683  0.70439  1.0000
  C   C2509     1.0  0.93975  0.30331  0.72171  1.0000
  C   C2510     1.0  0.92602  0.31125  0.73809  1.0000
  C   C2511     1.0  0.92047  0.33295  0.73766  1.0000
  C   C2512     1.0  0.92902  0.34674  0.72105  1.0000
  C   C2513     1.0  0.94266  0.33875  0.70453  1.0000
  H   H1993     1.0  0.93419  0.35820  0.62866  1.0000
  H   H1994     1.0  0.76582  0.19344  0.71769  1.0000
  C   C2514     1.0  0.98432  0.40404  0.62788  1.0000
  H   H1995     1.0  0.92214  0.44851  0.62630  1.0000
  H   H1996     1.0  0.93195  0.33379  0.66117  1.0000
  H   H1997     1.0  0.91099  0.30470  0.64671  1.0000
  C   C2515     1.0  0.75751  0.21339  0.82450  1.0000
  H   H1998     1.0  0.84110  0.32975  0.61393  1.0000
  H   H1999     1.0  0.92388  0.32177  0.61147  1.0000
  H   H2000     1.0  0.91989  0.29050  0.68889  1.0000
  H   H2001     1.0  0.90415  0.25897  0.67816  1.0000
  H   H2002     1.0  0.92570  0.23287  0.65696  1.0000
  P   P82       1.0  0.97745  0.26990  0.81642  1.0000
  H   H2003     1.0  0.75418  0.15519  0.78495  1.0000
  H   H2004     1.0  0.94383  0.28644  0.72213  1.0000
  H   H2005     1.0  0.91950  0.30041  0.75092  1.0000
  H   H2006     1.0  0.90948  0.33904  0.75015  1.0000
  H   H2007     1.0  0.92468  0.36355  0.72067  1.0000
  H   H2008     1.0  0.94897  0.34966  0.69174  1.0000
  C   C2516     1.0  0.84024  0.10056  0.86190  1.0000
  C   C2517     1.0  0.84210  0.07892  0.86826  1.0000
  C   C2518     1.0  0.83380  0.06420  0.85623  1.0000
  C   C2519     1.0  0.82344  0.07111  0.83796  1.0000
  C   C2520     1.0  0.82095  0.09289  0.83184  1.0000
  C   C2521     1.0  0.82988  0.10751  0.84365  1.0000
  P   P83       1.0  0.80844  0.10224  0.80786  1.0000
  C   C2522     1.0  0.78764  0.12213  0.81294  1.0000
  C   C2523     1.0  0.82901  0.11377  0.78984  1.0000
  C   C2524     1.0  0.84461  0.10062  0.77964  1.0000
  C   C2525     1.0  0.86088  0.10951  0.76610  1.0000
  C   C2526     1.0  0.86199  0.13155  0.76313  1.0000
  C   C2527     1.0  0.84695  0.14470  0.77383  1.0000
  C   C2528     1.0  0.83045  0.13591  0.78705  1.0000
  C   C2529     1.0  0.78164  0.12847  0.83368  1.0000
  H   H2009     1.0  0.75203  0.27878  0.97275  1.0000
  H   H2010     1.0  0.96851  0.22833  0.80166  1.0000
  C   C2530     1.0  0.81271  0.45714  0.50826  1.0000
  C   C2531     1.0  0.77736  0.13166  0.79550  1.0000
  C   C2532     1.0  0.79602  0.08137  0.79632  1.0000
  C   C2533     1.0  0.79905  0.07862  0.77422  1.0000
  C   C2534     1.0  0.78833  0.06326  0.76529  1.0000
  C   C2535     1.0  0.77442  0.05062  0.77830  1.0000
  C   C2536     1.0  0.77100  0.05351  0.80023  1.0000
  C   C2537     1.0  0.78157  0.06898  0.80919  1.0000
  H   H2011     1.0  0.84694  0.11198  0.87102  1.0000
  H   H2012     1.0  0.85017  0.07354  0.88238  1.0000
  H   H2013     1.0  0.83553  0.04739  0.86096  1.0000
  H   H2014     1.0  0.81768  0.05937  0.82859  1.0000
  H   H2015     1.0  0.82887  0.12432  0.83869  1.0000
  H   H2016     1.0  0.84407  0.08352  0.78201  1.0000
  H   H2017     1.0  0.87260  0.09935  0.75782  1.0000
  H   H2018     1.0  0.87436  0.13855  0.75240  1.0000
  H   H2019     1.0  0.84786  0.16180  0.77144  1.0000
  H   H2020     1.0  0.81894  0.14650  0.79499  1.0000
  H   H2021     1.0  0.78862  0.12084  0.84759  1.0000
  S   S345      1.0  0.75963  0.27540  0.86134  1.0000
  P   P84       1.0  0.90587  0.47618  0.66029  1.0000
  C   C2538     1.0  0.97252  0.31399  0.76513  1.0000
  H   H2022     1.0  0.78132  0.12646  0.77952  1.0000
  H   H2023     1.0  0.80899  0.08882  0.76360  1.0000
  H   H2024     1.0  0.79030  0.06169  0.74811  1.0000
  H   H2025     1.0  0.76574  0.03903  0.77130  1.0000
  H   H2026     1.0  0.77784  0.30674  0.65939  1.0000
  C   C2539     1.0  0.81199  0.33954  0.63076  1.0000
  C   C2540     1.0  0.98538  0.28292  0.83884  1.0000
  H   H2027     1.0  0.86757  0.30722  0.58465  1.0000
  C   C2541     1.0  0.94664  0.36113  0.49811  1.0000
  Fe  Fe174     1.0  0.74833  0.10576  0.74894  1.0000
  C   C2542     1.0  0.96405  0.45714  0.73652  1.0000
  H   H2028     1.0  0.96808  0.36169  0.60642  1.0000
  H   H2029     1.0  0.84004  0.44051  0.65485  1.0000
  H   H2030     1.0  0.77138  0.22199  0.74053  1.0000
  C   C2543     1.0  0.95976  0.36689  0.51336  1.0000
  C   C2544     1.0  0.84273  0.49156  0.66739  1.0000
  H   H2031     1.0  0.96966  0.47305  0.60572  1.0000
  H   H2032     1.0  0.98376  0.19110  0.75089  1.0000
  C   C2545     1.0  0.86457  0.49261  0.66657  1.0000
  H   H2033     1.0  0.97953  0.27040  0.65707  1.0000
  C   C2546     1.0  0.75112  0.49145  0.57235  1.0000
  H   H2034     1.0  0.89276  0.48485  0.70453  1.0000
  C   C2547     1.0  0.98856  0.29864  0.69208  1.0000
  H   H2035     1.0  0.74829  0.26407  0.81433  1.0000
  H   H2036     1.0  0.85319  0.48692  0.50678  1.0000
  H   H2037     1.0  0.98856  0.25390  0.85932  1.0000
  P   P85       1.0  0.75265  0.23232  0.78323  1.0000
  H   H2038     1.0  0.78973  0.35822  0.99378  1.0000
  H   H2039     1.0  0.98306  0.31468  0.82322  1.0000
  H   H2040     1.0  0.74498  0.16769  0.82122  1.0000
  H   H2041     1.0  0.92670  0.49203  0.57034  1.0000
  C   C2548     1.0  0.98664  0.30507  0.83765  1.0000
  C   C2549     1.0  0.77031  0.49128  0.58148  1.0000
  C   C2550     1.0  0.75145  0.13081  0.68946  1.0000
  H   H2042     1.0  0.88539  0.49328  0.55865  1.0000
  H   H2043     1.0  0.99023  0.19542  0.79754  1.0000
  H   H2044     1.0  0.99194  0.45609  0.75367  1.0000
  C   C2551     1.0  0.99258  0.31268  0.75439  1.0000
  Fe  Fe175     1.0  0.90364  0.60370  0.42133  1.0000
  S   S346      1.0  0.87122  0.61910  0.42170  1.0000
  S   S347      1.0  0.93154  0.62341  0.42204  1.0000
  Fe  Fe176     1.0  0.88867  0.55863  0.42034  1.0000
  S   S348      1.0  0.85493  0.57079  0.41978  1.0000
  S   S349      1.0  0.90089  0.52458  0.42815  1.0000
  Fe  Fe177     1.0  0.86735  0.59700  0.39612  1.0000
  S   S350      1.0  0.85283  0.60910  0.36530  1.0000
  Fe  Fe178     1.0  0.86222  0.59188  0.44521  1.0000
  S   S351      1.0  0.84169  0.59358  0.47636  1.0000
  S   S352      1.0  0.90058  0.58293  0.39455  1.0000
  S   S353      1.0  0.89507  0.57848  0.44708  1.0000
  H   H2045     1.0  0.78170  0.73797  0.03317  1.0000
  S   S354      1.0  0.78967  0.72277  0.14007  1.0000
  C   C2552     1.0  0.75906  0.70149  0.24827  1.0000
  H   H2046     1.0  0.75802  0.79365  0.19975  1.0000
  Fe  Fe179     1.0  0.86978  0.71655  0.29257  1.0000
  S   S355      1.0  0.88267  0.69912  0.26416  1.0000
  S   S356      1.0  0.87092  0.70317  0.32734  1.0000
  Fe  Fe180     1.0  0.86343  0.75823  0.26494  1.0000
  S   S357      1.0  0.87726  0.74364  0.23465  1.0000
  S   S358      1.0  0.85164  0.79300  0.26208  1.0000
  Fe  Fe181     1.0  0.85686  0.71656  0.24612  1.0000
  S   S359      1.0  0.83455  0.69926  0.22722  1.0000
  Fe  Fe182     1.0  0.90210  0.72768  0.25527  1.0000
  S   S360      1.0  0.93730  0.72005  0.24584  1.0000
  S   S361      1.0  0.84227  0.73177  0.27572  1.0000
  S   S362      1.0  0.88986  0.74461  0.28432  1.0000
  C   C2553     1.0  0.79590  0.51471  0.47763  1.0000
  Fe  Fe183     1.0  0.75512  0.72199  0.13272  1.0000
  H   H2047     1.0  0.78409  0.67486  0.01220  1.0000
  C   C2554     1.0  0.91242  0.52704  0.48963  1.0000
  H   H2048     1.0  0.76023  0.95043  0.26830  1.0000
  C   C2555     1.0  0.82657  0.80299  0.27247  1.0000
  C   C2556     1.0  0.81574  0.79294  0.29044  1.0000
  C   C2557     1.0  0.79673  0.80224  0.29941  1.0000
  C   C2558     1.0  0.78780  0.82119  0.28995  1.0000
  C   C2559     1.0  0.79835  0.83096  0.27161  1.0000
  C   C2560     1.0  0.81783  0.82210  0.26318  1.0000
  H   H2049     1.0  0.82241  0.77835  0.29776  1.0000
  H   H2050     1.0  0.78897  0.79473  0.31377  1.0000
  H   H2051     1.0  0.79180  0.84560  0.26421  1.0000
  H   H2052     1.0  0.82611  0.83005  0.24933  1.0000
  C   C2561     1.0  0.96001  0.72871  0.25681  1.0000
  C   C2562     1.0  0.95917  0.74647  0.26890  1.0000
  C   C2563     1.0  0.97781  0.75393  0.27555  1.0000
  H   H2053     1.0  0.94938  0.65929  0.38854  1.0000
  C   C2564     1.0  0.97972  0.71809  0.25222  1.0000
  H   H2054     1.0  0.94422  0.75484  0.27259  1.0000
  H   H2055     1.0  0.97693  0.76803  0.28437  1.0000
  H   H2056     1.0  0.98063  0.70437  0.24287  1.0000
  C   C2565     1.0  0.80115  0.71719  0.16506  1.0000
  C   C2566     1.0  0.82014  0.72630  0.16818  1.0000
  C   C2567     1.0  0.83018  0.72166  0.18738  1.0000
  C   C2568     1.0  0.82173  0.70722  0.20343  1.0000
  C   C2569     1.0  0.80288  0.69793  0.20018  1.0000
  C   C2570     1.0  0.79250  0.70306  0.18131  1.0000
  H   H2057     1.0  0.82731  0.73678  0.15554  1.0000
  H   H2058     1.0  0.84483  0.72870  0.18942  1.0000
  H   H2059     1.0  0.79642  0.68640  0.21217  1.0000
  H   H2060     1.0  0.77818  0.69555  0.17903  1.0000
  H   H2061     1.0  0.77589  0.82831  0.16314  1.0000
  H   H2062     1.0  0.77152  0.98700  0.27115  1.0000
  C   C2571     1.0  0.85937  0.63462  0.35381  1.0000
  C   C2572     1.0  0.87117  0.64769  0.36454  1.0000
  C   C2573     1.0  0.87470  0.66853  0.35608  1.0000
  C   C2574     1.0  0.86721  0.67634  0.33642  1.0000
  C   C2575     1.0  0.85618  0.66301  0.32516  1.0000
  C   C2576     1.0  0.85211  0.64227  0.33394  1.0000
  H   H2063     1.0  0.87712  0.64200  0.37966  1.0000
  H   H2064     1.0  0.88316  0.67867  0.36496  1.0000
  H   H2065     1.0  0.85055  0.66883  0.30989  1.0000
  H   H2066     1.0  0.84323  0.63214  0.32540  1.0000
  C   C2577     1.0  0.78570  0.69171  0.00857  1.0000
  C   C2578     1.0  0.78277  0.81407  0.15653  1.0000
  C   C2579     1.0  0.96940  0.50012  0.36329  1.0000
  H   H2067     1.0  0.87765  0.51696  0.39138  1.0000
  H   H2068     1.0  0.98431  0.66396  0.40856  1.0000
  C   C2580     1.0  0.75297  0.97064  0.33155  1.0000
  C   C2581     1.0  0.97222  0.61404  0.43113  1.0000
  C   C2582     1.0  0.95304  0.60607  0.42735  1.0000
  C   C2583     1.0  0.95089  0.58415  0.42843  1.0000
  C   C2584     1.0  0.96770  0.57023  0.43385  1.0000
  C   C2585     1.0  0.95212  0.51149  0.43104  1.0000
  H   H2069     1.0  0.93630  0.57786  0.42507  1.0000
  H   H2070     1.0  0.96608  0.55334  0.43459  1.0000
  H   H2071     1.0  0.75786  0.73284  0.17448  1.0000
  H   H2072     1.0  0.77660  0.94611  0.32355  1.0000
  C   C2586     1.0  0.79241  0.75697  0.35310  1.0000
  C   C2587     1.0  0.81216  0.76202  0.34332  1.0000
  C   C2588     1.0  0.82510  0.74648  0.33339  1.0000
  C   C2589     1.0  0.81821  0.72600  0.33299  1.0000
  C   C2590     1.0  0.79834  0.72079  0.34255  1.0000
  C   C2591     1.0  0.78556  0.73636  0.35292  1.0000
  P   P86       1.0  0.78995  0.69408  0.34196  1.0000
  C   C2592     1.0  0.76159  0.69437  0.34524  1.0000
  C   C2593     1.0  0.79868  0.68447  0.31611  1.0000
  C   C2594     1.0  0.79940  0.69862  0.29769  1.0000
  C   C2595     1.0  0.81232  0.65601  0.29406  1.0000
  C   C2596     1.0  0.80490  0.66301  0.31411  1.0000
  C   C2597     1.0  0.75279  0.74259  0.28519  1.0000
  H   H2073     1.0  0.74349  0.98792  0.41751  1.0000
  H   H2074     1.0  0.74470  0.50943  0.15715  1.0000
  C   C2598     1.0  0.80093  0.53315  0.46496  1.0000
  H   H2075     1.0  0.79105  0.50112  0.47017  1.0000
  C   C2599     1.0  0.80106  0.67701  0.36306  1.0000
  C   C2600     1.0  0.81916  0.68245  0.37215  1.0000
  C   C2601     1.0  0.82800  0.66881  0.38800  1.0000
  C   C2602     1.0  0.81920  0.64943  0.39451  1.0000
  C   C2603     1.0  0.80125  0.64385  0.38550  1.0000
  C   C2604     1.0  0.79210  0.65762  0.36995  1.0000
  H   H2076     1.0  0.78246  0.76905  0.36085  1.0000
  H   H2077     1.0  0.81750  0.77797  0.34337  1.0000
  H   H2078     1.0  0.84054  0.75023  0.32592  1.0000
  H   H2079     1.0  0.82842  0.71415  0.32520  1.0000
  H   H2080     1.0  0.77031  0.73277  0.36071  1.0000
  H   H2081     1.0  0.79476  0.71524  0.29873  1.0000
  H   H2082     1.0  0.81778  0.63960  0.29270  1.0000
  H   H2083     1.0  0.80474  0.65173  0.32800  1.0000
  H   H2084     1.0  0.77191  0.63374  0.03233  1.0000
  C   C2605     1.0  0.80801  0.78405  0.15600  1.0000
  C   C2606     1.0  0.85385  0.51603  0.48691  1.0000
  H   H2085     1.0  0.91042  0.51760  0.47628  1.0000
  H   H2086     1.0  0.75727  0.69649  0.31112  1.0000
  H   H2087     1.0  0.82691  0.69689  0.36672  1.0000
  H   H2088     1.0  0.84226  0.67284  0.39458  1.0000
  H   H2089     1.0  0.82668  0.63846  0.40605  1.0000
  H   H2090     1.0  0.79484  0.62855  0.39020  1.0000
  H   H2091     1.0  0.77845  0.65285  0.36282  1.0000
  C   C2607     1.0  0.80425  0.75581  0.23027  1.0000
  C   C2608     1.0  0.79284  0.76303  0.24847  1.0000
  C   C2609     1.0  0.78531  0.78417  0.24855  1.0000
  C   C2610     1.0  0.78994  0.79834  0.23071  1.0000
  C   C2611     1.0  0.80176  0.79130  0.21238  1.0000
  C   C2612     1.0  0.80860  0.76980  0.21226  1.0000
  P   P87       1.0  0.81006  0.80961  0.18996  1.0000
  C   C2613     1.0  0.80280  0.83683  0.19571  1.0000
  C   C2614     1.0  0.83838  0.80648  0.18624  1.0000
  C   C2615     1.0  0.84900  0.81077  0.16592  1.0000
  C   C2616     1.0  0.87095  0.80828  0.16324  1.0000
  C   C2617     1.0  0.88241  0.80175  0.18085  1.0000
  C   C2618     1.0  0.87193  0.79787  0.20118  1.0000
  C   C2619     1.0  0.85004  0.80030  0.20385  1.0000
  C   C2620     1.0  0.81837  0.85136  0.19717  1.0000
  C   C2621     1.0  0.81273  0.87235  0.20162  1.0000
  C   C2622     1.0  0.79155  0.87909  0.20449  1.0000
  C   C2623     1.0  0.77602  0.86477  0.20315  1.0000
  C   C2624     1.0  0.78157  0.84367  0.19920  1.0000
  C   C2625     1.0  0.79935  0.80213  0.16587  1.0000
  H   H2092     1.0  0.94813  0.52424  0.41926  1.0000
  C   C2626     1.0  0.89751  0.54339  0.49417  1.0000
  H   H2093     1.0  0.80001  0.53390  0.44771  1.0000
  H   H2094     1.0  0.76093  0.72748  0.28247  1.0000
  H   H2095     1.0  0.91726  0.64888  0.34028  1.0000
  H   H2096     1.0  0.81027  0.73949  0.23032  1.0000
  H   H2097     1.0  0.79031  0.75235  0.26264  1.0000
  H   H2098     1.0  0.76002  0.69263  0.38001  1.0000
  H   H2099     1.0  0.78475  0.81478  0.23178  1.0000
  H   H2100     1.0  0.81807  0.76393  0.19865  1.0000
  C   C2627     1.0  0.74620  0.73411  0.20766  1.0000
  C   C2628     1.0  0.80011  0.77790  0.13744  1.0000
  H   H2101     1.0  0.89939  0.79971  0.17883  1.0000
  H   H2102     1.0  0.88069  0.79294  0.21498  1.0000
  H   H2103     1.0  0.84222  0.79733  0.21972  1.0000
  H   H2104     1.0  0.83490  0.84658  0.19516  1.0000
  H   H2105     1.0  0.82481  0.88337  0.20297  1.0000
  H   H2106     1.0  0.78715  0.89532  0.20804  1.0000
  H   H2107     1.0  0.75958  0.86990  0.20550  1.0000
  H   H2108     1.0  0.76923  0.83267  0.19908  1.0000
  H   H2109     1.0  0.82096  0.77467  0.16254  1.0000
  H   H2110     1.0  0.81234  0.56454  0.46452  1.0000
  S   S363      1.0  0.74770  0.87275  0.25173  1.0000
  C   C2629     1.0  0.76568  0.68022  0.25231  1.0000
  H   H2111     1.0  0.92763  0.70222  0.33692  1.0000
  H   H2112     1.0  0.97381  0.63097  0.43034  1.0000
  H   H2113     1.0  0.96629  0.71233  0.34248  1.0000
  H   H2114     1.0  0.87909  0.81136  0.14750  1.0000
  H   H2115     1.0  0.93627  0.50816  0.36126  1.0000
  H   H2116     1.0  0.95549  0.59133  0.36990  1.0000
  H   H2117     1.0  0.76552  0.77051  0.16952  1.0000
  H   H2118     1.0  0.77022  0.93114  0.39972  1.0000
  H   H2119     1.0  0.76999  0.71233  0.23977  1.0000
  C   C2630     1.0  0.75501  0.77695  0.20208  1.0000
  P   P88       1.0  0.95849  0.66657  0.34135  1.0000
  H   H2120     1.0  0.77835  0.69939  0.04144  1.0000
  H   H2121     1.0  0.78139  0.67473  0.24662  1.0000
  H   H2122     1.0  0.97360  0.51644  0.36005  1.0000
  H   H2123     1.0  0.77694  0.78442  0.11451  1.0000
  C   C2631     1.0  0.75875  0.75427  0.30152  1.0000
  C   C2632     1.0  0.92541  0.68269  0.39733  1.0000
  H   H2124     1.0  0.90272  0.71972  0.36290  1.0000
  C   C2633     1.0  0.94899  0.66981  0.29825  1.0000
  C   C2634     1.0  0.80673  0.69156  0.27774  1.0000
  H   H2125     1.0  0.85003  0.52073  0.43295  1.0000
  C   C2635     1.0  0.81348  0.67035  0.27592  1.0000
  C   C2636     1.0  0.94068  0.60839  0.48099  1.0000
  C   C2637     1.0  0.95003  0.62454  0.49014  1.0000
  H   H2126     1.0  0.75716  0.89682  0.41584  1.0000
  C   C2638     1.0  0.98818  0.51802  0.49207  1.0000
  C   C2639     1.0  0.78449  0.72727  0.02040  1.0000
  C   C2640     1.0  0.76020  0.95140  0.32323  1.0000
  C   C2641     1.0  0.95748  0.62353  0.35615  1.0000
  C   C2642     1.0  0.94103  0.67994  0.36080  1.0000
  H   H2127     1.0  0.76159  0.81664  0.13133  1.0000
  H   H2128     1.0  0.77650  0.64913  0.06685  1.0000
  C   C2643     1.0  0.89561  0.50128  0.41605  1.0000
  C   C2644     1.0  0.75858  0.64136  0.04110  1.0000
  H   H2129     1.0  0.90690  0.65636  0.27341  1.0000
  H   H2130     1.0  0.80754  0.70270  0.26371  1.0000
  C   C2645     1.0  0.96888  0.64200  0.35430  1.0000
  S   S364      1.0  0.76395  0.83246  0.30206  1.0000
  C   C2646     1.0  0.92315  0.65341  0.32392  1.0000
  C   C2647     1.0  0.93608  0.66759  0.28172  1.0000
  H   H2131     1.0  0.98500  0.52297  0.47566  1.0000
  H   H2132     1.0  0.75191  0.92435  0.30736  1.0000
  H   H2133     1.0  0.94061  0.67399  0.26551  1.0000
  S   S365      1.0  0.74396  0.70839  0.10358  1.0000
  C   C2648     1.0  0.91054  0.65077  0.30727  1.0000
  H   H2134     1.0  0.85493  0.54253  0.46305  1.0000
  C   C2649     1.0  0.74881  0.77406  0.30508  1.0000
  C   C2650     1.0  0.76120  0.64999  0.06051  1.0000
  H   H2135     1.0  0.92902  0.61233  0.46951  1.0000
  C   C2651     1.0  0.75928  0.76400  0.18507  1.0000
  H   H2136     1.0  0.80674  0.76379  0.13009  1.0000
  H   H2137     1.0  0.93939  0.57474  0.47904  1.0000
  H   H2138     1.0  0.89546  0.64377  0.31084  1.0000
  H   H2139     1.0  0.81983  0.66513  0.26046  1.0000
  C   C2652     1.0  0.75578  0.98473  0.26700  1.0000
  H   H2140     1.0  0.98610  0.74032  0.20539  1.0000
  C   C2653     1.0  0.77469  0.80765  0.13814  1.0000
  C   C2654     1.0  0.94277  0.66242  0.31950  1.0000
  C   C2655     1.0  0.96475  0.60526  0.36792  1.0000
  H   H2141     1.0  0.90090  0.70721  0.40161  1.0000
  C   C2656     1.0  0.91339  0.70696  0.36857  1.0000
  H   H2142     1.0  0.92413  0.67664  0.41406  1.0000
  C   C2657     1.0  0.94816  0.49555  0.36414  1.0000
  C   C2658     1.0  0.80785  0.55044  0.47445  1.0000
  C   C2659     1.0  0.74625  0.76857  0.22192  1.0000
  C   C2660     1.0  0.85013  0.51335  0.44916  1.0000
  H   H2143     1.0  0.88478  0.54706  0.48398  1.0000
  C   C2661     1.0  0.91699  0.65785  0.28619  1.0000
  H   H2144     1.0  0.94340  0.53020  0.45766  1.0000
  H   H2145     1.0  0.84034  0.81598  0.15218  1.0000
  C   C2662     1.0  0.85317  0.52559  0.46610  1.0000
  C   C2663     1.0  0.98679  0.57814  0.43776  1.0000
  C   C2664     1.0  0.93979  0.67282  0.38268  1.0000
  C   C2665     1.0  0.91228  0.69982  0.39031  1.0000
  H   H2146     1.0  0.75003  0.95260  0.37300  1.0000
  H   H2147     1.0  0.76388  0.97990  0.33867  1.0000
  H   H2148     1.0  0.94271  0.62319  0.34912  1.0000
  C   C2666     1.0  0.94910  0.51468  0.45295  1.0000
  C   C2667     1.0  0.78261  0.70549  0.02507  1.0000
  H   H2149     1.0  0.77645  0.78979  0.26270  1.0000
  H   H2150     1.0  0.96337  0.67795  0.29430  1.0000
  C   C2668     1.0  0.92754  0.69694  0.35383  1.0000
  H   H2151     1.0  0.77139  0.74824  0.31110  1.0000
  H   H2152     1.0  0.88199  0.61130  0.47979  1.0000
  C   C2669     1.0  0.78333  0.78956  0.12862  1.0000
  C   C2670     1.0  0.88384  0.50189  0.39821  1.0000
  H   H2153     1.0  0.75737  0.64954  0.26673  1.0000
  C   C2671     1.0  0.98346  0.60522  0.37789  1.0000
  C   C2672     1.0  0.74940  0.96392  0.26545  1.0000
  C   C2673     1.0  0.74395  0.65951  0.07199  1.0000
  C   C2674     1.0  0.75211  0.66600  0.26363  1.0000
  C   C2675     1.0  0.98768  0.64179  0.36447  1.0000
  C   C2676     1.0  0.98020  0.68266  0.33129  1.0000
  H   H2154     1.0  0.75355  0.78334  0.31750  1.0000
  C   C2677     1.0  0.75116  0.69365  0.36593  1.0000
  H   H2155     1.0  0.74576  0.66575  0.08733  1.0000
  C   C2678     1.0  0.95309  0.49790  0.46833  1.0000
  C   C2679     1.0  0.75557  0.92568  0.39525  1.0000
  C   C2680     1.0  0.75483  0.74266  0.18786  1.0000
  C   C2681     1.0  0.74632  0.93906  0.31422  1.0000
  C   C2682     1.0  0.74971  0.69594  0.32726  1.0000
  C   C2683     1.0  0.97958  0.70453  0.33393  1.0000
  H   H2156     1.0  0.94555  0.64096  0.48569  1.0000
  C   C2684     1.0  0.78954  0.73529  0.99925  1.0000
  C   C2685     1.0  0.98921  0.60005  0.43616  1.0000
  H   H2157     1.0  0.98878  0.59125  0.38750  1.0000
  C   C2686     1.0  0.74820  0.90638  0.40434  1.0000
  C   C2687     1.0  0.94650  0.58718  0.48643  1.0000
  H   H2158     1.0  0.79118  0.75219  0.99597  1.0000
  C   C2688     1.0  0.74418  0.93777  0.38013  1.0000
  H   H2159     1.0  0.74265  0.77915  0.23459  1.0000
  Fe  Fe184     1.0  0.90105  0.57155  0.62758  1.0000
  S   S366      1.0  0.89719  0.60585  0.61609  1.0000
  S   S367      1.0  0.93247  0.55607  0.63475  1.0000
  Fe  Fe185     1.0  0.85667  0.56264  0.62058  1.0000
  S   S368      1.0  0.84908  0.59649  0.60832  1.0000
  S   S369      1.0  0.83173  0.53850  0.62275  1.0000
  Fe  Fe186     1.0  0.88060  0.59404  0.58971  1.0000
  S   S370      1.0  0.89234  0.60676  0.55642  1.0000
  Fe  Fe187     1.0  0.86621  0.60562  0.63604  1.0000
  S   S371      1.0  0.85325  0.63512  0.65283  1.0000
  S   S372      1.0  0.88666  0.55966  0.59976  1.0000
  S   S373      1.0  0.87140  0.57184  0.64969  1.0000
  Fe  Fe188     1.0  0.87175  0.70077  0.75387  1.0000
  S   S374      1.0  0.88772  0.70543  0.78392  1.0000
  S   S375      1.0  0.87637  0.66761  0.74156  1.0000
  Fe  Fe189     1.0  0.85511  0.74716  0.74970  1.0000
  S   S376      1.0  0.87044  0.75515  0.77868  1.0000
  S   S377      1.0  0.83634  0.77107  0.72860  1.0000
  Fe  Fe190     1.0  0.89902  0.73552  0.76639  1.0000
  S   S378      1.0  0.93206  0.74877  0.76310  1.0000
  Fe  Fe191     1.0  0.85795  0.72444  0.79399  1.0000
  S   S379      1.0  0.84332  0.72609  0.82847  1.0000
  S   S380      1.0  0.88452  0.72991  0.73581  1.0000
  S   S381      1.0  0.84110  0.71739  0.76549  1.0000
  H   H2160     1.0  0.79325  0.85067  0.80591  1.0000
  C   C2689     1.0  0.86364  0.72827  0.96061  1.0000
  S   S382      1.0  0.77527  0.84473  0.76719  1.0000
  C   C2690     1.0  0.81647  0.50020  0.61857  1.0000
  H   H2161     1.0  0.76295  0.68120  0.91879  1.0000
  C   C2691     1.0  0.93420  0.71911  0.61171  1.0000
  H   H2162     1.0  0.77316  0.88493  0.80313  1.0000
  C   C2692     1.0  0.78909  0.88431  0.80788  1.0000
  P   P89       1.0  0.90749  0.68849  0.63172  1.0000
  H   H2163     1.0  0.96110  0.50889  0.61863  1.0000
  C   C2693     1.0  0.89455  0.65717  0.57969  1.0000
  H   H2164     1.0  0.89936  0.64315  0.64064  1.0000
  H   H2165     1.0  0.86954  0.73111  0.68785  1.0000
  C   C2694     1.0  0.86704  0.74116  0.63395  1.0000
  C   C2695     1.0  0.86214  0.66162  0.60212  1.0000
  H   H2166     1.0  0.85943  0.75207  0.62247  1.0000
  H   H2167     1.0  0.79227  0.60868  0.57669  1.0000
  H   H2168     1.0  0.95454  0.74210  0.59501  1.0000
  C   C2696     1.0  0.81785  0.71837  0.83844  1.0000
  C   C2697     1.0  0.80693  0.70396  0.82837  1.0000
  C   C2698     1.0  0.78676  0.69822  0.83703  1.0000
  C   C2699     1.0  0.77707  0.70727  0.85544  1.0000
  C   C2700     1.0  0.78788  0.72191  0.86529  1.0000
  C   C2701     1.0  0.80833  0.72703  0.85713  1.0000
  H   H2169     1.0  0.81409  0.69711  0.81404  1.0000
  H   H2170     1.0  0.77855  0.68687  0.82928  1.0000
  H   H2171     1.0  0.78075  0.72883  0.87959  1.0000
  H   H2172     1.0  0.81674  0.73797  0.86521  1.0000
  C   C2702     1.0  0.81859  0.79090  0.73953  1.0000
  C   C2703     1.0  0.81642  0.79364  0.76156  1.0000
  C   C2704     1.0  0.80228  0.80952  0.76977  1.0000
  C   C2705     1.0  0.79053  0.82326  0.75605  1.0000
  C   C2706     1.0  0.79269  0.82055  0.73398  1.0000
  C   C2707     1.0  0.80651  0.80433  0.72582  1.0000
  H   H2173     1.0  0.82603  0.78387  0.77221  1.0000
  H   H2174     1.0  0.80094  0.81163  0.78680  1.0000
  H   H2175     1.0  0.78405  0.83123  0.72316  1.0000
  H   H2176     1.0  0.80811  0.80241  0.70874  1.0000
  C   C2708     1.0  0.95767  0.73829  0.76926  1.0000
  C   C2709     1.0  0.97546  0.74864  0.75977  1.0000
  H   H2177     1.0  0.92137  0.73075  0.61412  1.0000
  C   C2710     1.0  0.95300  0.72561  0.60072  1.0000
  C   C2711     1.0  0.96081  0.72055  0.78367  1.0000
  H   H2178     1.0  0.97325  0.76270  0.74912  1.0000
  H   H2179     1.0  0.94737  0.71256  0.79138  1.0000
  C   C2712     1.0  0.85963  0.64382  0.67769  1.0000
  C   C2713     1.0  0.85701  0.66556  0.68122  1.0000
  C   C2714     1.0  0.86211  0.67312  0.70063  1.0000
  C   C2715     1.0  0.86954  0.65897  0.71688  1.0000
  C   C2716     1.0  0.87187  0.63723  0.71347  1.0000
  C   C2717     1.0  0.86689  0.62966  0.69404  1.0000
  H   H2180     1.0  0.85116  0.67662  0.66882  1.0000
  H   H2181     1.0  0.86038  0.68987  0.70302  1.0000
  H   H2182     1.0  0.87752  0.62614  0.72599  1.0000
  H   H2183     1.0  0.86866  0.61288  0.69169  1.0000
  C   C2718     1.0  0.87722  0.60465  0.53461  1.0000
  C   C2719     1.0  0.88591  0.61035  0.51375  1.0000
  H   H2184     1.0  0.85275  0.75650  0.66162  1.0000
  C   C2720     1.0  0.86748  0.52212  0.54994  1.0000
  C   C2721     1.0  0.84609  0.59387  0.51961  1.0000
  C   C2722     1.0  0.85720  0.59655  0.53754  1.0000
  H   H2185     1.0  0.90137  0.61666  0.51142  1.0000
  C   C2723     1.0  0.88611  0.71261  0.66362  1.0000
  H   H2186     1.0  0.83059  0.58777  0.52200  1.0000
  H   H2187     1.0  0.85035  0.59226  0.55359  1.0000
  H   H2188     1.0  0.82413  0.85444  0.77283  1.0000
  C   C2724     1.0  0.83471  0.51154  0.61677  1.0000
  H   H2189     1.0  0.83903  0.70655  0.96060  1.0000
  C   C2725     1.0  0.74869  0.76550  0.73066  1.0000
  C   C2726     1.0  0.81897  0.90202  0.81773  1.0000
  C   C2727     1.0  0.87250  0.67275  0.61613  1.0000
  C   C2728     1.0  0.97204  0.57103  0.62823  1.0000
  C   C2729     1.0  0.95082  0.57567  0.63433  1.0000
  C   C2730     1.0  0.94422  0.59613  0.63978  1.0000
  C   C2731     1.0  0.95862  0.61212  0.63863  1.0000
  C   C2732     1.0  0.81290  0.69547  0.90424  1.0000
  H   H2190     1.0  0.92801  0.59950  0.64514  1.0000
  H   H2191     1.0  0.95144  0.63737  0.72343  1.0000
  C   C2733     1.0  0.87271  0.72934  0.67075  1.0000
  H   H2192     1.0  0.90312  0.65064  0.56579  1.0000
  H   H2193     1.0  0.78452  0.74694  0.82422  1.0000
  C   C2734     1.0  0.76461  0.51516  0.54277  1.0000
  H   H2194     1.0  0.76193  0.52483  0.52811  1.0000
  C   C2735     1.0  0.79456  0.59369  0.56933  1.0000
  P   P90       1.0  0.76022  0.74000  0.73991  1.0000
  C   C2736     1.0  0.78306  0.73235  0.72266  1.0000
  C   C2737     1.0  0.76816  0.74144  0.76673  1.0000
  C   C2738     1.0  0.78787  0.74893  0.76968  1.0000
  C   C2739     1.0  0.79382  0.75075  0.79037  1.0000
  H   H2195     1.0  0.81686  0.54421  0.57863  1.0000
  C   C2740     1.0  0.80055  0.86486  0.80948  1.0000
  C   C2741     1.0  0.79728  0.71618  0.72998  1.0000
  C   C2742     1.0  0.81461  0.70954  0.71654  1.0000
  C   C2743     1.0  0.81799  0.71913  0.69576  1.0000
  C   C2744     1.0  0.80415  0.73552  0.68849  1.0000
  C   C2745     1.0  0.78672  0.74214  0.70188  1.0000
  C   C2746     1.0  0.92186  0.63978  0.68786  1.0000
  C   C2747     1.0  0.81493  0.70964  0.91991  1.0000
  C   C2748     1.0  0.92823  0.66053  0.68770  1.0000
  H   H2196     1.0  0.94794  0.66646  0.62095  1.0000
  H   H2197     1.0  0.96960  0.61007  0.57020  1.0000
  H   H2198     1.0  0.86825  0.50977  0.60929  1.0000
  C   C2749     1.0  0.95779  0.62529  0.75535  1.0000
  H   H2199     1.0  0.93523  0.66553  0.70143  1.0000
  H   H2200     1.0  0.90418  0.51497  0.63129  1.0000
  H   H2201     1.0  0.76573  0.78376  0.75063  1.0000
  H   H2202     1.0  0.84573  0.65834  0.60589  1.0000
  H   H2203     1.0  0.79866  0.75335  0.75599  1.0000
  H   H2204     1.0  0.80919  0.75611  0.79264  1.0000
  H   H2205     1.0  0.97987  0.63872  0.59044  1.0000
  H   H2206     1.0  0.79497  0.70861  0.74608  1.0000
  H   H2207     1.0  0.82545  0.69699  0.72233  1.0000
  H   H2208     1.0  0.83137  0.71386  0.68536  1.0000
  H   H2209     1.0  0.80698  0.74316  0.67251  1.0000
  C   C2750     1.0  0.77643  0.78333  0.91966  1.0000
  H   H2210     1.0  0.94131  0.62521  0.76119  1.0000
  C   C2751     1.0  0.77973  0.70267  0.93531  1.0000
  C   C2752     1.0  0.84787  0.53106  0.54472  1.0000
  H   H2211     1.0  0.92164  0.67003  0.59022  1.0000
  C   C2753     1.0  0.79429  0.68499  0.90405  1.0000
  H   H2212     1.0  0.76658  0.70572  0.94688  1.0000
  H   H2213     1.0  0.78278  0.57035  0.52516  1.0000
  H   H2214     1.0  0.79241  0.67468  0.89138  1.0000
  H   H2215     1.0  0.88486  0.75352  0.96037  1.0000
  C   C2754     1.0  0.78957  0.57198  0.54014  1.0000
  H   H2216     1.0  0.87849  0.85409  0.80586  1.0000
  H   H2217     1.0  0.82544  0.69321  0.89168  1.0000
  H   H2218     1.0  0.95338  0.62792  0.64286  1.0000
  H   H2219     1.0  0.90661  0.61762  0.67087  1.0000
  H   H2220     1.0  0.79324  0.68870  0.97492  1.0000
  H   H2221     1.0  0.91698  0.56090  0.53788  1.0000
  H   H2222     1.0  0.77625  0.75492  0.69599  1.0000
  C   C2755     1.0  0.89906  0.55524  0.51171  1.0000
  C   C2756     1.0  0.86322  0.74364  0.65595  1.0000
  C   C2757     1.0  0.79826  0.90290  0.81202  1.0000
  H   H2223     1.0  0.96891  0.61364  0.78579  1.0000
  H   H2224     1.0  0.76168  0.69499  0.72972  1.0000
  H   H2225     1.0  0.98411  0.71575  0.58788  1.0000
  H   H2226     1.0  0.97733  0.55518  0.62420  1.0000
  H   H2227     1.0  0.96833  0.67913  0.69026  1.0000
  P   P91       1.0  0.80021  0.73215  0.95552  1.0000
  C   C2758     1.0  0.78376  0.75479  0.94674  1.0000
  C   C2759     1.0  0.98543  0.53001  0.70539  1.0000
  C   C2760     1.0  0.83218  0.76050  0.95572  1.0000
  C   C2761     1.0  0.98538  0.67404  0.66011  1.0000
  C   C2762     1.0  0.97819  0.54252  0.57712  1.0000
  H   H2228     1.0  0.90891  0.85517  0.82739  1.0000
  C   C2763     1.0  0.80967  0.54936  0.49661  1.0000
  H   H2229     1.0  0.97537  0.51921  0.65106  1.0000
  H   H2230     1.0  0.75075  0.73213  0.81959  1.0000
  C   C2764     1.0  0.98868  0.63542  0.57542  1.0000
  H   H2231     1.0  0.91324  0.52159  0.59238  1.0000
  C   C2765     1.0  0.96150  0.58207  0.50123  1.0000
  C   C2766     1.0  0.79846  0.71304  0.93584  1.0000
  H   H2232     1.0  0.74789  0.80248  0.92594  1.0000
  C   C2767     1.0  0.80364  0.53132  0.50962  1.0000
  H   H2233     1.0  0.81101  0.57806  0.59532  1.0000
  C   C2768     1.0  0.97147  0.49779  0.62717  1.0000
  C   C2769     1.0  0.83090  0.51809  0.54392  1.0000
  H   H2234     1.0  0.85692  0.78211  0.95633  1.0000
  H   H2235     1.0  0.88027  0.53231  0.55123  1.0000
  H   H2236     1.0  0.94911  0.53615  0.59599  1.0000
  C   C2770     1.0  0.86874  0.74953  0.95935  1.0000
  H   H2237     1.0  0.82018  0.77321  0.95436  1.0000
  C   C2771     1.0  0.97673  0.69820  0.73254  1.0000
  H   H2238     1.0  0.93507  0.51111  0.65324  1.0000
  C   C2772     1.0  0.85409  0.50111  0.61067  1.0000
  H   H2239     1.0  0.87580  0.71578  0.96263  1.0000
  C   C2773     1.0  0.96966  0.71079  0.59668  1.0000
  C   C2774     1.0  0.98470  0.63263  0.72643  1.0000
  H   H2240     1.0  0.74818  0.81802  0.73950  1.0000
  C   C2775     1.0  0.94915  0.68307  0.61545  1.0000
  C   C2776     1.0  0.91385  0.66915  0.65324  1.0000
  P   P92       1.0  0.80525  0.52978  0.53839  1.0000
  C   C2777     1.0  0.80530  0.57656  0.57973  1.0000
  H   H2241     1.0  0.98049  0.67793  0.60072  1.0000
  H   H2242     1.0  0.78933  0.91798  0.81060  1.0000
  H   H2243     1.0  0.82914  0.71823  0.91912  1.0000
  C   C2778     1.0  0.90500  0.66819  0.59372  1.0000
  H   H2244     1.0  0.94519  0.53726  0.67694  1.0000
  H   H2245     1.0  0.98307  0.65715  0.66146  1.0000
  H   H2246     1.0  0.94411  0.53252  0.52983  1.0000
  C   C2779     1.0  0.88048  0.72446  0.62675  1.0000
  C   C2780     1.0  0.93209  0.69774  0.61908  1.0000
  C   C2781     1.0  0.93453  0.68883  0.74158  1.0000
  C   C2782     1.0  0.94966  0.67966  0.75473  1.0000
  H   H2247     1.0  0.98736  0.53032  0.58583  1.0000
  C   C2783     1.0  0.97976  0.60763  0.63211  1.0000
  C   C2784     1.0  0.96156  0.70790  0.71950  1.0000
  C   C2785     1.0  0.94045  0.70270  0.72390  1.0000
  P   P93       1.0  0.96939  0.72483  0.69586  1.0000
  C   C2786     1.0  0.94674  0.74098  0.68770  1.0000
  C   C2787     1.0  0.82702  0.73917  0.95653  1.0000
  H   H2248     1.0  0.78042  0.79174  0.90424  1.0000
  H   H2249     1.0  0.92988  0.69104  0.67021  1.0000
  C   C2788     1.0  0.92481  0.67502  0.67016  1.0000
  C   C2789     1.0  0.94054  0.74139  0.66667  1.0000
  C   C2790     1.0  0.92240  0.75328  0.66106  1.0000
  C   C2791     1.0  0.91026  0.76464  0.67639  1.0000
  C   C2792     1.0  0.91626  0.76417  0.69733  1.0000
  C   C2793     1.0  0.93441  0.75242  0.70293  1.0000
  H   H2250     1.0  0.97099  0.77006  0.70561  1.0000
  H   H2251     1.0  0.87019  0.80946  0.79958  1.0000
  C   C2794     1.0  0.83409  0.49602  0.54762  1.0000
  Fe  Fe192     1.0  0.74455  0.86317  0.75957  1.0000
  C   C2795     1.0  0.74417  0.80368  0.73273  1.0000
  H   H2252     1.0  0.77733  0.81012  0.86461  1.0000
  H   H2253     1.0  0.91813  0.68539  0.74524  1.0000
  H   H2254     1.0  0.94495  0.66940  0.76877  1.0000
  C   C2796     1.0  0.95669  0.54571  0.58285  1.0000
  H   H2255     1.0  0.88303  0.80056  0.76297  1.0000
  H   H2256     1.0  0.92840  0.70939  0.71389  1.0000
  H   H2257     1.0  0.79337  0.49942  0.50948  1.0000
  H   H2258     1.0  0.92395  0.62864  0.70161  1.0000
  H   H2259     1.0  0.94948  0.73246  0.65463  1.0000
  H   H2260     1.0  0.91756  0.75356  0.64490  1.0000
  H   H2261     1.0  0.89609  0.77366  0.67214  1.0000
  H   H2262     1.0  0.90675  0.77268  0.70940  1.0000
  H   H2263     1.0  0.93876  0.75205  0.71926  1.0000
  H   H2264     1.0  0.77807  0.60459  0.54164  1.0000
  H   H2265     1.0  0.86631  0.81798  0.73145  1.0000
  H   H2266     1.0  0.83713  0.84518  0.73662  1.0000
  C   C2797     1.0  0.75044  0.79214  0.81343  1.0000
  C   C2798     1.0  0.79219  0.72163  0.98247  1.0000
  H   H2267     1.0  0.98356  0.69969  0.79963  1.0000
  C   C2799     1.0  0.97335  0.50728  0.50609  1.0000
  C   C2800     1.0  0.98807  0.55578  0.56087  1.0000
  C   C2801     1.0  0.78008  0.74533  0.80821  1.0000
  C   C2802     1.0  0.93120  0.53529  0.51972  1.0000
  C   C2803     1.0  0.91589  0.55132  0.52445  1.0000
  C   C2804     1.0  0.78418  0.51449  0.55150  1.0000
  H   H2268     1.0  0.87310  0.82751  0.88273  1.0000
  C   C2805     1.0  0.97079  0.59821  0.51073  1.0000
  C   C2806     1.0  0.84283  0.72309  0.95937  1.0000
  H   H2269     1.0  0.97194  0.63224  0.51207  1.0000
  H   H2270     1.0  0.80150  0.50801  0.62343  1.0000
  C   C2807     1.0  0.91554  0.50575  0.59992  1.0000
  H   H2271     1.0  0.90636  0.84189  0.86581  1.0000
  C   C2808     1.0  0.76504  0.76073  0.95871  1.0000
  C   C2809     1.0  0.78659  0.59136  0.54960  1.0000
  C   C2810     1.0  0.80122  0.55503  0.55004  1.0000
  C   C2811     1.0  0.97643  0.57229  0.55024  1.0000
  C   C2812     1.0  0.92968  0.52313  0.50209  1.0000
  C   C2813     1.0  0.76080  0.73717  0.80550  1.0000
  C   C2814     1.0  0.92798  0.51087  0.66951  1.0000
  C   C2815     1.0  0.94501  0.56198  0.57229  1.0000
  C   C2816     1.0  0.95476  0.57512  0.55595  1.0000
  C   C2817     1.0  0.80862  0.55733  0.57016  1.0000
  C   C2818     1.0  0.96349  0.63216  0.73401  1.0000
  C   C2819     1.0  0.91203  0.63355  0.67054  1.0000
  C   C2820     1.0  0.75403  0.78416  0.73909  1.0000
  C   C2821     1.0  0.79063  0.69970  0.98736  1.0000
  H   H2272     1.0  0.84592  0.54813  0.54164  1.0000
  C   C2822     1.0  0.97776  0.50188  0.52749  1.0000
  C   C2823     1.0  0.96503  0.61951  0.50501  1.0000
  H   H2273     1.0  0.86384  0.67794  0.63057  1.0000
  C   C2824     1.0  0.77766  0.68870  0.91949  1.0000
  H   H2274     1.0  0.76585  0.79720  0.81604  1.0000
  C   C2825     1.0  0.87316  0.65381  0.58393  1.0000
  H   H2275     1.0  0.74425  0.77853  0.84578  1.0000
  H   H2276     1.0  0.86529  0.64467  0.57336  1.0000
  H   H2277     1.0  0.92854  0.56498  0.57728  1.0000
  H   H2278     1.0  0.94547  0.58808  0.54843  1.0000
  C   C2826     1.0  0.89402  0.67613  0.61209  1.0000
  C   C2827     1.0  0.87038  0.50017  0.55407  1.0000
  H   H2279     1.0  0.92937  0.53745  0.71449  1.0000
  H   H2280     1.0  0.87110  0.50766  0.66864  1.0000
  H   H2281     1.0  0.90314  0.51118  0.72822  1.0000
  C   C2828     1.0  0.89041  0.71019  0.64150  1.0000
  C   C2829     1.0  0.98142  0.71329  0.78832  1.0000
  C   C2830     1.0  0.83053  0.88256  0.81927  1.0000
  C   C2831     1.0  0.82131  0.86378  0.81529  1.0000
  C   C2832     1.0  0.91018  0.51101  0.71186  1.0000
  P   P94       1.0  0.83624  0.83863  0.81606  1.0000
  C   C2833     1.0  0.85831  0.83988  0.83202  1.0000
  C   C2834     1.0  0.81985  0.81787  0.82837  1.0000
  C   C2835     1.0  0.82460  0.79667  0.82390  1.0000
  C   C2836     1.0  0.81254  0.78055  0.83409  1.0000
  C   C2837     1.0  0.79553  0.78534  0.84875  1.0000
  C   C2838     1.0  0.79063  0.80638  0.85333  1.0000
  C   C2839     1.0  0.80285  0.82258  0.84337  1.0000
  C   C2840     1.0  0.85692  0.83258  0.85383  1.0000
  C   C2841     1.0  0.87420  0.83334  0.86596  1.0000
  C   C2842     1.0  0.89293  0.84146  0.85644  1.0000
  C   C2843     1.0  0.89437  0.84893  0.83479  1.0000
  C   C2844     1.0  0.87712  0.84821  0.82262  1.0000
  C   C2845     1.0  0.84620  0.83272  0.78912  1.0000
  C   C2846     1.0  0.83730  0.84300  0.77109  1.0000
  C   C2847     1.0  0.84470  0.83784  0.75037  1.0000
  C   C2848     1.0  0.86111  0.82250  0.74746  1.0000
  C   C2849     1.0  0.87038  0.81255  0.76525  1.0000
  C   C2850     1.0  0.86299  0.81761  0.78600  1.0000
  C   C2851     1.0  0.96766  0.68951  0.60392  1.0000
  H   H2282     1.0  0.88303  0.72256  0.60966  1.0000
  H   H2283     1.0  0.89259  0.70153  0.67559  1.0000
  H   H2284     1.0  0.84660  0.88229  0.82344  1.0000
  C   C2852     1.0  0.90784  0.64818  0.65338  1.0000
  H   H2285     1.0  0.83767  0.79236  0.81267  1.0000
  H   H2286     1.0  0.81659  0.76429  0.83060  1.0000
  H   H2287     1.0  0.78615  0.77275  0.85656  1.0000
  H   H2288     1.0  0.82611  0.91648  0.82077  1.0000
  H   H2289     1.0  0.79902  0.83872  0.84751  1.0000
  H   H2290     1.0  0.84259  0.82619  0.86151  1.0000
  C   C2853     1.0  0.92499  0.52575  0.70418  1.0000
  C   C2854     1.0  0.98881  0.56691  0.69268  1.0000
  C   C2855     1.0  0.97079  0.68405  0.74999  1.0000
  C   C2856     1.0  0.78921  0.76605  0.92699  1.0000
  C   C2857     1.0  0.93393  0.52562  0.68305  1.0000
  C   C2858     1.0  0.74823  0.50350  0.55306  1.0000
  H   H2291     1.0  0.75193  0.80501  0.78068  1.0000
  H   H2292     1.0  0.80317  0.76123  0.91712  1.0000
  C   C2859     1.0  0.98645  0.58705  0.62693  1.0000
  H   H2293     1.0  0.80129  0.50306  0.57873  1.0000
  C   C2860     1.0  0.97333  0.61882  0.76919  1.0000
  H   H2294     1.0  0.98872  0.63810  0.70985  1.0000
  S   S383      1.0  0.75172  0.69953  0.86589  1.0000
  H   H2295     1.0  0.85600  0.52559  0.50004  1.0000
  C   C2861     1.0  0.85300  0.76563  0.95701  1.0000
  P   P95       1.0  0.98902  0.59118  0.53093  1.0000
  C   C2862     1.0  0.75480  0.73526  0.78483  1.0000
  H   H2296     1.0  0.97238  0.55652  0.72274  1.0000
  C   C2863     1.0  0.75233  0.77806  0.95135  1.0000
  C   C2864     1.0  0.78671  0.50293  0.57121  1.0000
  C   C2865     1.0  0.90423  0.49622  0.69835  1.0000
  H   H2297     1.0  0.83267  0.50568  0.66999  1.0000
  C   C2866     1.0  0.75804  0.78939  0.93187  1.0000
  H   H2298     1.0  0.97953  0.51851  0.71780  1.0000
  C   C2867     1.0  0.98662  0.76261  0.70536  1.0000
  C   C2868     1.0  0.98132  0.55161  0.70832  1.0000
  C   C2869     1.0  0.97969  0.50358  0.64572  1.0000
  C   C2870     1.0  0.79732  0.51377  0.49986  1.0000
  H   H2299     1.0  0.75988  0.75180  0.97343  1.0000
  C   C2871     1.0  0.91057  0.50194  0.62204  1.0000
  H   H2300     1.0  0.98577  0.58367  0.69487  1.0000
  C   C2872     1.0  0.99034  0.74110  0.70147  1.0000
  C   C2873     1.0  0.74566  0.69991  0.73478  1.0000
  H   H2301     1.0  0.81583  0.56263  0.50344  1.0000
  C   C2874     1.0  0.97984  0.70848  0.67474  1.0000
  C   C2875     1.0  0.85513  0.59876  0.49868  1.0000
  C   C2876     1.0  0.97687  0.68662  0.67636  1.0000
  P   P96       1.0  0.94853  0.50141  0.49680  1.0000
  H   H2302     1.0  0.96589  0.56555  0.50527  1.0000
  S   S384      1.0  0.74440  0.74116  0.91154  1.0000
  C   C2877     1.0  0.98289  0.61904  0.56378  1.0000
  H   H2303     1.0  0.88710  0.56740  0.51545  1.0000
  C   C2878     1.0  0.99175  0.71752  0.65680  1.0000
  C   C2879     1.0  0.91292  0.49620  0.67698  1.0000
  H   H2304     1.0  0.98250  0.67716  0.76036  1.0000
  C   C2880     1.0  0.87500  0.60721  0.49582  1.0000
