data_image0
_chemical_formula_structural       H3C2HCHC2H2C2H2C5HCH2C2H4CHCHC2HPC2H3CH3CH3C2HCHCH2CHCHC3HCHC2H2CH2C2H3C4HFeHCFeSCFeCFeC2SC2SCHCSCSFeS2FeS2FeSFeS2FeCSFeS2FeH2CS2HSHCHC6H5PCH2C2HSC6H5C4PH3C6H4C4H4C3H2CHC8HC5HCH6C2HPCFeH2C7HSH2CH2CHCH5CHC3HC2H2CHCHC2H2C3H2C3FeH3C4SH2CPSCSCHC3H2C2HCHCHC2H4CH4C4HCHC2PC2HC2HC3SHC2HCHC2H7CHCH2C2HCHC3HCHCHCHCH2CHC2HC2HFeHC3HSCHCHFeCHSPCH3CH4CHC4HCH2C5H2CHCH3CHC2HC4H3FeHCH4CH3CHCH2CH2CHCHC2H2C2H2FeS2C2HFeSHS2C2FeS2FeCSFeCFeHS2FeS2FeSHFeSFeHS2FeS2FeSHFeSFeS3HCHCPC8H6C3HC4H2C2HC5H3SCHC4H2C8H4C6HC7PC18H23CSH2CHCH2CSHS2H2CSHCHCH2C7HC2H2CH2CHC4HC3HC2HC7H3CHC7H10C2H3C3HC4H2C2H2CH2CSC2HCH2C2HCHC7PHC9HC3HC2H4PH2CH3C2H4C2H3CHCHC4H2C3HC6FeHPH4CH8CH2C3HCH2C4HC3H4PHC2H3CH2CH2CHSC3HCHC2H3SC5HCH2CHC7HCSHFeS2HFeSHFeSHFeS2FeSFeS2FeS2FeS2FeHFeHS2HC3H2C3HCSC4HCH2CH3FeH2C4HC7H4C6H4C6H4C4HCH3CH3C3PC18H3C2H5C2FeHC5PHC3H2C5H5CHCHCH2CH4C2H2CHC6SHCH4C4PC4H2C3HC5HC2H4CH4SHCH2CHC3HCHCH2C2HCH2PSCH5CHC2HCH3CHC4H4C3HCSCHC5H2CHCHCPC2HC6HC3HCHCH3CSH3CH3FeSPFeSHFeSFeHSCFeSCFeS2FeCFeS3HCH2CFeSCFeS2CFeS2C6H3C2HC4H4C6HCH3C9H4FeCHC3H2CHC3H2CHCHC3H3SHC5HCH9C2HC3SHC2H2C6PC8HCH2C3HC2H11C2HCH2C2HCS2CH2CHC3H2C4SC4HC5H3SCH2C2H2C2PCSCFeCH2SCHC7H2CH2CH2CHCHCH2CHSCHCHSHC2PCH2CHSPHC2H2C2H2C2H4C4HC4S2FeSHFeS2Fe2S3FeS2FeS2FeSFeS3FeS2FeS2FeSFeS3C2S2C2H2FeSC7H4C6H4PHC3HCH2C9H4C4SH3C5H2C6H6C3HC7H7CHSC2FeC2HPH4C2SCHC3H2C3HCHC2HC2HCSHCHSCH2CPC7HC2H2C2H3C2P2H3SHC2HCH2CHSC7PC16H17CHC6H5CH3C2HCHFeH2C3H3C2HC4H3CH5CH2CHC2H2C7H2FeHC2HC2HCH3C2HC2HC2FeC2HC3H3CHCH4CH2CHC2HCHCH3C4HCPH2FeCHCHC3HCH2CHSHC2HCH2C4HCHCHCPCH2C3H2C2HC7H4C2HC2HC2H4C2HC3HCHC2H2CH2C6H3C2H2CHC3H2FeCHC3HCHCHCH3CHC4H3CHC2HC2HCHSHC3HCSHC2HC2H2CH9FeCSHFeS2FeS2FeSFeS3H2SCFeS2FeS2FeSFeS3FeS2FeS2FeSFeS3HC2SHC6H4CHC2HCHCHC8H4C2H2CH2C6H4C6H4C6H4C6H2C7PC14H2C2H17C2H2SHC2PC3H2C3HCPC7HC2H4CHCH3C6PC2H3CHC12H4CH2C2H7C2HC7HC2HC3H2C2HCH5CH4PFeHCPCH4CHC4H3C3H2CPC9HC6HC4H5PCH3C3H4SFeHCHC3HCHC2HCH3CHCH2CHCH2C3HC7H2CH2C2HC4H2C2HCH2C4HPCHCHCSC2HCHCHCHC3HCHC3HC2H3CHPCH2C3H2C3HCH4C3H2C2H2C2HC2H2PC4H2PHCHCH2CHCH4CHC2HCH2PHC4HC2HC3H2C5HC4H2C2HC2H4C2HC3HC2SC4H4CSCHC3H4C6HCHCH2CHC3H2SHCHC2HCHCFeS2FeSCFeS2HCH2SFeSHFeS2FeSFeS2FeS2FeS2FeSFeCS2C6HSCH2CHC6H6C2HSCHCHC6H4C3HC2HC6H5SHCHCH2C2H3C4HCH2CHC2H4C2HCH3C5FeC4H2C3H2C3H3CHC5HCH6CHCH2C3PC15HC2H2CH13CHCH2C2HCHC2HPC15PH13C2HC3PC8HC6HC2SH6CH4CHCH2C3PC4HC2H2C3HCHC2HCH2CH3CH2CH4C2HC2HC3HC3PHCHC3H2C2H3C2HC3HC2HC3FeHCHC2SCH3CHC4H3C2HSCPCH3SCH2CFeH3C2HC2HCHC2HC3H3CHCS2H2CH2CH3CHCFeS2PFeS2FeS2FeHFeHS2FeS2FeS2FeSFeS3HC2HSC2H4C4H2C2HC8H4C2H2C6H4C6H4C2HC2SCH2C3HPCSCH5CHC14PC18H5CHCH5CH6C2H3CHC2HFeHC2H3C2H4C4SH3CHC4HSH2FeHC3HCH2C4PC2HCHCHC2H3CH2CH3C3H3C6PC3H2C13H6CHCH11C3HC7H3CH3C2HCHC2HC2HC2HC4HC2H2CH6CH2C2HC2HC2HCHCHC2HCH2CH4C6H3PCH2C2H2SHCH2SH2FeSHCHCFeS2CFeSHSH2C2S2FeS2FeS2FeSFeS3FeS2FeSFeSFeS3C3HCHC7H4C6H4C3H2C2FeCHC6H4C7H5C5H3C4HC4H2C7PC9H2CH12CHCPCHC2H4C3HCHC5HC2HC2HFeC2HCH2CHC10PC9H2PC6H2CH6CH2CH5CHC2H3C7PC18H6CHCH7C3HCH2C3H4PHC2H2PH6C2H2C3SHC2HC2PC2H3CHC7H4C2PSC2H2CHSH3C3H3C6HCHCHCH2CHFeCHCSC4HC2H2CHC3H3C3H3C2SH2C4H4C2HC4HS2C3FeC5H2C4SH3CHCH2CHC2HCHCH2C2SH3C2H2CSHCH4FeH3CH2CPHSC3SFeS2HFeSCSHFeSH2FeSCSFeS2FeSFe2S3FeHSFeS2FeHCS2C8H3CS2CHCHCHC2HCH2C3HC8SFeH4C5H2C7H7C3PC9HC5SC5H10CH3CH2CHCHC2PCHCHCSCH2CH4CPCHCFeCH3SCHC2SHC6H2C2HC3H3C6HCHC2H7C5H2C5HCHCH3SHC2H2CHC3HC2HC5H5CHCH2CH2C4PC18H15C2H3C2HFeC2HC3H2CHCHC3H3C2H2CHCH3C3H2C3HCHCH2C2HC5H2C2HC2HC4HCH5C3FeCH3FeS2H3FeCSFeHSFeS2FeSHFeHFeHS2FeS2FeHCHFeCS2FeS2FeS2FeSFeHS2HSCH3C2HC8H4CHC12H6C6H2C5H4C7H3C2HC3PC3HFeSC12H2C2H4C3H3CH5CH3CHC2H4CH3C3HCH3C2HCHC2H5C2PHCH2SHC2HC3HCHC3H2C3HC2HCHCPC3H4CHC2HCHSH3C2HCH3PSC6H2C2H3CHC4SCH4C2HC2HCHC4H4CHC5H2SC2PC2H2C5HC3H2CHCHC2H2CH2C2H4CH3CH5C2SCHC5HCH3CHCSCH2S2HC2HCHC3HCH2CFeC3HCHC2H4CH5SHFeSHFeSFeHC2PHS2FeHC3HCH2FeSHFeS2FeSFeS2CFeSFeS2CHFeS3HCHC2H2SC4H4CHC7H5C6HC2HCHC5HC8H4C3H2CH2C2SHCHC7PC20H14CH3CH2CH2C3HCHC8PC3H2C13H7CH3SCH13C2FeH8C3HCHCH2C4H2C3HFeHC2H2C2HSHC3HC2H4C3H2CFeH2C2HS2H3CHSHCH3CHCHS2HCHCSHSCH2SCFeS2FeS2CSCFeS2FeS2FeHFeS2FeSFeS2FeCFeCS2H3C6H4CHCPHCH2C7H3C6H4C4HC2H2CHCH4C2H2C2SC3PC6HC6H2CH5CH5CH7CH2C6PC3H3C3HC8H8CH3CPH6C8PC14HCH6CH5C3FeCH4CHC3H3CHCHCHSCH2C5SC2HC2H3C2HPC5HCSC4H3C3H4C2PC2HCHCH2CHC7HCHC8PC6HC6H8C3H5SC3HCHC2HC4HC2HC3HC3HCHC2H2CH5CHC2H3C3H2CHC3HCHCH6CSHPSC2H2CHCHC2H2SC2HCHFeCH3C2HC2HC3SCH2C4SC4SFeHC2HCHC3HCH2CH7CHCHCHC2HC2H2C4HC3SC2H4CHCH2C2PHCHCH4C6H2C3H2C3SC2H2CHC3FeS2C2H2SC2FeS2FeSCFeSFeS2FeS2FeS2FeSFeS2H2C6H4SC5H2C3HCH2CH6C4HCHC4H4C6H6C6H2CPH2CH2C2H6C2H5C4HC3H2C6H2C3PC4PC7H7SHC2H6SC3HC5HCHC2H2C3H2C2HPC3H2CHC2H4C2H2C5PH4C2HCH2CH2C3PSCHC3H2C3HC4HCH2C5H2CH2CPHCH2CH2CH2SC2HC4HCH2C4H3CHFeHFeHC2HCHC2HCHCHC2PHCH3CHC2HCSHFeC2HC3HCH2C2PC4HC2HC3H2C2HC2HC5SFeH3C3H3C5H2CHCHCHCHC2HC2HCHC8HCHCFeS2FeS2FeSFeS3CHCHFeS2FeS3FeSFeS2Fe2S3FeS2FeS2FeSFeS3HFeH2C6H5C2SHC2HC9H4CHCH3CHCHC6H4C6H4C6H4C6H3CHC6PC3H2C13H6C2H12C2SFeH2PC11HC2H2C2H5CH2C3HCHCHCH3FeC3HC2HC8HCH6CHCH10C4PC9HC6HCH4C2H5CHC6HCH3C2HC4HC11H2C2HCH3SC2H3SH5C2HCH3C5PC7H10C4HCH4CH4CHC3H2CH4C6HSCHC3HC4HC2H4C2H2C2HC2HCHCHCHC2HC2PCH2SC2HCPH3SCH2C5H2C2HC3PC2SHCH2CH3CHC2PH2CHC3HCH2C3H2CSC2HC3SC5HCHC3H2C2HC2HC4PC2H5C2PC3HCHPH2CH2C6PCH2C2HC4H2CH2C3H2FeS2FeS2FeSFeS3HSHCSFeSCFeS2FeSFeS3CHFeHCSFeS2FeS2FeSFeS3C6H4C6H4C5H4CHC3H2C5H3CHCH3CHCHC7H4C6H4C6H4CHCHCSPC5HC3H2C3HC2H5C7HCH2C4HC3H5CHPC3HPC18H17C3HCHCHC6PC18H17CH3CHPC12H2C2H5C2PC2HC9H2CH3CH6C4PC8HC5H2C4H7CH3CH3PCHCH2C3H2C2HFeHCFe2H2SC2HCHCH2C2H3C2HC2H3C3H3CHCH2CH4C2HC6HCH2CH2C2H2C2H4PH2C2HCH2C4HC2HCHC5HCHCSC6PCH3SH2C3HC4HCHCHCHC3H4CHCHCHCH3CH3CH2CHC2HCH3CHCHC3PH2C2SHCHC4HCHCSC2H3CFeS2FeSFeCFe2S2FeS2FeS2FeSFeSCSCS2C2HC3HCH2FeC4HC2H2SC5H5CH3SHCHCHC3HFeCH2CHCH5C7H4C2HCHCH3PC4SC2H2C3SCHC2HCH2C4H2CHC4H6SCSCPCH2C5HC2HC3H2CHCH2CH4CHC2H4CHSCHCHCHCH2CFeSH2CH4SFeS2FeCS2C3S2FeSCFeS2FeCFeS3H3FeC7H7CH4CHC6H3C6H2SC6H3CHCHC7PC14H2C3H10CH4CH3CH3C2HCFe2CH2CH3CPCS2CH2C2H2CHSH2C2HCH2SHCH6CHCHCHC6HCH2C6HSC3HCFeHC2H3SCSCHCH2PCHC2HCHCHC7H2FeS2FeSHC2Fe2SH2CHFeS2HPCS2FeS2FeS2FeSFeS3FeS2FeS2FeSFeHS2C4HC6H4C3HCH2C5H2CHC2HCHCHC7H3C5HCH2C7H4C6H2CHFeC3HC13HPH2C2H2PH4C3H5CH2CH2CH2C4H2CSHCHCFeC3HCS2H4CH4CHC2HC7PC18HC2H17CH2C2HCHC3H3PH4C2H3C2H3CHCHCHC4PC20H10CH3CPCHCH2CHC4H2C2H5C2HCSC4SHC2H5C3SHCHC7PC3HCHC8H3CH6C5H2CHC2H6CH4CHCH2CH3CHCHC3HCHCHCHCHCH2FeH2CSHSCHC2HFeHSC2HCFeS2FeS2FeS2HCHFeSHSHFeSHFeSFeHFeSHSFeS2FeS2Fe2S3HSCH2C2FeC9H6C2H2C6H4C6H5C6H4SC3H2C2HC3SC2H2PC2PC5H2C3HC2HC2HC2H4C4H2SC2HCHCH3C2HC3PC4H2C12H2CH2FeC2H11CH3C3HC5SCH4C2H2C3H2CH2CH2C3PC5HC9SCHCSCH4SHCH7C2HPCH2CHC8HCHCHCHCHC2H3SHCHC3HC3HCH2C3HC3H2CH2C2H2CHC5HC2H2PSHC2HCH2C3HCH2C2H2C4HC3HC2H2CHC3HSCH2C2H4CPC4H2C3HC2HCHCHCH3C2SH3C2H2CH6C2HC2HCH2CHC3H2CHCH2CHC2H5CHC3SC5H2C4H4CH2CH5PCH2C4HCHC2H6PHC2H4C2HCHC4PHCHCH2CHC5HC2HCH2C3HSH3C2
_chemical_formula_sum              "H3456 C4320 P144 Fe288 S576"
_cell_length_a       68.6176
_cell_length_b       68.8707
_cell_length_c       68.826
_cell_angle_alpha    81.3682
_cell_angle_beta     81.3793
_cell_angle_gamma    81.3569

_space_group_name_H-M_alt    "P 1"
_space_group_IT_number       1

loop_
  _space_group_symop_operation_xyz
  'x, y, z'

loop_
  _atom_site_type_symbol
  _atom_site_label
  _atom_site_symmetry_multiplicity
  _atom_site_fract_x
  _atom_site_fract_y
  _atom_site_fract_z
  _atom_site_occupancy
  H   H1        1.0  0.47977  0.18858  0.03968  1.0000
  H   H2        1.0  0.41602  0.26437  0.99375  1.0000
  H   H3        1.0  0.39640  0.14667  0.02447  1.0000
  C   C1        1.0  0.44345  0.24641  0.00009  1.0000
  C   C2        1.0  0.45927  0.17048  0.03363  1.0000
  H   H4        1.0  0.46050  0.26063  0.06605  1.0000
  C   C3        1.0  0.35071  0.26337  0.97815  1.0000
  H   H5        1.0  0.05608  0.26808  0.98334  1.0000
  C   C4        1.0  0.43186  0.26142  0.98922  1.0000
  C   C5        1.0  0.44617  0.16777  0.02087  1.0000
  H   H6        1.0  0.01666  0.25891  0.98172  1.0000
  H   H7        1.0  0.45632  0.25226  0.03356  1.0000
  C   C6        1.0  0.48074  0.14578  0.98787  1.0000
  C   C7        1.0  0.45365  0.19804  0.00011  1.0000
  H   H8        1.0  0.43636  0.23768  0.01288  1.0000
  H   H9        1.0  0.43419  0.17871  0.99362  1.0000
  C   C8        1.0  0.00328  0.98127  0.13729  1.0000
  C   C9        1.0  0.46649  0.20117  0.01309  1.0000
  C   C10       1.0  0.46867  0.24451  0.04083  1.0000
  C   C11       1.0  0.48608  0.10828  0.14908  1.0000
  C   C12       1.0  0.99738  0.98836  0.15555  1.0000
  H   H10       1.0  0.47370  0.11823  0.14365  1.0000
  C   C13       1.0  0.44357  0.18141  0.00399  1.0000
  H   H11       1.0  0.38443  0.18133  0.03059  1.0000
  H   H12       1.0  0.38227  0.20804  0.00267  1.0000
  C   C14       1.0  0.38745  0.19309  0.99957  1.0000
  C   C15       1.0  0.46408  0.24272  0.99449  1.0000
  H   H13       1.0  0.47416  0.08185  0.14586  1.0000
  H   H14       1.0  0.48178  0.28538  0.00362  1.0000
  H   H15       1.0  0.43867  0.15468  0.02359  1.0000
  H   H16       1.0  0.03642  0.30000  0.98947  1.0000
  C   C16       1.0  0.46947  0.18706  0.02974  1.0000
  H   H17       1.0  0.46995  0.14058  0.99984  1.0000
  C   C17       1.0  0.37004  0.25930  0.98318  1.0000
  H   H18       1.0  0.39738  0.23943  0.98166  1.0000
  C   C18       1.0  0.47099  0.24935  0.05933  1.0000
  C   C19       1.0  0.39534  0.15840  0.01212  1.0000
  H   H19       1.0  0.37526  0.26910  0.99162  1.0000
  P   P1        1.0  0.47905  0.22303  0.00835  1.0000
  C   C20       1.0  0.48231  0.23001  0.03195  1.0000
  C   C21       1.0  0.38865  0.17793  0.01553  1.0000
  H   H20       1.0  0.45155  0.20833  0.98688  1.0000
  H   H21       1.0  0.37554  0.01293  0.97818  1.0000
  H   H22       1.0  0.00737  0.99583  0.16174  1.0000
  C   C22       1.0  0.99034  0.21635  0.99454  1.0000
  H   H23       1.0  0.37744  0.98560  0.00568  1.0000
  H   H24       1.0  0.34099  0.27630  0.98267  1.0000
  H   H25       1.0  0.01787  0.98323  0.12931  1.0000
  C   C23       1.0  0.39287  0.18877  0.98001  1.0000
  H   H26       1.0  0.00611  0.21744  0.99285  1.0000
  H   H27       1.0  0.46186  0.15953  0.04635  1.0000
  H   H28       1.0  0.40633  0.13891  0.98999  1.0000
  C   C24       1.0  0.40078  0.15399  0.99274  1.0000
  C   C25       1.0  0.98630  0.27276  0.98240  1.0000
  H   H29       1.0  0.98634  0.21726  0.02607  1.0000
  C   C26       1.0  0.38670  0.98405  0.99163  1.0000
  H   H30       1.0  0.12465  0.00852  0.27506  1.0000
  C   C27       1.0  0.15562  0.00145  0.27891  1.0000
  H   H31       1.0  0.99311  0.01976  0.42803  1.0000
  H   H32       1.0  0.13962  0.09582  0.46666  1.0000
  C   C28       1.0  0.13467  0.99216  0.46038  1.0000
  H   H33       1.0  0.19757  0.01828  0.43277  1.0000
  C   C29       1.0  0.10946  0.99119  0.43959  1.0000
  H   H34       1.0  0.22007  0.02001  0.45735  1.0000
  C   C30       1.0  0.13026  0.08431  0.47221  1.0000
  C   C31       1.0  0.10052  0.00992  0.44392  1.0000
  C   C32       1.0  0.19152  0.01960  0.44805  1.0000
  H   H35       1.0  0.16143  0.01999  0.44289  1.0000
  C   C33       1.0  0.17103  0.02039  0.45391  1.0000
  H   H36       1.0  0.08750  0.01696  0.43720  1.0000
  C   C34       1.0  0.20420  0.02055  0.46189  1.0000
  C   C35       1.0  0.16315  0.02156  0.47383  1.0000
  H   H37       1.0  0.18552  0.99017  0.28469  1.0000
  H   H38       1.0  0.99537  0.99304  0.35468  1.0000
  C   C36       1.0  0.10861  0.01977  0.45657  1.0000
  H   H39       1.0  0.00765  0.00518  0.32011  1.0000
  H   H40       1.0  0.10337  0.98362  0.42962  1.0000
  C   C37       1.0  0.12566  0.01085  0.46517  1.0000
  C   C38       1.0  0.17036  0.98695  0.28597  1.0000
  H   H41       1.0  0.10165  0.03442  0.45922  1.0000
  H   H42       1.0  0.15395  0.06083  0.46729  1.0000
  H   H43       1.0  0.14828  0.98522  0.46594  1.0000
  C   C39       1.0  0.12657  0.98235  0.44777  1.0000
  C   C40       1.0  0.99233  0.00951  0.32604  1.0000
  C   C41       1.0  0.13834  0.06437  0.47262  1.0000
  C   C42       1.0  0.13608  0.99728  0.28055  1.0000
  H   H44       1.0  0.15934  0.01592  0.27217  1.0000
  Fe  Fe1       1.0  0.45872  0.29183  0.61177  1.0000
  H   H45       1.0  0.12542  0.03880  0.51984  1.0000
  C   C43       1.0  0.48365  0.16852  0.61180  1.0000
  Fe  Fe2       1.0  0.46105  0.25731  0.58751  1.0000
  S   S1        1.0  0.44853  0.27764  0.56195  1.0000
  C   C44       1.0  0.38002  0.98792  0.71860  1.0000
  Fe  Fe3       1.0  0.46916  0.29846  0.56672  1.0000
  C   C45       1.0  0.05811  0.07086  0.58773  1.0000
  Fe  Fe4       1.0  0.42712  0.29264  0.58534  1.0000
  C   C46       1.0  0.03750  0.20928  0.71716  1.0000
  C   C47       1.0  0.25790  0.04637  0.59549  1.0000
  S   S2        1.0  0.43773  0.27028  0.61043  1.0000
  C   C48       1.0  0.05421  0.09375  0.51933  1.0000
  C   C49       1.0  0.04021  0.11264  0.49091  1.0000
  S   S3        1.0  0.45809  0.14238  0.63247  1.0000
  C   C50       1.0  0.01732  0.16262  0.70328  1.0000
  H   H46       1.0  0.20617  0.02351  0.49220  1.0000
  C   C51       1.0  0.01858  0.15548  0.72324  1.0000
  S   S4        1.0  0.46665  0.08716  0.65656  1.0000
  C   C52       1.0  0.22935  0.00633  0.63281  1.0000
  S   S5        1.0  0.39013  0.01457  0.61721  1.0000
  Fe  Fe5       1.0  0.07333  0.13997  0.56295  1.0000
  S   S6        1.0  0.04682  0.12409  0.56416  1.0000
  S   S7        1.0  0.10367  0.12302  0.56846  1.0000
  Fe  Fe6       1.0  0.04662  0.18079  0.56759  1.0000
  S   S8        1.0  0.01850  0.16724  0.56964  1.0000
  S   S9        1.0  0.04667  0.21404  0.56753  1.0000
  Fe  Fe7       1.0  0.03377  0.14202  0.58884  1.0000
  S   S10       1.0  0.02138  0.12899  0.61912  1.0000
  Fe  Fe8       1.0  0.03423  0.15090  0.54453  1.0000
  S   S11       1.0  0.06061  0.15667  0.58868  1.0000
  S   S12       1.0  0.06198  0.16575  0.54136  1.0000
  Fe  Fe9       1.0  0.22237  0.00995  0.56152  1.0000
  C   C53       1.0  0.09830  0.07457  0.48677  1.0000
  S   S13       1.0  0.25556  0.01190  0.55872  1.0000
  Fe  Fe10      1.0  0.18122  0.02869  0.54958  1.0000
  S   S14       1.0  0.16675  0.00273  0.56574  1.0000
  S   S15       1.0  0.16093  0.05189  0.53197  1.0000
  Fe  Fe11      1.0  0.18485  0.00467  0.58963  1.0000
  H   H47       1.0  0.33712  0.30486  0.67318  1.0000
  H   H48       1.0  0.24467  0.07645  0.64129  1.0000
  C   C54       1.0  0.06927  0.01947  0.53508  1.0000
  S   S16       1.0  0.19783  0.03189  0.57454  1.0000
  S   S17       1.0  0.20716  0.00945  0.53468  1.0000
  H   H49       1.0  0.40576  0.29733  0.66016  1.0000
  S   S18       1.0  0.00618  0.26881  0.63374  1.0000
  H   H50       1.0  0.04274  0.01166  0.72095  1.0000
  C   C55       1.0  0.17984  0.00126  0.67159  1.0000
  H   H51       1.0  0.10424  0.10903  0.61099  1.0000
  C   C56       1.0  0.03459  0.22912  0.58581  1.0000
  C   C57       1.0  0.03756  0.24917  0.58343  1.0000
  C   C58       1.0  0.02869  0.26162  0.59774  1.0000
  C   C59       1.0  0.01660  0.25418  0.61458  1.0000
  C   C60       1.0  0.01319  0.23427  0.61670  1.0000
  C   C61       1.0  0.02214  0.22177  0.60244  1.0000
  H   H52       1.0  0.04711  0.25503  0.57060  1.0000
  H   H53       1.0  0.03158  0.27684  0.59595  1.0000
  H   H54       1.0  0.18664  0.98384  0.50844  1.0000
  H   H55       1.0  0.01961  0.20642  0.60442  1.0000
  H   H56       1.0  0.06624  0.00932  0.60567  1.0000
  P   P2        1.0  0.99657  0.17888  0.67120  1.0000
  C   C62       1.0  0.00655  0.11101  0.61752  1.0000
  H   H57       1.0  0.45120  0.99848  0.71972  1.0000
  H   H58       1.0  0.98952  0.08989  0.70595  1.0000
  C   C63       1.0  0.01761  0.03084  0.55465  1.0000
  C   C64       1.0  0.14666  0.99422  0.68528  1.0000
  H   H59       1.0  0.01628  0.10961  0.69013  1.0000
  S   S19       1.0  0.48274  0.27769  0.59065  1.0000
  C   C65       1.0  0.11795  0.10214  0.55863  1.0000
  C   C66       1.0  0.11589  0.09705  0.54016  1.0000
  C   C67       1.0  0.12899  0.08144  0.53227  1.0000
  C   C68       1.0  0.14396  0.07056  0.54291  1.0000
  C   C69       1.0  0.14547  0.07515  0.56169  1.0000
  C   C70       1.0  0.13269  0.09099  0.56937  1.0000
  H   H60       1.0  0.10473  0.10560  0.53167  1.0000
  H   H61       1.0  0.12776  0.07803  0.51771  1.0000
  H   H62       1.0  0.15693  0.06694  0.57000  1.0000
  H   H63       1.0  0.13449  0.09487  0.58359  1.0000
  H   H64       1.0  0.06097  0.12286  0.50631  1.0000
  C   C71       1.0  0.00477  0.06569  0.54901  1.0000
  C   C72       1.0  0.29158  0.99966  0.57266  1.0000
  C   C73       1.0  0.27126  0.99756  0.57539  1.0000
  C   C74       1.0  0.00216  0.99395  0.66022  1.0000
  P   P3        1.0  0.05535  0.05432  0.65689  1.0000
  H   H65       1.0  0.29728  0.01012  0.56062  1.0000
  H   H66       1.0  0.99654  0.01156  0.56976  1.0000
  H   H67       1.0  0.99993  0.10390  0.64916  1.0000
  C   C75       1.0  0.45045  0.03489  0.62153  1.0000
  C   C76       1.0  0.43265  0.04757  0.62465  1.0000
  C   C77       1.0  0.41435  0.04109  0.62332  1.0000
  C   C78       1.0  0.41358  0.02187  0.61900  1.0000
  C   C79       1.0  0.43141  0.00928  0.61579  1.0000
  C   C80       1.0  0.44969  0.01592  0.61673  1.0000
  H   H68       1.0  0.43293  0.06233  0.62809  1.0000
  H   H69       1.0  0.40067  0.05103  0.62570  1.0000
  H   H70       1.0  0.26054  0.05426  0.56383  1.0000
  H   H71       1.0  0.46341  0.00633  0.61370  1.0000
  C   C81       1.0  0.47262  0.20343  0.60055  1.0000
  C   C82       1.0  0.45344  0.20090  0.60984  1.0000
  C   C83       1.0  0.44933  0.18218  0.61971  1.0000
  C   C84       1.0  0.46435  0.16585  0.62065  1.0000
  H   H72       1.0  0.03092  0.00161  0.64691  1.0000
  H   H73       1.0  0.99075  0.05529  0.69983  1.0000
  H   H74       1.0  0.44166  0.21322  0.60901  1.0000
  H   H75       1.0  0.43435  0.18029  0.62653  1.0000
  C   C85       1.0  0.07923  0.05754  0.55320  1.0000
  C   C86       1.0  0.05833  0.06009  0.55569  1.0000
  C   C87       1.0  0.03335  0.08573  0.67553  1.0000
  H   H76       1.0  0.03069  0.16129  0.69275  1.0000
  H   H77       1.0  0.05875  0.08651  0.71120  1.0000
  C   C88       1.0  0.02988  0.08071  0.50445  1.0000
  H   H78       1.0  0.18951  0.00965  0.66068  1.0000
  C   C89       1.0  0.02301  0.03896  0.61735  1.0000
  C   C90       1.0  0.03655  0.02510  0.60773  1.0000
  C   C91       1.0  0.05570  0.02003  0.61312  1.0000
  C   C92       1.0  0.06125  0.02869  0.62825  1.0000
  C   C93       1.0  0.04756  0.04227  0.63832  1.0000
  C   C94       1.0  0.02851  0.04762  0.63250  1.0000
  C   C95       1.0  0.03418  0.06608  0.67178  1.0000
  C   C96       1.0  0.01706  0.09439  0.68749  1.0000
  H   H79       1.0  0.99409  0.00690  0.65274  1.0000
  C   C97       1.0  0.00269  0.06373  0.69295  1.0000
  C   C98       1.0  0.01878  0.05510  0.68071  1.0000
  C   C99       1.0  0.06239  0.08943  0.63273  1.0000
  C   C100      1.0  0.07435  0.10281  0.62136  1.0000
  C   C101      1.0  0.37729  0.99247  0.68351  1.0000
  H   H80       1.0  0.03219  0.01834  0.59610  1.0000
  C   C102      1.0  0.05320  0.22035  0.71030  1.0000
  H   H81       1.0  0.01791  0.05855  0.63951  1.0000
  H   H82       1.0  0.17017  0.02441  0.50285  1.0000
  H   H83       1.0  0.32008  0.99063  0.58337  1.0000
  H   H84       1.0  0.01918  0.03987  0.67823  1.0000
  H   H85       1.0  0.04639  0.09260  0.63308  1.0000
  H   H86       1.0  0.06758  0.11612  0.61306  1.0000
  C   C103      1.0  0.25778  0.99391  0.65027  1.0000
  C   C104      1.0  0.01616  0.00679  0.71061  1.0000
  H   H87       1.0  0.99281  0.17268  0.63094  1.0000
  P   P4        1.0  0.13665  0.02347  0.48133  1.0000
  C   C105      1.0  0.99733  0.22351  0.54862  1.0000
  Fe  Fe12      1.0  0.19351  0.98383  0.55264  1.0000
  H   H88       1.0  0.09717  0.04333  0.49397  1.0000
  H   H89       1.0  0.99427  0.18899  0.51916  1.0000
  C   C106      1.0  0.02103  0.17822  0.65705  1.0000
  C   C107      1.0  0.03006  0.19555  0.65107  1.0000
  C   C108      1.0  0.04861  0.19485  0.63939  1.0000
  C   C109      1.0  0.05845  0.17684  0.63388  1.0000
  C   C110      1.0  0.04977  0.15948  0.64013  1.0000
  C   C111      1.0  0.03114  0.16014  0.65163  1.0000
  C   C112      1.0  0.13232  0.01144  0.50660  1.0000
  H   H90       1.0  0.02886  0.20540  0.70672  1.0000
  S   S20       1.0  0.47824  0.22614  0.58632  1.0000
  H   H91       1.0  0.02407  0.99904  0.69859  1.0000
  H   H92       1.0  0.06986  0.01955  0.55071  1.0000
  C   C113      1.0  0.47455  0.15124  0.52873  1.0000
  H   H93       1.0  0.44590  0.14453  0.52444  1.0000
  H   H94       1.0  0.46248  0.04045  0.55154  1.0000
  C   C114      1.0  0.05750  0.03429  0.50406  1.0000
  H   H95       1.0  0.27115  0.99607  0.65582  1.0000
  C   C115      1.0  0.17594  0.02290  0.48754  1.0000
  H   H96       1.0  0.02273  0.20974  0.65487  1.0000
  H   H97       1.0  0.05511  0.20840  0.63409  1.0000
  H   H98       1.0  0.07258  0.17642  0.62437  1.0000
  H   H99       1.0  0.05715  0.14557  0.63547  1.0000
  H   H100      1.0  0.02444  0.14659  0.65585  1.0000
  C   C116      1.0  0.47413  0.10212  0.56540  1.0000
  H   H101      1.0  0.13597  0.98822  0.64465  1.0000
  C   C117      1.0  0.00187  0.08333  0.69634  1.0000
  C   C118      1.0  0.99885  0.02665  0.56392  1.0000
  C   C119      1.0  0.06471  0.22493  0.72370  1.0000
  H   H102      1.0  0.40461  0.98979  0.66390  1.0000
  C   C120      1.0  0.32780  0.00138  0.52940  1.0000
  C   C121      1.0  0.40983  0.98416  0.69474  1.0000
  H   H103      1.0  0.99938  0.21383  0.68946  1.0000
  H   H104      1.0  0.33813  0.02917  0.63189  1.0000
  C   C122      1.0  0.44286  0.03985  0.67584  1.0000
  H   H105      1.0  0.05647  0.05146  0.72461  1.0000
  C   C123      1.0  0.05837  0.03521  0.52417  1.0000
  H   H106      1.0  0.00996  0.11526  0.58563  1.0000
  C   C124      1.0  0.00864  0.29192  0.51882  1.0000
  C   C125      1.0  0.36829  0.99182  0.70316  1.0000
  H   H107      1.0  0.48365  0.16940  0.56945  1.0000
  H   H108      1.0  0.03176  0.06976  0.57511  1.0000
  C   C126      1.0  0.12407  0.01358  0.54194  1.0000
  C   C127      1.0  0.12681  0.02279  0.52239  1.0000
  C   C128      1.0  0.06818  0.03665  0.67442  1.0000
  H   H109      1.0  0.00836  0.23034  0.55401  1.0000
  H   H110      1.0  0.47171  0.05371  0.58289  1.0000
  C   C129      1.0  0.13323  0.98152  0.53050  1.0000
  C   C130      1.0  0.45429  0.14978  0.53429  1.0000
  C   C131      1.0  0.15926  0.00539  0.67173  1.0000
  Fe  Fe13      1.0  0.38271  0.98375  0.61458  1.0000
  H   H111      1.0  0.05644  0.01113  0.66801  1.0000
  H   H112      1.0  0.14087  0.98149  0.49931  1.0000
  H   H113      1.0  0.10554  0.05930  0.56617  1.0000
  C   C132      1.0  0.34658  0.99881  0.53566  1.0000
  C   C133      1.0  0.24563  0.04760  0.61364  1.0000
  C   C134      1.0  0.09502  0.09876  0.62013  1.0000
  C   C135      1.0  0.45222  0.02914  0.70868  1.0000
  S   S21       1.0  0.39380  0.30332  0.58767  1.0000
  H   H114      1.0  0.00023  0.16063  0.48184  1.0000
  H   H115      1.0  0.30325  0.98738  0.52503  1.0000
  C   C136      1.0  0.45493  0.01183  0.56461  1.0000
  P   P5        1.0  0.04517  0.05598  0.53616  1.0000
  S   S22       1.0  0.02037  0.15347  0.51602  1.0000
  C   C137      1.0  0.07957  0.00346  0.52589  1.0000
  S   S23       1.0  0.47404  0.04160  0.62367  1.0000
  C   C138      1.0  0.04784  0.06698  0.57300  1.0000
  H   H116      1.0  0.08770  0.05317  0.53961  1.0000
  C   C139      1.0  0.44479  0.15518  0.55250  1.0000
  C   C140      1.0  0.25154  0.29533  0.65109  1.0000
  C   C141      1.0  0.23040  0.07780  0.67113  1.0000
  H   H117      1.0  0.04907  0.04594  0.49526  1.0000
  H   H118      1.0  0.21021  0.98491  0.63063  1.0000
  C   C142      1.0  0.04714  0.08278  0.72306  1.0000
  C   C143      1.0  0.30983  0.04490  0.64268  1.0000
  H   H119      1.0  0.27250  0.03783  0.59476  1.0000
  C   C144      1.0  0.30454  0.98863  0.58559  1.0000
  H   H120      1.0  0.09892  0.05386  0.64849  1.0000
  C   C145      1.0  0.00337  0.10710  0.59899  1.0000
  H   H121      1.0  0.44046  0.05150  0.66366  1.0000
  C   C146      1.0  0.08942  0.06114  0.56814  1.0000
  C   C147      1.0  0.07888  0.06784  0.58536  1.0000
  H   H122      1.0  0.00684  0.08097  0.54374  1.0000
  H   H123      1.0  0.28655  0.00864  0.61798  1.0000
  H   H124      1.0  0.45573  0.08689  0.58926  1.0000
  H   H125      1.0  0.08689  0.07108  0.59661  1.0000
  C   C148      1.0  0.98849  0.21797  0.67923  1.0000
  H   H126      1.0  0.23709  0.02036  0.67722  1.0000
  H   H127      1.0  0.24250  0.28343  0.65582  1.0000
  H   H128      1.0  0.44822  0.16645  0.57926  1.0000
  H   H129      1.0  0.42910  0.15409  0.55682  1.0000
  C   C149      1.0  0.28910  0.04632  0.64383  1.0000
  C   C150      1.0  0.29292  0.01877  0.62495  1.0000
  C   C151      1.0  0.08723  0.00956  0.70263  1.0000
  C   C152      1.0  0.22627  0.05783  0.61370  1.0000
  H   H130      1.0  0.48417  0.25106  0.65539  1.0000
  C   C153      1.0  0.99890  0.17101  0.69712  1.0000
  H   H131      1.0  0.01916  0.20501  0.53128  1.0000
  C   C154      1.0  0.99760  0.10072  0.63482  1.0000
  C   C155      1.0  0.00808  0.29360  0.55375  1.0000
  P   P6        1.0  0.43657  0.98116  0.68919  1.0000
  C   C156      1.0  0.26398  0.98429  0.59131  1.0000
  C   C157      1.0  0.04297  0.07841  0.51875  1.0000
  H   H132      1.0  0.04522  0.09442  0.66943  1.0000
  C   C158      1.0  0.02866  0.09769  0.49049  1.0000
  C   C159      1.0  0.99539  0.00998  0.71311  1.0000
  H   H133      1.0  0.11983  0.07778  0.62859  1.0000
  C   C160      1.0  0.44315  0.00534  0.68996  1.0000
  C   C161      1.0  0.31358  0.01729  0.62392  1.0000
  C   C162      1.0  0.21959  0.06718  0.59597  1.0000
  S   S24       1.0  0.46106  0.30035  0.64167  1.0000
  H   H134      1.0  0.43937  0.01556  0.56259  1.0000
  C   C163      1.0  0.23204  0.06614  0.57803  1.0000
  C   C164      1.0  0.39798  0.98883  0.67928  1.0000
  H   H135      1.0  0.45150  0.98213  0.57840  1.0000
  C   C165      1.0  0.07968  0.04320  0.68678  1.0000
  H   H136      1.0  0.43444  0.01750  0.66121  1.0000
  C   C166      1.0  0.22348  0.98740  0.63616  1.0000
  C   C167      1.0  0.08924  0.02968  0.70077  1.0000
  H   H137      1.0  0.22039  0.01817  0.62468  1.0000
  H   H138      1.0  0.04988  0.07654  0.60082  1.0000
  H   H139      1.0  0.47992  0.28231  0.52711  1.0000
  H   H140      1.0  0.07618  0.02472  0.63217  1.0000
  H   H141      1.0  0.00367  0.22845  0.62952  1.0000
  H   H142      1.0  0.08816  0.99153  0.53432  1.0000
  H   H143      1.0  0.05658  0.22523  0.69457  1.0000
  C   C168      1.0  0.99139  0.09275  0.59773  1.0000
  H   H144      1.0  0.15314  0.01686  0.66088  1.0000
  C   C169      1.0  0.07101  0.07195  0.64319  1.0000
  H   H145      1.0  0.21616  0.05823  0.62735  1.0000
  H   H146      1.0  0.32075  0.01611  0.52457  1.0000
  C   C170      1.0  0.07893  0.00287  0.50580  1.0000
  C   C171      1.0  0.02070  0.05040  0.54710  1.0000
  H   H147      1.0  0.06401  0.09285  0.53047  1.0000
  C   C172      1.0  0.06770  0.01816  0.49497  1.0000
  H   H148      1.0  0.08119  0.05878  0.68563  1.0000
  C   C173      1.0  0.32207  0.03036  0.63276  1.0000
  C   C174      1.0  0.18791  0.98593  0.68499  1.0000
  C   C175      1.0  0.22376  0.06703  0.68917  1.0000
  H   H149      1.0  0.00823  0.04310  0.61306  1.0000
  C   C176      1.0  0.12641  0.04936  0.48021  1.0000
  H   H150      1.0  0.26437  0.28440  0.62362  1.0000
  C   C177      1.0  0.09183  0.06769  0.64145  1.0000
  H   H151      1.0  0.21680  0.07471  0.70158  1.0000
  C   C178      1.0  0.13567  0.99069  0.51089  1.0000
  H   H152      1.0  0.28001  0.05765  0.65164  1.0000
  C   C179      1.0  0.45553  0.16212  0.56514  1.0000
  H   H153      1.0  0.00791  0.28633  0.56886  1.0000
  H   H154      1.0  0.22670  0.07292  0.56423  1.0000
  C   C180      1.0  0.25116  0.05574  0.57782  1.0000
  H   H155      1.0  0.36828  0.99580  0.67147  1.0000
  C   C181      1.0  0.31788  0.98497  0.52971  1.0000
  C   C182      1.0  0.10377  0.08115  0.63008  1.0000
  H   H156      1.0  0.02966  0.01882  0.55360  1.0000
  C   C183      1.0  0.00216  0.14096  0.50916  1.0000
  C   C184      1.0  0.28047  0.03316  0.63499  1.0000
  H   H157      1.0  0.00118  0.11854  0.53451  1.0000
  Fe  Fe14      1.0  0.48304  0.06912  0.63325  1.0000
  H   H158      1.0  0.12051  0.02252  0.55399  1.0000
  C   C185      1.0  0.05279  0.11077  0.50545  1.0000
  C   C186      1.0  0.99552  0.12405  0.52061  1.0000
  C   C187      1.0  0.06583  0.01650  0.67677  1.0000
  H   H159      1.0  0.22113  0.03799  0.70524  1.0000
  S   S25       1.0  0.21022  0.98311  0.57845  1.0000
  C   C188      1.0  0.23945  0.06790  0.65513  1.0000
  H   H160      1.0  0.22859  0.09385  0.66957  1.0000
  C   C189      1.0  0.02302  0.99088  0.65683  1.0000
  H   H161      1.0  0.31645  0.05505  0.64951  1.0000
  Fe  Fe15      1.0  0.00247  0.30274  0.63157  1.0000
  C   C190      1.0  0.46176  0.99297  0.57358  1.0000
  H   H162      1.0  0.20457  0.07480  0.59603  1.0000
  S   S26       1.0  0.17016  0.00265  0.62106  1.0000
  P   P7        1.0  0.25373  0.03438  0.63639  1.0000
  C   C191      1.0  0.23525  0.03639  0.67525  1.0000
  H   H163      1.0  0.13074  0.99710  0.68502  1.0000
  H   H164      1.0  0.10402  0.10488  0.47895  1.0000
  H   H165      1.0  0.00908  0.28328  0.50680  1.0000
  C   C192      1.0  0.46803  0.02595  0.55859  1.0000
  H   H166      1.0  0.08280  0.07852  0.49212  1.0000
  H   H167      1.0  0.46730  0.11674  0.56857  1.0000
  H   H168      1.0  0.02037  0.06956  0.50424  1.0000
  H   H169      1.0  0.08710  0.99055  0.49864  1.0000
  C   C193      1.0  0.02668  0.01372  0.72351  1.0000
  H   H170      1.0  0.35418  0.01151  0.53564  1.0000
  C   C194      1.0  0.99502  0.14771  0.49092  1.0000
  C   C195      1.0  0.10641  0.05466  0.48755  1.0000
  C   C196      1.0  0.48041  0.25280  0.70145  1.0000
  C   C197      1.0  0.07552  0.00299  0.69065  1.0000
  H   H171      1.0  0.09815  0.03477  0.71025  1.0000
  C   C198      1.0  0.24189  0.04711  0.65705  1.0000
  H   H172      1.0  0.46901  0.25368  0.69188  1.0000
  H   H173      1.0  0.43112  0.99452  0.61235  1.0000
  C   C199      1.0  0.22619  0.04634  0.69122  1.0000
  C   C200      1.0  0.00343  0.20922  0.53581  1.0000
  C   C201      1.0  0.19639  0.02238  0.48156  1.0000
  C   C202      1.0  0.98932  0.20005  0.52911  1.0000
  C   C203      1.0  0.26385  0.29589  0.63294  1.0000
  H   H174      1.0  0.30473  0.31371  0.66067  1.0000
  H   H175      1.0  0.09465  0.99904  0.71342  1.0000
  C   C204      1.0  0.47573  0.16364  0.55960  1.0000
  H   H176      1.0  0.00882  0.26655  0.54139  1.0000
  C   C205      1.0  0.43979  0.02052  0.67436  1.0000
  H   H177      1.0  0.00914  0.98392  0.61773  1.0000
  H   H178      1.0  0.45148  0.05915  0.69407  1.0000
  H   H179      1.0  0.46809  0.98961  0.65630  1.0000
  C   C206      1.0  0.44921  0.00980  0.70722  1.0000
  H   H180      1.0  0.32303  0.00590  0.61632  1.0000
  C   C207      1.0  0.24658  0.00974  0.63984  1.0000
  C   C208      1.0  0.44894  0.04419  0.69302  1.0000
  H   H181      1.0  0.46934  0.28102  0.71084  1.0000
  C   C209      1.0  0.12719  0.99295  0.54599  1.0000
  C   C210      1.0  0.46759  0.08533  0.57703  1.0000
  C   C211      1.0  0.40072  0.98439  0.71441  1.0000
  C   C212      1.0  0.00846  0.28249  0.53829  1.0000
  H   H182      1.0  0.12573  0.98590  0.56117  1.0000
  H   H183      1.0  0.24838  0.98263  0.59378  1.0000
  H   H184      1.0  0.35225  0.99432  0.70641  1.0000
  Fe  Fe16      1.0  0.47898  0.11348  0.63762  1.0000
  H   H185      1.0  0.45721  0.03251  0.72186  1.0000
  C   C213      1.0  0.48501  0.30394  0.64496  1.0000
  H   H186      1.0  0.07382  0.98740  0.69213  1.0000
  H   H187      1.0  0.98716  0.00471  0.70312  1.0000
  H   H188      1.0  0.07706  0.23330  0.71833  1.0000
  H   H189      1.0  0.98897  0.08977  0.58339  1.0000
  C   C214      1.0  0.47672  0.06646  0.57336  1.0000
  H   H190      1.0  0.03865  0.12617  0.48061  1.0000
  H   H191      1.0  0.20389  0.98285  0.68441  1.0000
  H   H192      1.0  0.48350  0.01620  0.66069  1.0000
  C   C215      1.0  0.48063  0.26833  0.71234  1.0000
  H   H193      1.0  0.03421  0.11307  0.72466  1.0000
  C   C216      1.0  0.99532  0.98310  0.61230  1.0000
  H   H194      1.0  0.48156  0.14711  0.51454  1.0000
  H   H195      1.0  0.24138  0.30969  0.67719  1.0000
  C   C217      1.0  0.48172  0.98822  0.57657  1.0000
  H   H196      1.0  0.40956  0.98164  0.72656  1.0000
  H   H197      1.0  0.01814  0.09969  0.47983  1.0000
  C   C218      1.0  0.11023  0.08942  0.47920  1.0000
  H   H198      1.0  0.39977  0.30974  0.62569  1.0000
  C   C219      1.0  0.25091  0.31013  0.66311  1.0000
  H   H199      1.0  0.06698  0.01758  0.47945  1.0000
  C   C220      1.0  0.48548  0.15800  0.54147  1.0000
  C   C221      1.0  0.27547  0.31126  0.62674  1.0000
  H   H200      1.0  0.02312  0.31240  0.71603  1.0000
  H   H201      1.0  0.28494  0.31135  0.61266  1.0000
  C   C222      1.0  0.40809  0.31236  0.65400  1.0000
  C   C223      1.0  0.00842  0.31248  0.51483  1.0000
  H   H202      1.0  0.03274  0.14886  0.72796  1.0000
  H   H203      1.0  0.47549  0.31406  0.67342  1.0000
  Fe  Fe17      1.0  0.01777  0.09916  0.81759  1.0000
  S   S27       1.0  0.01051  0.12808  0.79831  1.0000
  S   S28       1.0  0.04826  0.08244  0.80807  1.0000
  C   C224      1.0  0.04585  0.06296  0.73071  1.0000
  C   C225      1.0  0.37485  0.29658  0.90765  1.0000
  H   H204      1.0  0.99010  0.21586  0.96373  1.0000
  Fe  Fe18      1.0  0.99691  0.14033  0.82653  1.0000
  S   S29       1.0  0.99771  0.17211  0.83235  1.0000
  H   H205      1.0  0.48004  0.23877  0.79869  1.0000
  S   S30       1.0  0.00629  0.11226  0.84590  1.0000
  S   S31       1.0  0.09379  0.00704  0.85649  1.0000
  C   C226      1.0  0.02112  0.31358  0.82708  1.0000
  C   C227      1.0  0.38915  0.99464  0.88663  1.0000
  Fe  Fe19      1.0  0.05417  0.24279  0.87927  1.0000
  S   S32       1.0  0.02746  0.26364  0.87161  1.0000
  S   S33       1.0  0.05473  0.20969  0.87783  1.0000
  Fe  Fe20      1.0  0.07546  0.27696  0.88799  1.0000
  C   C228      1.0  0.01726  0.17843  0.91774  1.0000
  S   S34       1.0  0.10487  0.28487  0.89485  1.0000
  Fe  Fe21      1.0  0.03044  0.27803  0.89803  1.0000
  C   C229      1.0  0.99111  0.22495  0.90093  1.0000
  Fe  Fe22      1.0  0.04915  0.28362  0.85521  1.0000
  H   H206      1.0  0.07888  0.12041  0.79243  1.0000
  S   S35       1.0  0.05594  0.25571  0.90725  1.0000
  S   S36       1.0  0.07602  0.26185  0.86088  1.0000
  Fe  Fe23      1.0  0.43578  0.17627  0.89456  1.0000
  S   S37       1.0  0.41696  0.16046  0.92035  1.0000
  S   S38       1.0  0.42952  0.20853  0.88042  1.0000
  Fe  Fe24      1.0  0.46566  0.13970  0.89090  1.0000
  S   S39       1.0  0.44982  0.12156  0.91626  1.0000
  H   H207      1.0  0.07003  0.29047  0.92199  1.0000
  Fe  Fe25      1.0  0.42196  0.13443  0.90276  1.0000
  S   S40       1.0  0.40462  0.10938  0.89888  1.0000
  Fe  Fe26      1.0  0.44634  0.14857  0.93155  1.0000
  H   H208      1.0  0.03308  0.05217  0.79001  1.0000
  S   S41       1.0  0.43852  0.15117  0.87621  1.0000
  S   S42       1.0  0.46437  0.16580  0.90701  1.0000
  Fe  Fe27      1.0  0.32094  0.02164  0.85914  1.0000
  S   S43       1.0  0.29739  0.04770  0.86272  1.0000
  S   S44       1.0  0.33675  0.01426  0.82956  1.0000
  Fe  Fe28      1.0  0.31849  0.00826  0.90317  1.0000
  S   S45       1.0  0.29464  0.03323  0.91033  1.0000
  H   H209      1.0  0.48422  0.23323  0.90423  1.0000
  Fe  Fe29      1.0  0.28080  0.02617  0.88460  1.0000
  S   S46       1.0  0.24753  0.02314  0.88692  1.0000
  Fe  Fe30      1.0  0.31351  0.05243  0.88771  1.0000
  S   S47       1.0  0.32015  0.08316  0.89218  1.0000
  S   S48       1.0  0.30358  0.99993  0.87943  1.0000
  S   S49       1.0  0.33808  0.02775  0.88231  1.0000
  H   H210      1.0  0.23992  0.99103  0.82900  1.0000
  C   C230      1.0  0.36604  0.05061  0.93614  1.0000
  H   H211      1.0  0.38700  0.29978  0.84485  1.0000
  C   C231      1.0  0.99857  0.02766  0.82059  1.0000
  P   P8        1.0  0.39206  0.20820  0.95912  1.0000
  C   C232      1.0  0.01645  0.02334  0.73940  1.0000
  C   C233      1.0  0.38827  0.29701  0.89009  1.0000
  C   C234      1.0  0.38085  0.10303  0.89645  1.0000
  C   C235      1.0  0.37978  0.08384  0.89234  1.0000
  C   C236      1.0  0.36143  0.07762  0.89087  1.0000
  C   C237      1.0  0.34378  0.09061  0.89324  1.0000
  C   C238      1.0  0.34484  0.10999  0.89694  1.0000
  C   C239      1.0  0.36323  0.11618  0.89859  1.0000
  H   H212      1.0  0.39329  0.07370  0.89031  1.0000
  H   H213      1.0  0.36087  0.06265  0.88825  1.0000
  H   H214      1.0  0.33130  0.12022  0.89876  1.0000
  H   H215      1.0  0.36374  0.13103  0.90163  1.0000
  H   H216      1.0  0.10349  0.02876  0.81695  1.0000
  H   H217      1.0  0.05684  0.03137  0.86592  1.0000
  C   C240      1.0  0.00390  0.01670  0.78811  1.0000
  C   C241      1.0  0.99999  0.17370  0.95107  1.0000
  C   C242      1.0  0.98995  0.23746  0.91535  1.0000
  H   H218      1.0  0.08525  0.05807  0.79853  1.0000
  C   C243      1.0  0.43957  0.23895  0.93890  1.0000
  C   C244      1.0  0.01018  0.27157  0.95236  1.0000
  C   C245      1.0  0.17311  0.98556  0.76344  1.0000
  C   C246      1.0  0.38189  0.19941  0.90413  1.0000
  H   H219      1.0  0.44208  0.25400  0.93296  1.0000
  H   H220      1.0  0.09998  0.02752  0.76708  1.0000
  C   C247      1.0  0.99566  0.26284  0.82850  1.0000
  C   C248      1.0  0.39821  0.27909  0.88414  1.0000
  H   H221      1.0  0.37703  0.99236  0.87924  1.0000
  C   C249      1.0  0.45354  0.26036  0.87302  1.0000
  C   C250      1.0  0.44233  0.24538  0.87082  1.0000
  C   C251      1.0  0.44569  0.22622  0.88125  1.0000
  C   C252      1.0  0.46120  0.22188  0.89288  1.0000
  C   C253      1.0  0.06860  0.16730  0.76880  1.0000
  H   H222      1.0  0.45025  0.27525  0.86565  1.0000
  H   H223      1.0  0.43070  0.24874  0.86138  1.0000
  H   H224      1.0  0.46412  0.20728  0.90087  1.0000
  S   S50       1.0  0.04507  0.30035  0.82509  1.0000
  C   C254      1.0  0.06432  0.27725  0.95225  1.0000
  H   H225      1.0  0.40108  0.21541  0.91572  1.0000
  C   C255      1.0  0.24368  0.00475  0.85422  1.0000
  C   C256      1.0  0.23440  0.01225  0.87161  1.0000
  C   C257      1.0  0.21393  0.01109  0.87716  1.0000
  C   C258      1.0  0.20284  0.00285  0.86545  1.0000
  H   H226      1.0  0.06603  0.04485  0.76510  1.0000
  H   H227      1.0  0.20653  0.01685  0.89052  1.0000
  C   C259      1.0  0.47280  0.00003  0.82843  1.0000
  C   C260      1.0  0.45582  0.22436  0.94140  1.0000
  C   C261      1.0  0.01382  0.18197  0.84517  1.0000
  C   C262      1.0  0.02875  0.17004  0.85489  1.0000
  C   C263      1.0  0.04119  0.17871  0.86477  1.0000
  C   C264      1.0  0.03890  0.19934  0.86501  1.0000
  C   C265      1.0  0.02407  0.21119  0.85516  1.0000
  C   C266      1.0  0.01158  0.20258  0.84537  1.0000
  H   H228      1.0  0.03070  0.15417  0.85482  1.0000
  H   H229      1.0  0.05267  0.16937  0.87227  1.0000
  H   H230      1.0  0.02233  0.22702  0.85505  1.0000
  H   H231      1.0  0.46248  0.10428  0.87772  1.0000
  C   C267      1.0  0.06062  0.06145  0.82176  1.0000
  C   C268      1.0  0.05269  0.05379  0.84080  1.0000
  C   C269      1.0  0.06305  0.03716  0.85118  1.0000
  C   C270      1.0  0.08142  0.02796  0.84269  1.0000
  C   C271      1.0  0.08935  0.03562  0.82362  1.0000
  C   C272      1.0  0.07896  0.05223  0.81322  1.0000
  H   H232      1.0  0.03866  0.06076  0.84760  1.0000
  C   C273      1.0  0.05620  0.14276  0.80324  1.0000
  C   C274      1.0  0.39575  0.04464  0.86184  1.0000
  C   C275      1.0  0.41601  0.04455  0.86245  1.0000
  C   C276      1.0  0.42594  0.05948  0.85105  1.0000
  C   C277      1.0  0.41574  0.07437  0.83882  1.0000
  C   C278      1.0  0.39532  0.07469  0.83833  1.0000
  C   C279      1.0  0.38541  0.05964  0.84988  1.0000
  P   P9        1.0  0.38213  0.09437  0.82304  1.0000
  C   C280      1.0  0.37897  0.11758  0.83317  1.0000
  C   C281      1.0  0.39615  0.09651  0.79856  1.0000
  C   C282      1.0  0.39835  0.11514  0.78757  1.0000
  C   C283      1.0  0.40907  0.11651  0.76855  1.0000
  C   C284      1.0  0.41751  0.09934  0.76030  1.0000
  C   C285      1.0  0.41536  0.08078  0.77113  1.0000
  C   C286      1.0  0.40498  0.07934  0.79028  1.0000
  C   C287      1.0  0.36438  0.13294  0.82702  1.0000
  C   C288      1.0  0.36178  0.15103  0.83461  1.0000
  C   C289      1.0  0.37378  0.15395  0.84834  1.0000
  C   C290      1.0  0.38832  0.13877  0.85453  1.0000
  C   C291      1.0  0.39087  0.12062  0.84708  1.0000
  C   C292      1.0  0.35779  0.08792  0.82191  1.0000
  C   C293      1.0  0.34225  0.09198  0.83712  1.0000
  C   C294      1.0  0.32357  0.08635  0.83692  1.0000
  C   C295      1.0  0.32031  0.07634  0.82173  1.0000
  C   C296      1.0  0.33574  0.07197  0.80671  1.0000
  C   C297      1.0  0.35441  0.07779  0.80671  1.0000
  H   H233      1.0  0.38783  0.03335  0.87087  1.0000
  H   H234      1.0  0.42404  0.03309  0.87185  1.0000
  H   H235      1.0  0.44156  0.05955  0.85176  1.0000
  H   H236      1.0  0.42371  0.08581  0.83000  1.0000
  H   H237      1.0  0.36965  0.05945  0.84996  1.0000
  H   H238      1.0  0.39192  0.12864  0.79360  1.0000
  H   H239      1.0  0.41078  0.13092  0.76014  1.0000
  H   H240      1.0  0.43238  0.00431  0.91268  1.0000
  H   H241      1.0  0.42176  0.06749  0.76468  1.0000
  H   H242      1.0  0.40362  0.06485  0.79855  1.0000
  H   H243      1.0  0.35495  0.13090  0.81638  1.0000
  H   H244      1.0  0.35039  0.16273  0.82992  1.0000
  H   H245      1.0  0.37177  0.16790  0.85431  1.0000
  H   H246      1.0  0.39747  0.14089  0.86539  1.0000
  H   H247      1.0  0.40193  0.10905  0.85257  1.0000
  H   H248      1.0  0.34462  0.09912  0.84943  1.0000
  H   H249      1.0  0.31176  0.08932  0.84889  1.0000
  H   H250      1.0  0.30592  0.07159  0.82184  1.0000
  H   H251      1.0  0.33326  0.06372  0.79527  1.0000
  H   H252      1.0  0.36612  0.07404  0.79503  1.0000
  H   H253      1.0  0.06684  0.01188  0.81106  1.0000
  H   H254      1.0  0.44694  0.07457  0.93634  1.0000
  H   H255      1.0  0.07315  0.26324  0.94959  1.0000
  C   C298      1.0  0.43345  0.19973  0.95215  1.0000
  S   S51       1.0  0.98904  0.08826  0.81504  1.0000
  H   H256      1.0  0.47077  0.07238  0.82508  1.0000
  H   H257      1.0  0.05128  0.13319  0.81654  1.0000
  C   C299      1.0  0.99398  0.15419  0.92643  1.0000
  H   H258      1.0  0.40530  0.29605  0.81154  1.0000
  C   C300      1.0  0.98878  0.25747  0.75568  1.0000
  H   H259      1.0  0.09539  0.98658  0.80241  1.0000
  H   H260      1.0  0.36436  0.99228  0.80209  1.0000
  C   C301      1.0  0.35541  0.98305  0.85232  1.0000
  S   S52       1.0  0.04987  0.30000  0.88083  1.0000
  H   H261      1.0  0.00221  0.14976  0.75235  1.0000
  S   S53       1.0  0.33412  0.98423  0.92372  1.0000
  S   S54       1.0  0.14218  0.99299  0.81749  1.0000
  H   H262      1.0  0.16313  0.98809  0.73504  1.0000
  H   H263      1.0  0.40385  0.16525  0.96191  1.0000
  C   C302      1.0  0.99448  0.26869  0.80833  1.0000
  S   S55       1.0  0.00138  0.28942  0.91541  1.0000
  H   H264      1.0  0.43318  0.30390  0.88684  1.0000
  C   C303      1.0  0.00176  0.29808  0.76302  1.0000
  H   H265      1.0  0.18707  0.00249  0.86980  1.0000
  C   C304      1.0  0.41699  0.21447  0.95115  1.0000
  H   H266      1.0  0.99714  0.17740  0.96607  1.0000
  H   H267      1.0  0.16347  0.99863  0.76765  1.0000
  C   C305      1.0  0.40036  0.00660  0.91395  1.0000
  C   C306      1.0  0.01812  0.09291  0.74569  1.0000
  C   C307      1.0  0.45816  0.30844  0.73740  1.0000
  C   C308      1.0  0.38491  0.00309  0.90424  1.0000
  C   C309      1.0  0.38953  0.20585  0.91945  1.0000
  C   C310      1.0  0.05901  0.99937  0.75551  1.0000
  C   C311      1.0  0.21206  0.99556  0.84794  1.0000
  H   H268      1.0  0.47530  0.09296  0.79242  1.0000
  C   C312      1.0  0.09322  0.00002  0.76013  1.0000
  C   C313      1.0  0.47625  0.09559  0.87260  1.0000
  H   H269      1.0  0.44103  0.98481  0.77867  1.0000
  H   H270      1.0  0.43380  0.07111  0.90565  1.0000
  C   C314      1.0  0.36755  0.18643  0.90852  1.0000
  H   H271      1.0  0.43962  0.98914  0.88155  1.0000
  H   H272      1.0  0.04756  0.99102  0.75324  1.0000
  C   C315      1.0  0.02217  0.04197  0.79467  1.0000
  H   H273      1.0  0.30771  0.98527  0.84001  1.0000
  C   C316      1.0  0.00813  0.31058  0.84462  1.0000
  C   C317      1.0  0.99562  0.02717  0.74128  1.0000
  C   C318      1.0  0.47250  0.23671  0.89491  1.0000
  C   C319      1.0  0.00384  0.30317  0.74233  1.0000
  H   H274      1.0  0.01642  0.04972  0.82433  1.0000
  C   C320      1.0  0.46835  0.25614  0.88557  1.0000
  C   C321      1.0  0.03331  0.09775  0.73062  1.0000
  C   C322      1.0  0.11163  0.30795  0.89875  1.0000
  H   H275      1.0  0.12330  0.30232  0.85413  1.0000
  C   C323      1.0  0.00004  0.21298  0.79175  1.0000
  C   C324      1.0  0.41035  0.30511  0.82089  1.0000
  H   H276      1.0  0.99106  0.02693  0.83566  1.0000
  C   C325      1.0  0.40881  0.98941  0.87852  1.0000
  C   C326      1.0  0.41976  0.03662  0.95426  1.0000
  C   C327      1.0  0.01784  0.29882  0.77322  1.0000
  C   C328      1.0  0.37049  0.27851  0.91839  1.0000
  C   C329      1.0  0.37980  0.26073  0.91189  1.0000
  C   C330      1.0  0.39382  0.26101  0.89492  1.0000
  C   C331      1.0  0.00501  0.18116  0.77957  1.0000
  H   H277      1.0  0.35987  0.27830  0.93173  1.0000
  H   H278      1.0  0.37627  0.24676  0.92010  1.0000
  H   H279      1.0  0.40139  0.24719  0.89013  1.0000
  C   C332      1.0  0.00255  0.08712  0.89179  1.0000
  H   H280      1.0  0.00016  0.21195  0.83783  1.0000
  C   C333      1.0  0.04660  0.21596  0.79178  1.0000
  C   C334      1.0  0.04304  0.23655  0.78610  1.0000
  C   C335      1.0  0.04838  0.24971  0.79743  1.0000
  C   C336      1.0  0.05730  0.24246  0.81447  1.0000
  C   C337      1.0  0.06100  0.22206  0.82017  1.0000
  C   C338      1.0  0.05554  0.20883  0.80900  1.0000
  C   C339      1.0  0.36984  0.02984  0.93946  1.0000
  H   H281      1.0  0.46216  0.07054  0.86953  1.0000
  H   H282      1.0  0.36948  0.00685  0.91003  1.0000
  H   H283      1.0  0.34358  0.07611  0.93447  1.0000
  H   H284      1.0  0.03597  0.24244  0.77303  1.0000
  H   H285      1.0  0.04556  0.26557  0.79318  1.0000
  H   H286      1.0  0.06127  0.25267  0.82334  1.0000
  H   H287      1.0  0.06783  0.21646  0.83350  1.0000
  H   H288      1.0  0.05818  0.19314  0.81408  1.0000
  H   H289      1.0  0.43235  0.98196  0.81814  1.0000
  H   H290      1.0  0.10061  0.29775  0.83079  1.0000
  C   C340      1.0  0.07837  0.98973  0.75643  1.0000
  C   C341      1.0  0.35362  0.99258  0.83314  1.0000
  H   H291      1.0  0.40945  0.27900  0.87133  1.0000
  H   H292      1.0  0.40786  0.24553  0.94139  1.0000
  H   H293      1.0  0.06985  0.22183  0.75407  1.0000
  C   C342      1.0  0.45499  0.98939  0.77123  1.0000
  C   C343      1.0  0.46756  0.06704  0.81201  1.0000
  C   C344      1.0  0.41769  0.04692  0.91930  1.0000
  H   H294      1.0  0.02132  0.19433  0.94114  1.0000
  C   C345      1.0  0.10106  0.31239  0.83455  1.0000
  C   C346      1.0  0.42017  0.00154  0.90561  1.0000
  C   C347      1.0  0.30051  0.98138  0.95093  1.0000
  C   C348      1.0  0.23257  0.99652  0.84251  1.0000
  H   H295      1.0  0.46535  0.19311  0.94839  1.0000
  H   H296      1.0  0.99995  0.24857  0.91341  1.0000
  C   C349      1.0  0.42021  0.23404  0.94361  1.0000
  C   C350      1.0  0.44072  0.27265  0.97251  1.0000
  H   H297      1.0  0.45280  0.29658  0.74811  1.0000
  H   H298      1.0  0.41178  0.04586  0.90585  1.0000
  C   C351      1.0  0.47605  0.14896  0.96835  1.0000
  H   H299      1.0  0.48324  0.08821  0.92052  1.0000
  H   H300      1.0  0.00482  0.06969  0.76497  1.0000
  C   C352      1.0  0.01362  0.18320  0.93709  1.0000
  S   S56       1.0  0.45203  0.14580  0.96371  1.0000
  C   C353      1.0  0.34646  0.06010  0.93746  1.0000
  C   C354      1.0  0.01735  0.03049  0.78129  1.0000
  H   H301      1.0  0.45705  0.04795  0.76496  1.0000
  C   C355      1.0  0.06939  0.02958  0.76217  1.0000
  H   H302      1.0  0.07370  0.17651  0.75541  1.0000
  H   H303      1.0  0.01656  0.29573  0.78919  1.0000
  C   C356      1.0  0.05266  0.17452  0.78228  1.0000
  C   C357      1.0  0.00732  0.16416  0.91234  1.0000
  H   H304      1.0  0.48550  0.30931  0.77323  1.0000
  C   C358      1.0  0.99584  0.28230  0.94110  1.0000
  H   H305      1.0  0.47180  0.09169  0.95606  1.0000
  C   C359      1.0  0.01683  0.07311  0.75341  1.0000
  C   C360      1.0  0.44495  0.98335  0.82541  1.0000
  C   C361      1.0  0.05457  0.01958  0.75766  1.0000
  C   C362      1.0  0.38269  0.19952  0.93929  1.0000
  C   C363      1.0  0.35373  0.01884  0.94457  1.0000
  C   C364      1.0  0.45579  0.99951  0.81954  1.0000
  C   C365      1.0  0.47012  0.07867  0.79360  1.0000
  P   P10       1.0  0.45020  0.01684  0.79802  1.0000
  H   H306      1.0  0.47079  0.22820  0.93795  1.0000
  C   C366      1.0  0.42370  0.02133  0.79747  1.0000
  C   C367      1.0  0.41592  0.02475  0.77933  1.0000
  C   C368      1.0  0.39534  0.02850  0.77901  1.0000
  C   C369      1.0  0.38246  0.02901  0.79676  1.0000
  C   C370      1.0  0.39011  0.02588  0.81482  1.0000
  C   C371      1.0  0.41066  0.02221  0.81521  1.0000
  C   C372      1.0  0.02183  0.30838  0.73199  1.0000
  C   C373      1.0  0.43238  0.05089  0.95403  1.0000
  C   C374      1.0  0.13190  0.30974  0.89834  1.0000
  H   H307      1.0  0.25175  0.98896  0.91626  1.0000
  C   C375      1.0  0.45277  0.20465  0.94740  1.0000
  C   C376      1.0  0.45787  0.04106  0.79662  1.0000
  C   C377      1.0  0.46134  0.04836  0.81356  1.0000
  H   H308      1.0  0.00206  0.22636  0.88791  1.0000
  C   C378      1.0  0.06046  0.21855  0.74397  1.0000
  C   C379      1.0  0.01293  0.19761  0.78350  1.0000
  H   H309      1.0  0.00564  0.22569  0.79526  1.0000
  H   H310      1.0  0.34960  0.16990  0.93163  1.0000
  H   H311      1.0  0.43154  0.18438  0.95666  1.0000
  H   H312      1.0  0.09030  0.14229  0.76203  1.0000
  P   P11       1.0  0.03928  0.19909  0.77720  1.0000
  H   H313      1.0  0.46833  0.08070  0.76237  1.0000
  H   H314      1.0  0.42570  0.02444  0.76546  1.0000
  C   C380      1.0  0.00148  0.15632  0.73709  1.0000
  H   H315      1.0  0.36648  0.03145  0.79662  1.0000
  H   H316      1.0  0.37999  0.02596  0.82854  1.0000
  H   H317      1.0  0.41634  0.01990  0.82934  1.0000
  C   C381      1.0  0.40007  0.30716  0.83979  1.0000
  C   C382      1.0  0.42435  0.99288  0.88801  1.0000
  H   H318      1.0  0.36769  0.31028  0.91297  1.0000
  H   H319      1.0  0.02773  0.18593  0.90688  1.0000
  H   H320      1.0  0.41561  0.02749  0.96804  1.0000
  H   H321      1.0  0.45949  0.03963  0.82796  1.0000
  C   C383      1.0  0.47862  0.30830  0.73112  1.0000
  C   C384      1.0  0.36803  0.18670  0.94360  1.0000
  H   H322      1.0  0.03461  0.16739  0.81022  1.0000
  H   H323      1.0  0.99150  0.30323  0.73412  1.0000
  H   H324      1.0  0.04822  0.30435  0.77089  1.0000
  C   C385      1.0  0.01277  0.04059  0.81420  1.0000
  H   H325      1.0  0.36203  0.18107  0.89664  1.0000
  C   C386      1.0  0.47844  0.98507  0.84341  1.0000
  H   H326      1.0  0.02499  0.26711  0.94524  1.0000
  C   C387      1.0  0.45995  0.05309  0.77823  1.0000
  C   C388      1.0  0.02312  0.08595  0.89123  1.0000
  C   C389      1.0  0.03109  0.10019  0.89901  1.0000
  C   C390      1.0  0.01851  0.11563  0.90730  1.0000
  H   H327      1.0  0.99629  0.07614  0.88572  1.0000
  H   H328      1.0  0.38934  0.03075  0.76504  1.0000
  C   C391      1.0  0.43019  0.06121  0.91914  1.0000
  C   C392      1.0  0.36060  0.18010  0.92825  1.0000
  C   C393      1.0  0.07178  0.13557  0.78963  1.0000
  H   H329      1.0  0.36240  0.18170  0.95880  1.0000
  C   C394      1.0  0.99006  0.15938  0.94573  1.0000
  C   C395      1.0  0.03310  0.20300  0.73743  1.0000
  C   C396      1.0  0.08866  0.01983  0.76332  1.0000
  C   C397      1.0  0.36594  0.98523  0.81700  1.0000
  C   C398      1.0  0.04671  0.16213  0.79959  1.0000
  C   C399      1.0  0.46291  0.00481  0.77728  1.0000
  Fe  Fe31      1.0  0.12118  0.98650  0.84530  1.0000
  H   H330      1.0  0.35622  0.00280  0.94720  1.0000
  P   P12       1.0  0.02978  0.03243  0.75617  1.0000
  H   H331      1.0  0.00730  0.10448  0.75147  1.0000
  H   H332      1.0  0.41188  0.98279  0.86483  1.0000
  H   H333      1.0  0.02100  0.19429  0.74233  1.0000
  H   H334      1.0  0.01303  0.30101  0.85725  1.0000
  C   C400      1.0  0.33420  0.02838  0.94558  1.0000
  H   H335      1.0  0.03287  0.07404  0.88473  1.0000
  H   H336      1.0  0.04705  0.09918  0.89867  1.0000
  H   H337      1.0  0.02504  0.12611  0.91369  1.0000
  H   H338      1.0  0.34578  0.98841  0.86483  1.0000
  H   H339      1.0  0.01470  0.16899  0.77357  1.0000
  H   H340      1.0  0.03404  0.00170  0.82463  1.0000
  H   H341      1.0  0.00804  0.25238  0.83311  1.0000
  H   H342      1.0  0.32187  0.01970  0.94879  1.0000
  C   C401      1.0  0.47876  0.28828  0.79877  1.0000
  H   H343      1.0  0.00579  0.26229  0.79758  1.0000
  H   H344      1.0  0.43543  0.31265  0.79964  1.0000
  C   C402      1.0  0.03590  0.30389  0.76283  1.0000
  C   C403      1.0  0.43752  0.06323  0.93649  1.0000
  C   C404      1.0  0.03098  0.05804  0.74625  1.0000
  H   H345      1.0  0.25937  0.00547  0.84968  1.0000
  C   C405      1.0  0.06250  0.29259  0.93663  1.0000
  H   H346      1.0  0.38755  0.20404  0.88883  1.0000
  H   H347      1.0  0.01008  0.16089  0.89716  1.0000
  C   C406      1.0  0.39716  0.99746  0.95752  1.0000
  C   C407      1.0  0.33056  0.04900  0.94186  1.0000
  C   C408      1.0  0.99783  0.11718  0.90741  1.0000
  C   C409      1.0  0.04619  0.99067  0.82022  1.0000
  H   H348      1.0  0.37801  0.05963  0.93221  1.0000
  C   C410      1.0  0.04441  0.20779  0.75104  1.0000
  C   C411      1.0  0.07809  0.14787  0.77248  1.0000
  C   C412      1.0  0.99431  0.01554  0.80761  1.0000
  H   H349      1.0  0.47612  0.29930  0.80892  1.0000
  H   H350      1.0  0.31543  0.05640  0.94207  1.0000
  H   H351      1.0  0.98743  0.03557  0.75268  1.0000
  H   H352      1.0  0.14296  0.29714  0.89571  1.0000
  P   P13       1.0  0.39503  0.01717  0.93703  1.0000
  H   H353      1.0  0.00382  0.26116  0.75287  1.0000
  C   C413      1.0  0.46620  0.07174  0.77671  1.0000
  C   C414      1.0  0.41233  0.03456  0.93686  1.0000
  H   H354      1.0  0.42572  0.10044  0.74551  1.0000
  H   H355      1.0  0.00067  0.00694  0.77840  1.0000
  H   H356      1.0  0.10813  0.99246  0.76118  1.0000
  C   C415      1.0  0.48160  0.00961  0.76813  1.0000
  H   H357      1.0  0.99094  0.11556  0.95734  1.0000
  H   H358      1.0  0.29335  0.99374  0.94176  1.0000
  C   C416      1.0  0.06480  0.99642  0.81272  1.0000
  H   H359      1.0  0.35059  0.22432  0.95342  1.0000
  H   H360      1.0  0.43794  0.05262  0.96750  1.0000
  C   C417      1.0  0.05117  0.31070  0.93986  1.0000
  H   H361      1.0  0.35230  0.31384  0.87797  1.0000
  S   S57       1.0  0.47990  0.27484  0.89271  1.0000
  C   C418      1.0  0.47606  0.07651  0.86782  1.0000
  C   C419      1.0  0.48378  0.98453  0.74652  1.0000
  C   C420      1.0  0.48116  0.25418  0.79301  1.0000
  H   H362      1.0  0.37307  0.98729  0.73386  1.0000
  C   C421      1.0  0.05478  0.28002  0.97123  1.0000
  H   H363      1.0  0.48223  0.01152  0.82337  1.0000
  C   C422      1.0  0.98996  0.10271  0.89976  1.0000
  C   C423      1.0  0.03792  0.30861  0.74220  1.0000
  H   H364      1.0  0.99656  0.23160  0.74059  1.0000
  H   H365      1.0  0.46806  0.27752  0.95362  1.0000
  H   H366      1.0  0.47328  0.26409  0.82179  1.0000
  S   S58       1.0  0.19880  0.98531  0.83223  1.0000
  C   C424      1.0  0.04354  0.29819  0.97460  1.0000
  C   C425      1.0  0.00545  0.26695  0.97299  1.0000
  C   C426      1.0  0.47727  0.26844  0.80603  1.0000
  C   C427      1.0  0.46118  0.26895  0.96671  1.0000
  C   C428      1.0  0.37579  0.22978  0.96655  1.0000
  H   H367      1.0  0.29624  0.98523  0.80769  1.0000
  C   C429      1.0  0.08079  0.98219  0.80772  1.0000
  H   H368      1.0  0.43175  0.28421  0.96399  1.0000
  H   H369      1.0  0.05184  0.31271  0.73413  1.0000
  C   C430      1.0  0.35630  0.23394  0.96164  1.0000
  H   H370      1.0  0.32880  0.25376  0.96367  1.0000
  C   C431      1.0  0.38561  0.99950  0.97595  1.0000
  C   C432      1.0  0.04160  0.31366  0.95890  1.0000
  C   C433      1.0  0.34385  0.25068  0.96743  1.0000
  C   C434      1.0  0.48419  0.29389  0.77851  1.0000
  C   C435      1.0  0.39941  0.16905  0.97677  1.0000
  C   C436      1.0  0.47280  0.25412  0.97769  1.0000
  C   C437      1.0  0.38251  0.24255  0.97748  1.0000
  H   H371      1.0  0.45946  0.44291  0.13119  1.0000
  C   C438      1.0  0.01488  0.33815  0.00389  1.0000
  S   S59       1.0  0.44352  0.60622  0.08689  1.0000
  H   H372      1.0  0.12110  0.60057  0.01493  1.0000
  Fe  Fe32      1.0  0.38408  0.57999  0.00263  1.0000
  S   S60       1.0  0.35746  0.60203  0.01051  1.0000
  S   S61       1.0  0.41018  0.56893  0.02059  1.0000
  H   H373      1.0  0.06330  0.61026  0.01153  1.0000
  Fe  Fe33      1.0  0.33970  0.58371  0.99685  1.0000
  S   S62       1.0  0.30614  0.58277  0.00532  1.0000
  H   H374      1.0  0.45259  0.58291  0.12952  1.0000
  Fe  Fe34      1.0  0.03509  0.51375  0.17889  1.0000
  S   S63       1.0  0.06363  0.50829  0.19237  1.0000
  H   H375      1.0  0.11767  0.50989  0.03354  1.0000
  Fe  Fe35      1.0  0.04203  0.55621  0.16356  1.0000
  S   S64       1.0  0.07032  0.55393  0.17687  1.0000
  S   S65       1.0  0.03572  0.58263  0.14113  1.0000
  Fe  Fe36      1.0  0.07743  0.52507  0.16425  1.0000
  S   S66       1.0  0.10855  0.51646  0.14828  1.0000
  Fe  Fe37      1.0  0.05376  0.53775  0.20369  1.0000
  S   S67       1.0  0.04969  0.52801  0.14992  1.0000
  S   S68       1.0  0.02463  0.54257  0.19125  1.0000
  Fe  Fe38      1.0  0.21024  0.52910  0.02614  1.0000
  S   S69       1.0  0.21002  0.52745  0.99401  1.0000
  S   S70       1.0  0.23874  0.52880  0.03958  1.0000
  Fe  Fe39      1.0  0.16445  0.53084  0.03561  1.0000
  S   S71       1.0  0.16126  0.52888  0.00375  1.0000
  S   S72       1.0  0.13464  0.53744  0.05518  1.0000
  Fe  Fe40      1.0  0.18804  0.50580  0.00416  1.0000
  H   H376      1.0  0.06696  0.62758  0.03913  1.0000
  Fe  Fe41      1.0  0.18344  0.55047  0.99621  1.0000
  H   H377      1.0  0.38018  0.57414  0.10073  1.0000
  S   S73       1.0  0.18972  0.50573  0.03665  1.0000
  S   S74       1.0  0.18521  0.55410  0.02760  1.0000
  H   H378      1.0  0.00480  0.33700  0.03525  1.0000
  C   C439      1.0  0.12260  0.61670  0.98552  1.0000
  C   C440      1.0  0.14665  0.58891  0.99591  1.0000
  C   C441      1.0  0.99776  0.50033  0.07271  1.0000
  H   H379      1.0  0.03520  0.49306  0.11948  1.0000
  H   H380      1.0  0.15170  0.57747  0.00729  1.0000
  C   C442      1.0  0.25298  0.49518  0.97924  1.0000
  C   C443      1.0  0.99328  0.62819  0.13132  1.0000
  C   C444      1.0  0.47866  0.62838  0.00460  1.0000
  H   H381      1.0  0.08863  0.45942  0.03099  1.0000
  C   C445      1.0  0.24230  0.60163  0.09110  1.0000
  S   S75       1.0  0.47547  0.62454  0.12009  1.0000
  C   C446      1.0  0.16042  0.59408  0.11492  1.0000
  C   C447      1.0  0.48066  0.57213  0.21968  1.0000
  C   C448      1.0  0.39902  0.64689  0.01697  1.0000
  C   C449      1.0  0.18632  0.53723  0.11649  1.0000
  H   H382      1.0  0.15488  0.60834  0.02659  1.0000
  C   C450      1.0  0.01431  0.59952  0.14497  1.0000
  H   H383      1.0  0.25069  0.59109  0.03805  1.0000
  H   H384      1.0  0.00999  0.45316  0.09433  1.0000
  C   C451      1.0  0.01082  0.61500  0.12984  1.0000
  H   H385      1.0  0.26542  0.56102  0.07036  1.0000
  H   H386      1.0  0.48193  0.53506  0.04379  1.0000
  H   H387      1.0  0.02154  0.61645  0.11671  1.0000
  Fe  Fe42      1.0  0.47451  0.60598  0.09583  1.0000
  H   H388      1.0  0.18375  0.62215  0.03413  1.0000
  H   H389      1.0  0.99048  0.63980  0.11928  1.0000
  C   C452      1.0  0.25764  0.58870  0.08237  1.0000
  C   C453      1.0  0.07370  0.47929  0.05158  1.0000
  C   C454      1.0  0.12447  0.63412  0.07538  1.0000
  C   C455      1.0  0.13262  0.64573  0.03457  1.0000
  H   H390      1.0  0.20035  0.60734  0.06313  1.0000
  C   C456      1.0  0.99731  0.55853  0.03527  1.0000
  C   C457      1.0  0.11553  0.52245  0.12238  1.0000
  C   C458      1.0  0.10200  0.53270  0.10992  1.0000
  C   C459      1.0  0.10807  0.53703  0.08942  1.0000
  C   C460      1.0  0.12775  0.53129  0.08110  1.0000
  C   C461      1.0  0.14127  0.52104  0.09354  1.0000
  C   C462      1.0  0.13516  0.51661  0.11405  1.0000
  H   H391      1.0  0.08690  0.53734  0.11613  1.0000
  H   H392      1.0  0.09737  0.54489  0.08004  1.0000
  H   H393      1.0  0.15637  0.51640  0.08734  1.0000
  H   H394      1.0  0.14566  0.50850  0.12354  1.0000
  C   C463      1.0  0.29067  0.56363  0.01177  1.0000
  C   C464      1.0  0.27409  0.56454  0.00170  1.0000
  C   C465      1.0  0.25863  0.55300  0.00931  1.0000
  C   C466      1.0  0.25934  0.54079  0.02745  1.0000
  C   C467      1.0  0.27636  0.53909  0.03701  1.0000
  C   C468      1.0  0.29194  0.55043  0.02924  1.0000
  H   H395      1.0  0.24549  0.61541  0.09495  1.0000
  H   H396      1.0  0.24568  0.55441  0.00173  1.0000
  H   H397      1.0  0.27716  0.52956  0.05094  1.0000
  H   H398      1.0  0.30435  0.54986  0.03742  1.0000
  C   C469      1.0  0.43511  0.59670  0.06734  1.0000
  C   C470      1.0  0.41554  0.60296  0.06307  1.0000
  C   C471      1.0  0.40798  0.59541  0.04814  1.0000
  C   C472      1.0  0.41971  0.58093  0.03772  1.0000
  C   C473      1.0  0.43932  0.57474  0.04192  1.0000
  C   C474      1.0  0.44704  0.58265  0.05653  1.0000
  H   H399      1.0  0.40610  0.61371  0.07141  1.0000
  H   H400      1.0  0.39286  0.60032  0.04515  1.0000
  H   H401      1.0  0.44853  0.56358  0.03392  1.0000
  H   H402      1.0  0.46208  0.57762  0.05967  1.0000
  C   C475      1.0  0.46086  0.58084  0.22011  1.0000
  C   C476      1.0  0.45449  0.59176  0.20271  1.0000
  C   C477      1.0  0.46769  0.59377  0.18495  1.0000
  C   C478      1.0  0.43643  0.64548  0.02899  1.0000
  H   H403      1.0  0.46748  0.52853  0.16697  1.0000
  C   C479      1.0  0.00464  0.59587  0.21888  1.0000
  H   H404      1.0  0.43920  0.59860  0.20295  1.0000
  H   H405      1.0  0.46255  0.60209  0.17164  1.0000
  H   H406      1.0  0.10594  0.56557  0.14297  1.0000
  C   C480      1.0  0.25355  0.57098  0.07731  1.0000
  H   H407      1.0  0.23348  0.48283  0.00401  1.0000
  H   H408      1.0  0.26630  0.61317  0.01081  1.0000
  H   H409      1.0  0.02847  0.34376  0.00515  1.0000
  C   C481      1.0  0.47325  0.49958  0.09279  1.0000
  C   C482      1.0  0.45938  0.51637  0.08885  1.0000
  C   C483      1.0  0.46290  0.52931  0.07131  1.0000
  P   P14       1.0  0.43825  0.52231  0.10696  1.0000
  C   C484      1.0  0.42851  0.50019  0.11956  1.0000
  C   C485      1.0  0.44690  0.53585  0.12379  1.0000
  C   C486      1.0  0.45472  0.52579  0.14081  1.0000
  C   C487      1.0  0.46157  0.53627  0.15375  1.0000
  C   C488      1.0  0.46073  0.55686  0.14975  1.0000
  C   C489      1.0  0.45320  0.56693  0.13271  1.0000
  C   C490      1.0  0.44677  0.55644  0.11952  1.0000
  C   C491      1.0  0.41835  0.49996  0.13887  1.0000
  C   C492      1.0  0.42960  0.48361  0.10962  1.0000
  C   C493      1.0  0.41790  0.53624  0.09490  1.0000
  C   C494      1.0  0.41415  0.53143  0.07680  1.0000
  C   C495      1.0  0.04562  0.56254  0.05592  1.0000
  C   C496      1.0  0.10520  0.50152  0.03828  1.0000
  C   C497      1.0  0.39846  0.54211  0.06734  1.0000
  C   C498      1.0  0.40513  0.55130  0.10380  1.0000
  C   C499      1.0  0.99236  0.59162  0.09467  1.0000
  C   C500      1.0  0.01861  0.64291  0.02105  1.0000
  C   C501      1.0  0.24293  0.61502  0.99228  1.0000
  H   H410      1.0  0.47127  0.48994  0.10664  1.0000
  H   H411      1.0  0.45277  0.54266  0.06836  1.0000
  H   H412      1.0  0.45559  0.50986  0.14406  1.0000
  C   C502      1.0  0.00922  0.54519  0.02359  1.0000
  C   C503      1.0  0.25198  0.60901  0.00958  1.0000
  H   H413      1.0  0.98818  0.56929  0.99010  1.0000
  H   H414      1.0  0.44164  0.56450  0.10605  1.0000
  H   H415      1.0  0.41644  0.51294  0.14648  1.0000
  H   H416      1.0  0.43652  0.48380  0.09438  1.0000
  H   H417      1.0  0.42346  0.51962  0.06979  1.0000
  C   C504      1.0  0.08601  0.58946  0.12976  1.0000
  C   C505      1.0  0.00056  0.53166  0.01549  1.0000
  Fe  Fe43      1.0  0.36507  0.61769  0.97972  1.0000
  H   H418      1.0  0.40720  0.55488  0.11807  1.0000
  C   C506      1.0  0.00220  0.47723  0.17313  1.0000
  C   C507      1.0  0.09292  0.57389  0.03641  1.0000
  C   C508      1.0  0.08139  0.58340  0.02181  1.0000
  C   C509      1.0  0.08572  0.60310  0.05359  1.0000
  C   C510      1.0  0.09517  0.58371  0.05215  1.0000
  P   P15       1.0  0.09084  0.61712  0.07213  1.0000
  H   H419      1.0  0.04233  0.46532  0.09241  1.0000
  C   C511      1.0  0.41173  0.46643  0.13859  1.0000
  C   C512      1.0  0.11271  0.62891  0.06243  1.0000
  C   C513      1.0  0.08885  0.47307  0.03694  1.0000
  H   H420      1.0  0.02846  0.63156  0.02872  1.0000
  H   H421      1.0  0.00422  0.56888  0.04156  1.0000
  C   C514      1.0  0.09542  0.60115  0.09493  1.0000
  C   C515      1.0  0.11311  0.58791  0.09536  1.0000
  C   C516      1.0  0.11690  0.57519  0.11259  1.0000
  C   C517      1.0  0.10327  0.57584  0.12975  1.0000
  C   C518      1.0  0.46848  0.46351  0.14768  1.0000
  H   H422      1.0  0.12118  0.63018  0.09125  1.0000
  H   H423      1.0  0.10064  0.55907  0.03529  1.0000
  H   H424      1.0  0.08025  0.57606  0.00924  1.0000
  H   H425      1.0  0.10467  0.57613  0.06278  1.0000
  H   H426      1.0  0.45465  0.46464  0.15763  1.0000
  C   C519      1.0  0.06989  0.63621  0.07578  1.0000
  H   H427      1.0  0.04229  0.58864  0.07045  1.0000
  C   C520      1.0  0.99393  0.32525  0.98487  1.0000
  H   H428      1.0  0.01903  0.59208  0.21043  1.0000
  C   C521      1.0  0.99238  0.46124  0.18276  1.0000
  H   H429      1.0  0.12386  0.58719  0.08227  1.0000
  H   H430      1.0  0.13016  0.56440  0.11254  1.0000
  C   C522      1.0  0.18773  0.60108  0.06018  1.0000
  H   H431      1.0  0.00714  0.57309  0.11763  1.0000
  H   H432      1.0  0.15928  0.56385  0.07706  1.0000
  H   H433      1.0  0.02365  0.49734  0.22599  1.0000
  H   H434      1.0  0.37458  0.56620  0.06814  1.0000
  C   C523      1.0  0.23414  0.56615  0.08091  1.0000
  C   C524      1.0  0.16198  0.60187  0.03950  1.0000
  H   H435      1.0  0.21910  0.57903  0.03527  1.0000
  H   H436      1.0  0.15308  0.59585  0.10181  1.0000
  C   C525      1.0  0.44341  0.60311  0.98589  1.0000
  H   H437      1.0  0.11656  0.47915  0.01925  1.0000
  C   C526      1.0  0.19241  0.54705  0.09761  1.0000
  C   C527      1.0  0.98901  0.58518  0.21828  1.0000
  C   C528      1.0  0.47116  0.45131  0.13274  1.0000
  C   C529      1.0  0.16463  0.57676  0.06800  1.0000
  C   C530      1.0  0.30747  0.64041  0.98658  1.0000
  C   C531      1.0  0.41019  0.48305  0.14842  1.0000
  S   S76       1.0  0.10158  0.63359  0.99150  1.0000
  H   H438      1.0  0.15078  0.60473  0.16243  1.0000
  C   C532      1.0  0.10460  0.48416  0.03031  1.0000
  H   H439      1.0  0.21113  0.60722  0.10126  1.0000
  H   H440      1.0  0.23158  0.55244  0.07653  1.0000
  H   H441      1.0  0.04736  0.47872  0.15116  1.0000
  H   H442      1.0  0.06192  0.47024  0.05680  1.0000
  C   C533      1.0  0.99564  0.48076  0.08074  1.0000
  C   C534      1.0  0.08203  0.60205  0.11246  1.0000
  C   C535      1.0  0.07411  0.49682  0.05955  1.0000
  C   C536      1.0  0.09006  0.50782  0.05284  1.0000
  P   P16       1.0  0.05558  0.50427  0.07959  1.0000
  C   C537      1.0  0.06457  0.49425  0.10295  1.0000
  C   C538      1.0  0.05172  0.53104  0.07679  1.0000
  C   C539      1.0  0.05125  0.54128  0.09302  1.0000
  C   C540      1.0  0.04813  0.56200  0.09067  1.0000
  H   H443      1.0  0.07546  0.58999  0.14313  1.0000
  H   H444      1.0  0.46530  0.62937  0.22033  1.0000
  C   C541      1.0  0.04923  0.54184  0.05812  1.0000
  C   C542      1.0  0.08504  0.49064  0.10435  1.0000
  C   C543      1.0  0.26051  0.48876  0.01306  1.0000
  H   H445      1.0  0.06844  0.61227  0.11308  1.0000
  C   C544      1.0  0.22528  0.58968  0.02362  1.0000
  C   C545      1.0  0.03231  0.49499  0.07896  1.0000
  C   C546      1.0  0.03008  0.47523  0.08666  1.0000
  C   C547      1.0  0.01179  0.46823  0.08769  1.0000
  C   C548      1.0  0.99283  0.55607  0.10144  1.0000
  H   H446      1.0  0.01697  0.52282  0.06617  1.0000
  C   C549      1.0  0.01595  0.50749  0.07194  1.0000
  C   C550      1.0  0.47948  0.52504  0.05741  1.0000
  H   H447      1.0  0.28885  0.49587  0.01759  1.0000
  H   H448      1.0  0.09117  0.52101  0.05919  1.0000
  H   H449      1.0  0.05345  0.53336  0.10746  1.0000
  H   H450      1.0  0.04803  0.56980  0.10324  1.0000
  C   C551      1.0  0.21858  0.57901  0.08977  1.0000
  H   H451      1.0  0.99769  0.54205  0.10989  1.0000
  H   H452      1.0  0.04997  0.53419  0.04534  1.0000
  H   H453      1.0  0.09589  0.49417  0.09168  1.0000
  H   H454      1.0  0.25608  0.48404  0.02864  1.0000
  S   S77       1.0  0.19493  0.47754  0.98991  1.0000
  H   H455      1.0  0.29584  0.61597  0.97853  1.0000
  C   C552      1.0  0.21598  0.59592  0.00662  1.0000
  H   H456      1.0  0.29895  0.50685  0.98225  1.0000
  H   H457      1.0  0.46321  0.60823  0.02652  1.0000
  C   C553      1.0  0.24309  0.59648  0.02521  1.0000
  H   H458      1.0  0.42207  0.45407  0.11135  1.0000
  C   C554      1.0  0.15501  0.58562  0.05173  1.0000
  C   C555      1.0  0.07176  0.60260  0.02316  1.0000
  C   C556      1.0  0.47614  0.63693  0.21009  1.0000
  H   H459      1.0  0.18533  0.58786  0.16290  1.0000
  C   C557      1.0  0.19870  0.53589  0.08181  1.0000
  H   H460      1.0  0.00980  0.52126  0.00651  1.0000
  C   C558      1.0  0.07825  0.47843  0.13927  1.0000
  H   H461      1.0  0.20317  0.54307  0.06704  1.0000
  H   H462      1.0  0.00333  0.58554  0.17380  1.0000
  C   C559      1.0  0.05787  0.48188  0.13801  1.0000
  C   C560      1.0  0.17828  0.60964  0.04374  1.0000
  H   H463      1.0  0.27271  0.59241  0.07939  1.0000
  C   C561      1.0  0.19994  0.51524  0.08504  1.0000
  H   H464      1.0  0.01957  0.64134  0.08853  1.0000
  H   H465      1.0  0.10812  0.63097  0.03172  1.0000
  P   P17       1.0  0.45707  0.63754  0.99222  1.0000
  S   S78       1.0  0.36570  0.55991  0.99165  1.0000
  C   C562      1.0  0.38631  0.55756  0.07589  1.0000
  H   H466      1.0  0.32198  0.63212  0.98829  1.0000
  H   H467      1.0  0.20380  0.57453  0.13305  1.0000
  H   H468      1.0  0.04349  0.57085  0.04157  1.0000
  H   H469      1.0  0.46605  0.56500  0.15975  1.0000
  H   H470      1.0  0.03576  0.64065  0.99235  1.0000
  C   C563      1.0  0.00055  0.59752  0.16209  1.0000
  H   H471      1.0  0.40234  0.48298  0.16332  1.0000
  C   C564      1.0  0.17991  0.58429  0.11512  1.0000
  C   C565      1.0  0.18707  0.51660  0.11954  1.0000
  H   H472      1.0  0.40514  0.45345  0.14590  1.0000
  C   C566      1.0  0.38957  0.56209  0.09417  1.0000
  H   H473      1.0  0.14258  0.57938  0.04816  1.0000
  H   H474      1.0  0.08355  0.47280  0.15337  1.0000
  H   H475      1.0  0.20566  0.50671  0.07293  1.0000
  C   C567      1.0  0.17843  0.58971  0.14945  1.0000
  H   H476      1.0  0.04861  0.61551  0.08624  1.0000
  C   C568      1.0  0.11701  0.63468  0.04198  1.0000
  C   C569      1.0  0.24770  0.48827  0.99922  1.0000
  C   C570      1.0  0.05104  0.49001  0.12000  1.0000
  C   C571      1.0  0.05080  0.63092  0.08227  1.0000
  H   H477      1.0  0.10759  0.48050  0.12360  1.0000
  H   H478      1.0  0.02515  0.54537  0.02078  1.0000
  H   H479      1.0  0.00832  0.49576  0.14552  1.0000
  H   H480      1.0  0.39602  0.53879  0.05304  1.0000
  C   C572      1.0  0.99824  0.57355  0.10578  1.0000
  C   C573      1.0  0.12930  0.60194  0.00021  1.0000
  C   C574      1.0  0.07392  0.61242  0.03893  1.0000
  H   H481      1.0  0.43456  0.60339  0.00028  1.0000
  C   C575      1.0  0.15897  0.59922  0.14919  1.0000
  S   S79       1.0  0.01529  0.48920  0.18717  1.0000
  C   C576      1.0  0.42133  0.46676  0.11915  1.0000
  H   H482      1.0  0.48120  0.48359  0.16149  1.0000
  C   C577      1.0  0.14998  0.60143  0.13192  1.0000
  C   C578      1.0  0.00123  0.48319  0.15293  1.0000
  C   C579      1.0  0.18887  0.58224  0.13250  1.0000
  C   C580      1.0  0.27893  0.49552  0.00683  1.0000
  C   C581      1.0  0.18113  0.58442  0.07230  1.0000
  H   H483      1.0  0.18091  0.54528  0.12895  1.0000
  H   H484      1.0  0.18219  0.50913  0.13408  1.0000
  C   C582      1.0  0.09180  0.48275  0.12244  1.0000
  H   H485      1.0  0.19476  0.48960  0.10624  1.0000
  C   C583      1.0  0.04504  0.57261  0.07219  1.0000
  H   H486      1.0  0.20232  0.59041  0.00518  1.0000
  C   C584      1.0  0.47729  0.61362  0.02098  1.0000
  P   P18       1.0  0.19314  0.57354  0.09369  1.0000
  C   C585      1.0  0.19405  0.50559  0.10386  1.0000
  C   C586      1.0  0.22285  0.59685  0.09476  1.0000
  H   H487      1.0  0.13480  0.60859  0.13182  1.0000
  C   C587      1.0  0.01094  0.33406  0.98554  1.0000
  C   C588      1.0  0.99118  0.47268  0.14234  1.0000
  C   C589      1.0  0.00157  0.33417  0.02107  1.0000
  C   C590      1.0  0.47286  0.64190  0.19028  1.0000
  C   C591      1.0  0.28443  0.50209  0.98680  1.0000
  C   C592      1.0  0.41620  0.64296  0.00368  1.0000
  H   H488      1.0  0.99166  0.57332  0.20922  1.0000
  C   C593      1.0  0.14028  0.64495  0.06791  1.0000
  C   C594      1.0  0.43504  0.64175  0.00976  1.0000
  C   C595      1.0  0.03429  0.64549  0.08350  1.0000
  H   H489      1.0  0.99673  0.60520  0.09772  1.0000
  C   C596      1.0  0.22466  0.60866  0.99107  1.0000
  H   H490      1.0  0.41472  0.64079  0.98871  1.0000
  C   C597      1.0  0.29258  0.63130  0.98117  1.0000
  H   H491      1.0  0.43359  0.57603  0.98142  1.0000
  H   H492      1.0  0.99079  0.47713  0.12665  1.0000
  H   H493      1.0  0.27272  0.57497  0.98842  1.0000
  C   C598      1.0  0.48367  0.47417  0.14988  1.0000
  S   S80       1.0  0.99677  0.64479  0.05725  1.0000
  H   H494      1.0  0.45960  0.63828  0.18559  1.0000
  H   H495      1.0  0.99305  0.45653  0.19840  1.0000
  H   H496      1.0  0.45073  0.64519  0.03390  1.0000
  C   C599      1.0  0.27374  0.64193  0.97900  1.0000
  H   H497      1.0  0.38454  0.64741  0.01228  1.0000
  H   H498      1.0  0.02435  0.37559  0.97939  1.0000
  H   H499      1.0  0.04859  0.39791  0.98215  1.0000
  Fe  Fe44      1.0  0.46612  0.51668  0.28712  1.0000
  S   S81       1.0  0.43718  0.52908  0.27564  1.0000
  P   P19       1.0  0.43830  0.58955  0.40749  1.0000
  Fe  Fe45      1.0  0.46435  0.55056  0.31070  1.0000
  S   S82       1.0  0.43570  0.56627  0.30081  1.0000
  H   H500      1.0  0.01398  0.61953  0.23099  1.0000
  Fe  Fe46      1.0  0.42591  0.53605  0.30668  1.0000
  S   S83       1.0  0.39528  0.52969  0.32197  1.0000
  Fe  Fe47      1.0  0.44924  0.55825  0.27048  1.0000
  H   H501      1.0  0.34854  0.45539  0.44405  1.0000
  S   S84       1.0  0.45380  0.52075  0.31846  1.0000
  C   C600      1.0  0.32536  0.63562  0.40510  1.0000
  Fe  Fe48      1.0  0.30660  0.56460  0.46227  1.0000
  S   S85       1.0  0.33161  0.54250  0.45120  1.0000
  C   C601      1.0  0.01143  0.50254  0.27505  1.0000
  Fe  Fe49      1.0  0.28058  0.56012  0.43155  1.0000
  S   S86       1.0  0.30353  0.53745  0.41741  1.0000
  S   S87       1.0  0.24971  0.56996  0.42238  1.0000
  Fe  Fe50      1.0  0.30747  0.52476  0.44889  1.0000
  C   C602      1.0  0.99701  0.57009  0.27137  1.0000
  Fe  Fe51      1.0  0.32614  0.55700  0.42060  1.0000
  S   S88       1.0  0.35336  0.56623  0.39994  1.0000
  S   S89       1.0  0.28286  0.54557  0.46251  1.0000
  S   S90       1.0  0.30284  0.58073  0.43212  1.0000
  H   H502      1.0  0.03776  0.63456  0.42915  1.0000
  C   C603      1.0  0.31841  0.60757  0.37302  1.0000
  H   H503      1.0  0.45019  0.55269  0.39036  1.0000
  H   H504      1.0  0.40134  0.57246  0.40566  1.0000
  C   C604      1.0  0.47361  0.62908  0.46593  1.0000
  Fe  Fe52      1.0  0.11099  0.61751  0.46556  1.0000
  S   S91       1.0  0.09718  0.62821  0.43709  1.0000
  C   C605      1.0  0.28013  0.62452  0.45947  1.0000
  Fe  Fe53      1.0  0.02028  0.59936  0.32683  1.0000
  S   S92       1.0  0.02327  0.57158  0.34844  1.0000
  S   S93       1.0  0.03300  0.60407  0.29412  1.0000
  C   C606      1.0  0.29265  0.62683  0.44152  1.0000
  Fe  Fe54      1.0  0.02716  0.59126  0.37065  1.0000
  S   S94       1.0  0.04869  0.57968  0.39339  1.0000
  S   S95       1.0  0.02708  0.61862  0.34822  1.0000
  C   C607      1.0  0.08352  0.61459  0.42527  1.0000
  C   C608      1.0  0.08014  0.59525  0.43291  1.0000
  C   C609      1.0  0.06918  0.58492  0.42312  1.0000
  C   C610      1.0  0.06124  0.59388  0.40575  1.0000
  C   C611      1.0  0.06447  0.61332  0.39819  1.0000
  C   C612      1.0  0.07567  0.62356  0.40786  1.0000
  H   H505      1.0  0.08590  0.58832  0.44641  1.0000
  H   H506      1.0  0.06683  0.56987  0.42904  1.0000
  H   H507      1.0  0.05866  0.62028  0.38470  1.0000
  C   C613      1.0  0.40941  0.60739  0.38382  1.0000
  C   C614      1.0  0.04882  0.55591  0.25237  1.0000
  H   H508      1.0  0.46342  0.44745  0.37027  1.0000
  C   C615      1.0  0.04299  0.59054  0.25783  1.0000
  C   C616      1.0  0.03935  0.58516  0.27847  1.0000
  C   C617      1.0  0.04075  0.56504  0.28603  1.0000
  C   C618      1.0  0.04568  0.55052  0.27304  1.0000
  H   H509      1.0  0.33477  0.60401  0.40788  1.0000
  H   H510      1.0  0.04221  0.60604  0.25189  1.0000
  H   H511      1.0  0.03800  0.56068  0.30186  1.0000
  H   H512      1.0  0.04677  0.53501  0.27903  1.0000
  C   C619      1.0  0.23086  0.57920  0.44052  1.0000
  C   C620      1.0  0.23570  0.58519  0.45752  1.0000
  C   C621      1.0  0.25145  0.63083  0.44175  1.0000
  C   C622      1.0  0.20055  0.59538  0.46851  1.0000
  C   C623      1.0  0.19562  0.58887  0.45178  1.0000
  C   C624      1.0  0.21074  0.58095  0.43775  1.0000
  H   H513      1.0  0.25113  0.58401  0.45974  1.0000
  C   C625      1.0  0.44096  0.61258  0.41579  1.0000
  H   H514      1.0  0.18020  0.59018  0.44954  1.0000
  H   H515      1.0  0.20685  0.57627  0.42468  1.0000
  H   H516      1.0  0.08159  0.51745  0.44005  1.0000
  C   C626      1.0  0.98865  0.53880  0.28946  1.0000
  C   C627      1.0  0.00627  0.51193  0.32737  1.0000
  C   C628      1.0  0.00707  0.55581  0.41555  1.0000
  C   C629      1.0  0.38386  0.53987  0.34371  1.0000
  C   C630      1.0  0.39252  0.55355  0.35162  1.0000
  C   C631      1.0  0.38292  0.56152  0.36878  1.0000
  C   C632      1.0  0.36470  0.55577  0.37835  1.0000
  C   C633      1.0  0.35598  0.54215  0.37044  1.0000
  C   C634      1.0  0.36553  0.53426  0.35318  1.0000
  H   H517      1.0  0.40659  0.55804  0.34447  1.0000
  H   H518      1.0  0.38968  0.57217  0.37466  1.0000
  H   H519      1.0  0.34183  0.53784  0.37749  1.0000
  H   H520      1.0  0.35869  0.52376  0.34708  1.0000
  Fe  Fe55      1.0  0.99026  0.57858  0.35751  1.0000
  C   C635      1.0  0.47596  0.43600  0.37208  1.0000
  H   H521      1.0  0.48047  0.59023  0.30218  1.0000
  C   C636      1.0  0.33892  0.61845  0.40833  1.0000
  C   C637      1.0  0.30174  0.61252  0.38682  1.0000
  C   C638      1.0  0.43116  0.59655  0.34852  1.0000
  H   H522      1.0  0.47797  0.59027  0.41990  1.0000
  H   H523      1.0  0.43947  0.57552  0.44937  1.0000
  C   C639      1.0  0.99441  0.50278  0.31745  1.0000
  H   H524      1.0  0.25967  0.50965  0.42073  1.0000
  C   C640      1.0  0.28761  0.58408  0.38048  1.0000
  C   C641      1.0  0.30461  0.57883  0.36746  1.0000
  C   C642      1.0  0.25956  0.62648  0.45959  1.0000
  H   H525      1.0  0.37922  0.55453  0.43112  1.0000
  H   H526      1.0  0.33059  0.61636  0.36998  1.0000
  C   C643      1.0  0.28610  0.60090  0.39004  1.0000
  H   H527      1.0  0.46659  0.61819  0.39418  1.0000
  C   C644      1.0  0.03028  0.62480  0.44072  1.0000
  H   H528      1.0  0.30855  0.62481  0.44194  1.0000
  C   C645      1.0  0.36549  0.47909  0.44576  1.0000
  C   C646      1.0  0.03894  0.61756  0.45794  1.0000
  C   C647      1.0  0.35736  0.60294  0.46181  1.0000
  H   H529      1.0  0.40093  0.61174  0.39739  1.0000
  H   H530      1.0  0.33327  0.58637  0.35378  1.0000
  H   H531      1.0  0.04509  0.38479  0.46526  1.0000
  S   S96       1.0  0.05482  0.53692  0.23682  1.0000
  H   H532      1.0  0.05021  0.58034  0.22899  1.0000
  C   C648      1.0  0.04347  0.48854  0.24810  1.0000
  C   C649      1.0  0.40497  0.56949  0.42065  1.0000
  C   C650      1.0  0.10417  0.54823  0.46104  1.0000
  C   C651      1.0  0.09144  0.52800  0.44128  1.0000
  C   C652      1.0  0.00180  0.61135  0.23043  1.0000
  H   H533      1.0  0.43958  0.46050  0.42073  1.0000
  C   C653      1.0  0.45314  0.64524  0.28503  1.0000
  H   H534      1.0  0.33410  0.47182  0.41429  1.0000
  H   H535      1.0  0.27577  0.57482  0.38362  1.0000
  H   H536      1.0  0.30602  0.56548  0.36052  1.0000
  H   H537      1.0  0.01340  0.52455  0.31994  1.0000
  H   H538      1.0  0.38612  0.61993  0.36609  1.0000
  H   H539      1.0  0.27301  0.60416  0.40047  1.0000
  H   H540      1.0  0.16094  0.61247  0.42602  1.0000
  H   H541      1.0  0.33767  0.58434  0.45465  1.0000
  H   H542      1.0  0.45553  0.43170  0.44164  1.0000
  C   C654      1.0  0.02524  0.49633  0.24156  1.0000
  C   C655      1.0  0.43017  0.63758  0.43797  1.0000
  H   H543      1.0  0.14273  0.63874  0.40435  1.0000
  C   C656      1.0  0.42189  0.57581  0.42569  1.0000
  C   C657      1.0  0.41394  0.56030  0.45956  1.0000
  C   C658      1.0  0.26106  0.49544  0.45065  1.0000
  S   S97       1.0  0.38253  0.62660  0.46984  1.0000
  H   H544      1.0  0.37951  0.50574  0.44324  1.0000
  C   C659      1.0  0.36128  0.61442  0.47552  1.0000
  C   C660      1.0  0.46307  0.55639  0.39571  1.0000
  H   H545      1.0  0.00566  0.54236  0.26016  1.0000
  H   H546      1.0  0.43969  0.59227  0.33488  1.0000
  C   C661      1.0  0.09681  0.55906  0.36250  1.0000
  C   C662      1.0  0.10983  0.55228  0.34659  1.0000
  C   C663      1.0  0.13004  0.54694  0.34831  1.0000
  C   C664      1.0  0.13726  0.54836  0.36596  1.0000
  C   C665      1.0  0.12422  0.55500  0.38208  1.0000
  C   C666      1.0  0.10397  0.56046  0.38013  1.0000
  P   P20       1.0  0.13334  0.55781  0.40471  1.0000
  C   C667      1.0  0.11657  0.54899  0.42597  1.0000
  C   C668      1.0  0.15753  0.54347  0.40640  1.0000
  C   C669      1.0  0.15936  0.52453  0.41742  1.0000
  C   C670      1.0  0.17818  0.51394  0.41945  1.0000
  C   C671      1.0  0.19528  0.52213  0.41049  1.0000
  C   C672      1.0  0.19359  0.54087  0.39932  1.0000
  C   C673      1.0  0.17481  0.55144  0.39713  1.0000
  C   C674      1.0  0.10407  0.53497  0.42461  1.0000
  H   H547      1.0  0.38708  0.54647  0.46567  1.0000
  C   C675      1.0  0.44064  0.43849  0.44649  1.0000
  H   H548      1.0  0.40580  0.47591  0.43149  1.0000
  H   H549      1.0  0.01702  0.51293  0.35497  1.0000
  C   C676      1.0  0.13572  0.58359  0.40505  1.0000
  C   C677      1.0  0.14859  0.58874  0.41700  1.0000
  C   C678      1.0  0.15115  0.60855  0.41667  1.0000
  H   H550      1.0  0.03202  0.49425  0.29682  1.0000
  C   C679      1.0  0.12793  0.61847  0.39270  1.0000
  C   C680      1.0  0.12526  0.59868  0.39304  1.0000
  H   H551      1.0  0.08112  0.56340  0.36120  1.0000
  H   H552      1.0  0.10422  0.55130  0.33289  1.0000
  H   H553      1.0  0.14012  0.54179  0.33590  1.0000
  H   H554      1.0  0.15298  0.54432  0.36690  1.0000
  H   H555      1.0  0.09369  0.56597  0.39221  1.0000
  H   H556      1.0  0.14633  0.51794  0.42458  1.0000
  H   H557      1.0  0.17951  0.49939  0.42806  1.0000
  H   H558      1.0  0.20985  0.51397  0.41219  1.0000
  H   H559      1.0  0.20687  0.54727  0.39246  1.0000
  H   H560      1.0  0.17379  0.56594  0.38841  1.0000
  H   H561      1.0  0.10401  0.52937  0.41075  1.0000
  C   C681      1.0  0.39243  0.55906  0.43507  1.0000
  C   C682      1.0  0.00852  0.50526  0.34721  1.0000
  H   H562      1.0  0.12636  0.56582  0.44585  1.0000
  C   C683      1.0  0.42841  0.59657  0.38415  1.0000
  H   H563      1.0  0.15669  0.57747  0.42658  1.0000
  H   H564      1.0  0.30048  0.64472  0.35701  1.0000
  C   C684      1.0  0.42762  0.62002  0.43133  1.0000
  C   C685      1.0  0.36973  0.49807  0.43703  1.0000
  H   H565      1.0  0.11486  0.59541  0.38404  1.0000
  C   C686      1.0  0.45629  0.62346  0.40641  1.0000
  S   S98       1.0  0.47928  0.55820  0.33491  1.0000
  S   S99       1.0  0.30976  0.49249  0.46083  1.0000
  C   C687      1.0  0.39687  0.55450  0.45453  1.0000
  H   H566      1.0  0.07832  0.63849  0.40179  1.0000
  H   H567      1.0  0.36780  0.60113  0.44865  1.0000
  C   C688      1.0  0.45901  0.64080  0.41334  1.0000
  H   H568      1.0  0.41529  0.61233  0.43854  1.0000
  C   C689      1.0  0.01119  0.59918  0.47041  1.0000
  C   C690      1.0  0.43947  0.59172  0.36624  1.0000
  C   C691      1.0  0.00368  0.57140  0.42705  1.0000
  H   H569      1.0  0.21719  0.53526  0.46498  1.0000
  H   H570      1.0  0.10423  0.55339  0.47517  1.0000
  C   C692      1.0  0.98766  0.57995  0.28726  1.0000
  C   C693      1.0  0.11669  0.55532  0.44437  1.0000
  C   C694      1.0  0.34042  0.59322  0.46538  1.0000
  C   C695      1.0  0.48587  0.61788  0.45222  1.0000
  S   S100      1.0  0.13283  0.59042  0.47287  1.0000
  C   C696      1.0  0.35265  0.46965  0.43737  1.0000
  C   C697      1.0  0.14092  0.62339  0.40443  1.0000
  C   C698      1.0  0.41188  0.60656  0.34846  1.0000
  C   C699      1.0  0.04747  0.57601  0.24481  1.0000
  H   H571      1.0  0.99370  0.53636  0.40121  1.0000
  C   C700      1.0  0.44766  0.61539  0.27330  1.0000
  C   C701      1.0  0.34877  0.49775  0.41179  1.0000
  C   C702      1.0  0.36144  0.50731  0.42009  1.0000
  C   C703      1.0  0.09146  0.53467  0.45948  1.0000
  C   C704      1.0  0.40194  0.45595  0.45895  1.0000
  H   H572      1.0  0.00605  0.62444  0.42447  1.0000
  H   H573      1.0  0.23110  0.53453  0.43016  1.0000
  H   H574      1.0  0.40531  0.60986  0.33478  1.0000
  S   S101      1.0  0.44375  0.57901  0.24212  1.0000
  C   C705      1.0  0.00932  0.50340  0.25494  1.0000
  H   H575      1.0  0.34218  0.50501  0.39880  1.0000
  H   H576      1.0  0.36468  0.52197  0.41345  1.0000
  C   C706      1.0  0.46494  0.61625  0.25973  1.0000
  C   C707      1.0  0.34435  0.47897  0.42044  1.0000
  H   H577      1.0  0.37189  0.42778  0.45889  1.0000
  H   H578      1.0  0.11953  0.63004  0.38369  1.0000
  C   C708      1.0  0.42639  0.57093  0.44522  1.0000
  C   C709      1.0  0.46177  0.57363  0.40470  1.0000
  P   P21       1.0  0.30068  0.63366  0.40003  1.0000
  C   C710      1.0  0.01224  0.61909  0.43818  1.0000
  S   S102      1.0  0.48366  0.48839  0.27743  1.0000
  C   C711      1.0  0.31993  0.59065  0.36362  1.0000
  Fe  Fe56      1.0  0.99406  0.62286  0.35766  1.0000
  C   C712      1.0  0.22063  0.59327  0.47141  1.0000
  H   H579      1.0  0.05596  0.48366  0.23756  1.0000
  H   H580      1.0  0.43877  0.60353  0.27387  1.0000
  S   S103      1.0  0.98712  0.60553  0.33468  1.0000
  C   C713      1.0  0.02940  0.60477  0.47279  1.0000
  H   H581      1.0  0.45448  0.58415  0.36575  1.0000
  C   C714      1.0  0.25318  0.49559  0.47059  1.0000
  C   C715      1.0  0.22916  0.52371  0.46130  1.0000
  C   C716      1.0  0.47660  0.41808  0.36465  1.0000
  C   C717      1.0  0.35792  0.61964  0.41254  1.0000
  C   C718      1.0  0.23703  0.52341  0.44140  1.0000
  C   C719      1.0  0.43166  0.45470  0.43472  1.0000
  C   C720      1.0  0.25309  0.50940  0.43608  1.0000
  H   H582      1.0  0.01637  0.57760  0.42999  1.0000
  H   H583      1.0  0.27382  0.48481  0.44658  1.0000
  C   C721      1.0  0.00249  0.60630  0.45304  1.0000
  H   H584      1.0  0.99552  0.50992  0.24952  1.0000
  H   H585      1.0  0.02213  0.55034  0.40970  1.0000
  C   C722      1.0  0.28466  0.63096  0.42345  1.0000
  H   H586      1.0  0.00479  0.57813  0.25863  1.0000
  H   H587      1.0  0.46454  0.41564  0.35715  1.0000
  C   C723      1.0  0.04576  0.48776  0.26805  1.0000
  H   H588      1.0  0.05316  0.62175  0.45964  1.0000
  C   C724      1.0  0.40108  0.61219  0.36608  1.0000
  H   H589      1.0  0.36819  0.60617  0.41475  1.0000
  C   C725      1.0  0.99752  0.54962  0.27238  1.0000
  H   H590      1.0  0.28647  0.62077  0.47329  1.0000
  H   H591      1.0  0.08167  0.52932  0.47240  1.0000
  C   C726      1.0  0.02981  0.49471  0.28152  1.0000
  H   H592      1.0  0.46311  0.62211  0.47709  1.0000
  S   S104      1.0  0.47896  0.54549  0.28009  1.0000
  C   C727      1.0  0.44186  0.62974  0.28609  1.0000
  H   H593      1.0  0.46939  0.60479  0.25018  1.0000
  C   C728      1.0  0.47858  0.57768  0.41203  1.0000
  H   H594      1.0  0.06007  0.48219  0.27295  1.0000
  S   S105      1.0  0.12875  0.63825  0.47590  1.0000
  H   H595      1.0  0.07591  0.36093  0.46686  1.0000
  C   C729      1.0  0.99933  0.48914  0.35717  1.0000
  C   C730      1.0  0.41240  0.46342  0.44090  1.0000
  P   P22       1.0  0.37700  0.46700  0.46720  1.0000
  C   C731      1.0  0.47642  0.63168  0.25860  1.0000
  H   H596      1.0  0.41748  0.55668  0.47460  1.0000
  H   H597      1.0  0.42863  0.62882  0.29680  1.0000
  C   C732      1.0  0.23712  0.50976  0.47617  1.0000
  H   H598      1.0  0.00082  0.48421  0.37264  1.0000
  S   S106      1.0  0.99436  0.59647  0.38126  1.0000
  P   P23       1.0  0.99083  0.51212  0.29210  1.0000
  H   H599      1.0  0.48473  0.60230  0.45290  1.0000
  C   C733      1.0  0.99108  0.54786  0.41082  1.0000
  C   C734      1.0  0.48118  0.54415  0.39291  1.0000
  H   H600      1.0  0.37768  0.63867  0.41901  1.0000
  H   H601      1.0  0.23550  0.63196  0.44188  1.0000
  C   C735      1.0  0.36325  0.63792  0.41471  1.0000
  C   C736      1.0  0.26392  0.63318  0.42375  1.0000
  H   H602      1.0  0.48214  0.53128  0.38536  1.0000
  H   H603      1.0  0.25739  0.63639  0.41005  1.0000
  C   C737      1.0  0.98785  0.47969  0.34729  1.0000
  C   C738      1.0  0.36447  0.42960  0.47366  1.0000
  H   H604      1.0  0.98813  0.59569  0.28674  1.0000
  H   H605      1.0  0.24991  0.62434  0.47350  1.0000
  H   H606      1.0  0.48579  0.56384  0.23300  1.0000
  H   H607      1.0  0.42013  0.64297  0.45032  1.0000
  C   C739      1.0  0.47023  0.64636  0.27121  1.0000
  C   C740      1.0  0.04572  0.37241  0.47700  1.0000
  C   C741      1.0  0.43040  0.43103  0.46451  1.0000
  C   C742      1.0  0.41116  0.43973  0.47076  1.0000
  H   H608      1.0  0.43735  0.41846  0.47365  1.0000
  C   C743      1.0  0.06308  0.35897  0.47789  1.0000
  C   C744      1.0  0.17248  0.46703  0.69461  1.0000
  C   C745      1.0  0.99441  0.36536  0.56047  1.0000
  C   C746      1.0  0.07889  0.53194  0.71724  1.0000
  S   S107      1.0  0.41772  0.59704  0.55419  1.0000
  S   S108      1.0  0.42353  0.62219  0.50220  1.0000
  Fe  Fe57      1.0  0.43035  0.49400  0.67514  1.0000
  S   S109      1.0  0.40664  0.47414  0.67949  1.0000
  H   H609      1.0  0.10096  0.55410  0.64689  1.0000
  Fe  Fe58      1.0  0.40316  0.53005  0.65826  1.0000
  S   S110      1.0  0.37711  0.51279  0.66186  1.0000
  S   S111      1.0  0.40041  0.56296  0.64587  1.0000
  Fe  Fe59      1.0  0.38632  0.49946  0.69167  1.0000
  Fe  Fe60      1.0  0.39956  0.48902  0.64977  1.0000
  S   S112      1.0  0.39615  0.47149  0.62583  1.0000
  S   S113      1.0  0.41061  0.51866  0.68931  1.0000
  S   S114      1.0  0.42500  0.50692  0.64419  1.0000
  Fe  Fe61      1.0  0.30472  0.44920  0.56931  1.0000
  S   S115      1.0  0.29795  0.42275  0.55736  1.0000
  S   S116      1.0  0.30244  0.48078  0.55433  1.0000
  Fe  Fe62      1.0  0.31265  0.42525  0.60883  1.0000
  S   S117      1.0  0.30581  0.39716  0.60013  1.0000
  S   S118      1.0  0.32062  0.42666  0.63919  1.0000
  Fe  Fe63      1.0  0.32438  0.40599  0.57132  1.0000
  S   S119      1.0  0.34921  0.38686  0.55425  1.0000
  Fe  Fe64      1.0  0.27998  0.41651  0.58721  1.0000
  S   S120      1.0  0.24857  0.40919  0.58788  1.0000
  S   S121      1.0  0.33252  0.43329  0.58066  1.0000
  S   S122      1.0  0.28553  0.44377  0.59838  1.0000
  Fe  Fe65      1.0  0.09773  0.45556  0.63300  1.0000
  S   S123      1.0  0.11734  0.44618  0.65729  1.0000
  S   S124      1.0  0.07127  0.44060  0.62818  1.0000
  Fe  Fe66      1.0  0.11155  0.49678  0.62351  1.0000
  S   S125      1.0  0.13113  0.49007  0.64759  1.0000
  S   S126      1.0  0.11221  0.52830  0.60801  1.0000
  Fe  Fe67      1.0  0.14095  0.46085  0.63616  1.0000
  S   S127      1.0  0.17447  0.45528  0.63708  1.0000
  Fe  Fe68      1.0  0.10645  0.47630  0.66679  1.0000
  S   S128      1.0  0.09909  0.47713  0.70017  1.0000
  S   S129      1.0  0.12230  0.46824  0.61088  1.0000
  S   S130      1.0  0.08580  0.48511  0.64375  1.0000
  C   C747      1.0  0.47407  0.51055  0.60628  1.0000
  C   C748      1.0  0.06387  0.34299  0.49300  1.0000
  S   S131      1.0  0.10751  0.55693  0.51651  1.0000
  S   S132      1.0  0.13162  0.60626  0.51618  1.0000
  C   C749      1.0  0.00782  0.32379  0.53034  1.0000
  C   C750      1.0  0.29529  0.57547  0.55359  1.0000
  H   H610      1.0  0.31611  0.52435  0.57990  1.0000
  H   H611      1.0  0.04016  0.32180  0.67921  1.0000
  Fe  Fe69      1.0  0.01883  0.34334  0.62406  1.0000
  S   S133      1.0  0.04863  0.35602  0.61756  1.0000
  C   C751      1.0  0.09661  0.56995  0.64369  1.0000
  C   C752      1.0  0.06548  0.41642  0.62682  1.0000
  C   C753      1.0  0.08011  0.40033  0.62354  1.0000
  C   C754      1.0  0.07467  0.38195  0.62098  1.0000
  C   C755      1.0  0.05456  0.37921  0.62209  1.0000
  C   C756      1.0  0.03993  0.39515  0.62589  1.0000
  C   C757      1.0  0.04537  0.41361  0.62813  1.0000
  H   H612      1.0  0.09563  0.40222  0.62233  1.0000
  H   H613      1.0  0.08615  0.36981  0.61788  1.0000
  H   H614      1.0  0.02444  0.39344  0.62658  1.0000
  H   H615      1.0  0.03390  0.42592  0.63058  1.0000
  C   C758      1.0  0.11283  0.53485  0.58211  1.0000
  C   C759      1.0  0.11806  0.55348  0.57360  1.0000
  C   C760      1.0  0.11727  0.56004  0.55337  1.0000
  C   C761      1.0  0.11085  0.54816  0.54148  1.0000
  C   C762      1.0  0.10621  0.52923  0.54980  1.0000
  C   C763      1.0  0.10730  0.52252  0.57005  1.0000
  H   H616      1.0  0.12258  0.56299  0.58272  1.0000
  H   H617      1.0  0.12096  0.57458  0.54720  1.0000
  H   H618      1.0  0.10131  0.51988  0.54069  1.0000
  H   H619      1.0  0.10327  0.50811  0.57645  1.0000
  P   P24       1.0  0.42258  0.37465  0.62629  1.0000
  H   H620      1.0  0.27025  0.52997  0.54585  1.0000
  C   C764      1.0  0.08621  0.51676  0.70528  1.0000
  C   C765      1.0  0.09020  0.49715  0.71409  1.0000
  C   C766      1.0  0.04421  0.50069  0.67870  1.0000
  H   H621      1.0  0.42745  0.36873  0.55509  1.0000
  C   C767      1.0  0.42092  0.38819  0.69651  1.0000
  H   H622      1.0  0.08875  0.52022  0.68933  1.0000
  H   H623      1.0  0.22922  0.39469  0.63879  1.0000
  C   C768      1.0  0.38925  0.33688  0.56003  1.0000
  C   C769      1.0  0.00914  0.39637  0.69151  1.0000
  C   C770      1.0  0.26253  0.53486  0.53303  1.0000
  C   C771      1.0  0.22785  0.42315  0.60032  1.0000
  C   C772      1.0  0.23035  0.43719  0.61213  1.0000
  C   C773      1.0  0.21378  0.44710  0.62292  1.0000
  C   C774      1.0  0.19444  0.44332  0.62187  1.0000
  C   C775      1.0  0.19179  0.42968  0.60965  1.0000
  C   C776      1.0  0.20846  0.41957  0.59898  1.0000
  H   H624      1.0  0.24510  0.44002  0.61345  1.0000
  H   H625      1.0  0.21599  0.45759  0.63236  1.0000
  H   H626      1.0  0.17699  0.42645  0.60889  1.0000
  H   H627      1.0  0.20635  0.40869  0.58994  1.0000
  C   C777      1.0  0.36814  0.33778  0.59137  1.0000
  C   C778      1.0  0.35809  0.35629  0.58421  1.0000
  C   C779      1.0  0.36291  0.36471  0.56462  1.0000
  C   C780      1.0  0.37868  0.35500  0.55264  1.0000
  S   S134      1.0  0.38080  0.63996  0.52603  1.0000
  H   H628      1.0  0.34603  0.36367  0.59348  1.0000
  H   H629      1.0  0.38255  0.36136  0.53746  1.0000
  H   H630      1.0  0.27799  0.37394  0.56242  1.0000
  C   C781      1.0  0.30528  0.46766  0.51807  1.0000
  C   C782      1.0  0.30459  0.48382  0.52835  1.0000
  C   C783      1.0  0.30556  0.50275  0.51781  1.0000
  C   C784      1.0  0.44511  0.45187  0.61816  1.0000
  C   C785      1.0  0.40218  0.38947  0.56426  1.0000
  H   H631      1.0  0.30460  0.45304  0.52603  1.0000
  H   H632      1.0  0.30514  0.51532  0.52565  1.0000
  C   C786      1.0  0.37555  0.45846  0.63060  1.0000
  C   C787      1.0  0.36101  0.46120  0.64690  1.0000
  C   C788      1.0  0.34435  0.45094  0.64995  1.0000
  C   C789      1.0  0.34221  0.43813  0.63661  1.0000
  C   C790      1.0  0.35718  0.43487  0.62084  1.0000
  C   C791      1.0  0.37375  0.44510  0.61776  1.0000
  H   H633      1.0  0.36245  0.47144  0.65692  1.0000
  H   H634      1.0  0.33285  0.45341  0.66223  1.0000
  H   H635      1.0  0.35604  0.42432  0.61111  1.0000
  H   H636      1.0  0.38513  0.44272  0.60535  1.0000
  H   H637      1.0  0.17068  0.61725  0.55713  1.0000
  H   H638      1.0  0.34049  0.40318  0.51358  1.0000
  C   C792      1.0  0.38374  0.32794  0.57932  1.0000
  C   C793      1.0  0.31620  0.32315  0.65549  1.0000
  C   C794      1.0  0.36241  0.51385  0.49901  1.0000
  H   H639      1.0  0.46450  0.46609  0.63141  1.0000
  C   C795      1.0  0.40485  0.31931  0.63448  1.0000
  C   C796      1.0  0.41142  0.58785  0.57958  1.0000
  C   C797      1.0  0.41615  0.56748  0.58579  1.0000
  C   C798      1.0  0.41250  0.55959  0.60593  1.0000
  C   C799      1.0  0.40453  0.57208  0.62020  1.0000
  C   C800      1.0  0.39972  0.59245  0.61399  1.0000
  C   C801      1.0  0.40283  0.60024  0.59375  1.0000
  H   H640      1.0  0.42274  0.55773  0.57495  1.0000
  H   H641      1.0  0.41605  0.54387  0.61043  1.0000
  H   H642      1.0  0.39349  0.60224  0.62488  1.0000
  H   H643      1.0  0.39908  0.61585  0.58912  1.0000
  H   H644      1.0  0.38863  0.40140  0.61082  1.0000
  H   H645      1.0  0.40683  0.47238  0.49195  1.0000
  H   H646      1.0  0.16459  0.59169  0.58608  1.0000
  C   C802      1.0  0.32360  0.55147  0.56180  1.0000
  H   H647      1.0  0.44472  0.45392  0.66588  1.0000
  S   S135      1.0  0.36404  0.48954  0.71801  1.0000
  C   C803      1.0  0.29551  0.34868  0.60418  1.0000
  C   C804      1.0  0.04713  0.40862  0.69520  1.0000
  Fe  Fe70      1.0  0.98690  0.33541  0.65946  1.0000
  C   C805      1.0  0.44285  0.60993  0.62130  1.0000
  C   C806      1.0  0.01130  0.36021  0.54707  1.0000
  H   H648      1.0  0.45567  0.60252  0.57304  1.0000
  P   P25       1.0  0.00853  0.35021  0.52496  1.0000
  H   H649      1.0  0.06898  0.39501  0.71447  1.0000
  H   H650      1.0  0.99579  0.41012  0.71739  1.0000
  H   H651      1.0  0.45227  0.44203  0.57049  1.0000
  H   H652      1.0  0.00796  0.32237  0.56197  1.0000
  C   C807      1.0  0.13971  0.62859  0.55708  1.0000
  C   C808      1.0  0.02979  0.35387  0.50647  1.0000
  S   S136      1.0  0.01700  0.31925  0.64989  1.0000
  C   C809      1.0  0.08496  0.61071  0.63510  1.0000
  H   H653      1.0  0.23742  0.55061  0.48530  1.0000
  C   C810      1.0  0.46201  0.35922  0.63198  1.0000
  C   C811      1.0  0.35672  0.57053  0.61902  1.0000
  C   C812      1.0  0.46574  0.52648  0.61657  1.0000
  H   H654      1.0  0.04352  0.35780  0.54186  1.0000
  H   H655      1.0  0.40715  0.49648  0.51494  1.0000
  C   C813      1.0  0.32758  0.59443  0.48307  1.0000
  C   C814      1.0  0.09697  0.57880  0.62402  1.0000
  C   C815      1.0  0.35359  0.64599  0.59318  1.0000
  H   H656      1.0  0.06199  0.46675  0.71930  1.0000
  C   C816      1.0  0.31298  0.33837  0.59520  1.0000
  H   H657      1.0  0.32548  0.42725  0.71435  1.0000
  C   C817      1.0  0.24950  0.47759  0.52006  1.0000
  C   C818      1.0  0.43113  0.63908  0.59936  1.0000
  H   H658      1.0  0.07329  0.32457  0.65978  1.0000
  C   C819      1.0  0.44084  0.39134  0.69296  1.0000
  C   C820      1.0  0.42563  0.37204  0.58598  1.0000
  H   H659      1.0  0.20110  0.47182  0.70073  1.0000
  C   C821      1.0  0.44986  0.61018  0.58578  1.0000
  S   S137      1.0  0.00678  0.32525  0.60454  1.0000
  H   H660      1.0  0.45051  0.38603  0.68033  1.0000
  C   C822      1.0  0.02912  0.36990  0.49122  1.0000
  H   H661      1.0  0.01660  0.38095  0.59532  1.0000
  S   S138      1.0  0.30738  0.58076  0.48822  1.0000
  C   C823      1.0  0.48584  0.41969  0.66949  1.0000
  H   H662      1.0  0.01104  0.51971  0.72090  1.0000
  H   H663      1.0  0.26013  0.48486  0.48136  1.0000
  C   C824      1.0  0.23545  0.45052  0.54147  1.0000
  P   P26       1.0  0.28983  0.34613  0.63093  1.0000
  C   C825      1.0  0.19080  0.57904  0.53819  1.0000
  C   C826      1.0  0.27574  0.36875  0.63871  1.0000
  C   C827      1.0  0.28482  0.38236  0.64647  1.0000
  C   C828      1.0  0.27399  0.40031  0.65117  1.0000
  C   C829      1.0  0.25394  0.40468  0.64853  1.0000
  C   C830      1.0  0.09105  0.59923  0.61950  1.0000
  C   C831      1.0  0.40840  0.39571  0.71239  1.0000
  H   H664      1.0  0.16962  0.56402  0.50707  1.0000
  C   C832      1.0  0.36790  0.56713  0.50498  1.0000
  C   C833      1.0  0.34836  0.61588  0.49317  1.0000
  H   H665      1.0  0.05039  0.62573  0.58593  1.0000
  H   H666      1.0  0.32629  0.36466  0.62416  1.0000
  C   C834      1.0  0.35681  0.55889  0.52210  1.0000
  C   C835      1.0  0.31786  0.34102  0.57459  1.0000
  H   H667      1.0  0.30037  0.37965  0.64837  1.0000
  H   H668      1.0  0.28134  0.41107  0.65635  1.0000
  H   H669      1.0  0.24567  0.41880  0.65169  1.0000
  C   C836      1.0  0.00801  0.31413  0.54978  1.0000
  C   C837      1.0  0.26253  0.32552  0.65697  1.0000
  P   P27       1.0  0.22724  0.51121  0.50197  1.0000
  P   P28       1.0  0.03269  0.38817  0.70064  1.0000
  H   H670      1.0  0.32309  0.32852  0.60404  1.0000
  H   H671      1.0  0.01021  0.47736  0.66315  1.0000
  H   H672      1.0  0.28945  0.58973  0.54623  1.0000
  S   S139      1.0  0.46116  0.48243  0.68334  1.0000
  H   H673      1.0  0.23743  0.43656  0.55112  1.0000
  C   C838      1.0  0.46223  0.46052  0.61814  1.0000
  C   C839      1.0  0.04709  0.33499  0.67872  1.0000
  H   H674      1.0  0.45802  0.42005  0.65849  1.0000
  C   C840      1.0  0.33150  0.60583  0.49697  1.0000
  H   H675      1.0  0.05869  0.56336  0.54858  1.0000
  H   H676      1.0  0.42482  0.35261  0.66557  1.0000
  C   C841      1.0  0.17298  0.57158  0.54585  1.0000
  H   H677      1.0  0.03031  0.61473  0.53400  1.0000
  S   S140      1.0  0.44702  0.31472  0.58819  1.0000
  C   C842      1.0  0.08467  0.60182  0.65482  1.0000
  C   C843      1.0  0.24697  0.51016  0.59747  1.0000
  C   C844      1.0  0.25590  0.49375  0.58821  1.0000
  C   C845      1.0  0.24511  0.48507  0.57696  1.0000
  C   C846      1.0  0.22543  0.49294  0.57471  1.0000
  C   C847      1.0  0.21640  0.50953  0.58383  1.0000
  C   C848      1.0  0.22732  0.51809  0.59523  1.0000
  P   P29       1.0  0.19112  0.52027  0.58088  1.0000
  C   C849      1.0  0.19104  0.54347  0.56438  1.0000
  C   C850      1.0  0.17841  0.50290  0.57182  1.0000
  C   C851      1.0  0.17091  0.50733  0.55349  1.0000
  C   C852      1.0  0.16021  0.49411  0.54734  1.0000
  C   C853      1.0  0.15751  0.47607  0.55904  1.0000
  C   C854      1.0  0.16555  0.47123  0.57689  1.0000
  C   C855      1.0  0.17580  0.48461  0.58333  1.0000
  C   C856      1.0  0.17310  0.55387  0.55875  1.0000
  C   C857      1.0  0.20877  0.56876  0.54353  1.0000
  C   C858      1.0  0.20893  0.55106  0.55654  1.0000
  C   C859      1.0  0.17864  0.52362  0.60555  1.0000
  C   C860      1.0  0.16370  0.53958  0.60883  1.0000
  C   C861      1.0  0.15410  0.54167  0.62797  1.0000
  C   C862      1.0  0.15935  0.52792  0.64402  1.0000
  C   C863      1.0  0.17411  0.51196  0.64094  1.0000
  C   C864      1.0  0.18366  0.50977  0.62184  1.0000
  H   H678      1.0  0.25525  0.51662  0.60651  1.0000
  H   H679      1.0  0.27120  0.48767  0.58980  1.0000
  H   H680      1.0  0.25207  0.47215  0.57007  1.0000
  H   H681      1.0  0.21734  0.48598  0.56598  1.0000
  H   H682      1.0  0.22058  0.53084  0.60247  1.0000
  H   H683      1.0  0.17307  0.52092  0.54388  1.0000
  H   H684      1.0  0.15384  0.49797  0.53357  1.0000
  H   H685      1.0  0.14906  0.46590  0.55440  1.0000
  H   H686      1.0  0.16346  0.45727  0.58605  1.0000
  H   H687      1.0  0.18156  0.48063  0.59738  1.0000
  H   H688      1.0  0.15919  0.54800  0.56395  1.0000
  H   H689      1.0  0.22263  0.57434  0.53725  1.0000
  H   H690      1.0  0.22309  0.54329  0.56013  1.0000
  H   H691      1.0  0.15896  0.55025  0.59680  1.0000
  H   H692      1.0  0.15152  0.52923  0.65875  1.0000
  H   H693      1.0  0.17768  0.50084  0.65324  1.0000
  H   H694      1.0  0.19470  0.49697  0.61984  1.0000
  C   C865      1.0  0.44142  0.44535  0.60097  1.0000
  H   H695      1.0  0.26641  0.56672  0.56472  1.0000
  C   C866      1.0  0.40964  0.39231  0.64236  1.0000
  C   C867      1.0  0.41896  0.40770  0.64667  1.0000
  C   C868      1.0  0.40849  0.42150  0.65869  1.0000
  C   C869      1.0  0.38869  0.42009  0.66650  1.0000
  C   C870      1.0  0.37928  0.40487  0.66228  1.0000
  C   C871      1.0  0.38973  0.39095  0.65037  1.0000
  H   H696      1.0  0.44784  0.40336  0.60497  1.0000
  H   H697      1.0  0.41562  0.43353  0.66174  1.0000
  H   H698      1.0  0.38050  0.43113  0.67537  1.0000
  H   H699      1.0  0.36368  0.40426  0.66771  1.0000
  H   H700      1.0  0.38209  0.37949  0.64689  1.0000
  C   C872      1.0  0.35387  0.55073  0.62007  1.0000
  H   H701      1.0  0.34605  0.47794  0.54783  1.0000
  H   H702      1.0  0.35396  0.63457  0.62405  1.0000
  H   H703      1.0  0.30744  0.45781  0.48942  1.0000
  C   C873      1.0  0.30180  0.46393  0.72701  1.0000
  C   C874      1.0  0.24979  0.52288  0.52807  1.0000
  H   H704      1.0  0.04839  0.50061  0.70895  1.0000
  C   C875      1.0  0.47141  0.33847  0.70862  1.0000
  H   H705      1.0  0.20352  0.45307  0.54624  1.0000
  Fe  Fe71      1.0  0.39411  0.63764  0.49449  1.0000
  H   H706      1.0  0.00417  0.58916  0.48203  1.0000
  H   H707      1.0  0.30955  0.35649  0.54687  1.0000
  C   C876      1.0  0.43261  0.62910  0.61857  1.0000
  C   C877      1.0  0.34987  0.32973  0.65595  1.0000
  C   C878      1.0  0.45520  0.44703  0.58384  1.0000
  H   H708      1.0  0.40352  0.43380  0.48484  1.0000
  H   H709      1.0  0.07596  0.54709  0.71039  1.0000
  H   H710      1.0  0.35855  0.57638  0.63233  1.0000
  C   C879      1.0  0.17477  0.54893  0.50414  1.0000
  C   C880      1.0  0.21380  0.47802  0.52655  1.0000
  H   H711      1.0  0.40099  0.32933  0.55047  1.0000
  C   C881      1.0  0.32838  0.35170  0.63500  1.0000
  C   C882      1.0  0.21636  0.45982  0.53867  1.0000
  C   C883      1.0  0.33459  0.31806  0.66265  1.0000
  C   C884      1.0  0.47773  0.39246  0.61058  1.0000
  H   H712      1.0  0.04823  0.32798  0.51890  1.0000
  H   H713      1.0  0.28000  0.53391  0.58121  1.0000
  H   H714      1.0  0.26902  0.36906  0.59841  1.0000
  C   C885      1.0  0.27479  0.32628  0.63867  1.0000
  H   H715      1.0  0.38023  0.44847  0.71747  1.0000
  H   H716      1.0  0.20395  0.54937  0.51123  1.0000
  H   H717      1.0  0.36355  0.33080  0.60615  1.0000
  H   H718      1.0  0.05571  0.63324  0.54229  1.0000
  H   H719      1.0  0.14224  0.46340  0.69268  1.0000
  C   C886      1.0  0.20130  0.52133  0.50180  1.0000
  H   H720      1.0  0.44343  0.60208  0.63612  1.0000
  H   H721      1.0  0.34869  0.45241  0.70385  1.0000
  C   C887      1.0  0.39469  0.49761  0.50666  1.0000
  H   H722      1.0  0.26196  0.33683  0.66649  1.0000
  C   C888      1.0  0.18848  0.51082  0.49458  1.0000
  C   C889      1.0  0.12032  0.62687  0.56616  1.0000
  H   H723      1.0  0.24746  0.50935  0.53774  1.0000
  H   H724      1.0  0.02164  0.35005  0.69487  1.0000
  C   C890      1.0  0.45936  0.44753  0.66923  1.0000
  C   C891      1.0  0.46698  0.42836  0.66495  1.0000
  C   C892      1.0  0.16881  0.51906  0.49278  1.0000
  C   C893      1.0  0.39445  0.48401  0.49357  1.0000
  C   C894      1.0  0.36211  0.50024  0.48593  1.0000
  C   C895      1.0  0.47076  0.45844  0.67758  1.0000
  C   C896      1.0  0.45153  0.60050  0.60491  1.0000
  H   H725      1.0  0.14214  0.55361  0.63025  1.0000
  H   H726      1.0  0.32563  0.58052  0.54495  1.0000
  Fe  Fe72      1.0  0.14889  0.61051  0.48567  1.0000
  H   H727      1.0  0.40695  0.57708  0.52514  1.0000
  C   C897      1.0  0.28234  0.56251  0.56399  1.0000
  C   C898      1.0  0.25200  0.45941  0.53216  1.0000
  H   H728      1.0  0.15906  0.57935  0.54147  1.0000
  C   C899      1.0  0.30715  0.50550  0.49705  1.0000
  C   C900      1.0  0.44922  0.37496  0.62332  1.0000
  H   H729      1.0  0.07714  0.59065  0.53179  1.0000
  C   C901      1.0  0.28996  0.54405  0.57326  1.0000
  H   H730      1.0  0.26680  0.45238  0.53464  1.0000
  H   H731      1.0  0.45885  0.58541  0.60702  1.0000
  H   H732      1.0  0.05604  0.50963  0.67294  1.0000
  C   C902      1.0  0.39748  0.39434  0.59885  1.0000
  C   C903      1.0  0.02496  0.48346  0.70683  1.0000
  H   H733      1.0  0.35678  0.58455  0.56958  1.0000
  C   C904      1.0  0.99406  0.40768  0.70265  1.0000
  C   C905      1.0  0.28264  0.36100  0.59210  1.0000
  H   H734      1.0  0.02924  0.42575  0.67345  1.0000
  C   C906      1.0  0.08039  0.59570  0.57969  1.0000
  C   C907      1.0  0.31050  0.53857  0.57228  1.0000
  Fe  Fe73      1.0  0.11448  0.58763  0.50288  1.0000
  C   C908      1.0  0.02802  0.63079  0.53213  1.0000
  C   C909      1.0  0.98625  0.36354  0.51569  1.0000
  H   H735      1.0  0.99168  0.39192  0.52228  1.0000
  C   C910      1.0  0.00636  0.39315  0.67250  1.0000
  C   C911      1.0  0.15220  0.60159  0.58060  1.0000
  C   C912      1.0  0.35221  0.43982  0.71486  1.0000
  H   H736      1.0  0.43420  0.40925  0.64076  1.0000
  H   H737      1.0  0.07172  0.38260  0.67542  1.0000
  H   H738      1.0  0.17783  0.46367  0.67965  1.0000
  C   C913      1.0  0.31584  0.57007  0.55266  1.0000
  H   H739      1.0  0.33598  0.51395  0.54551  1.0000
  C   C914      1.0  0.11663  0.61259  0.58265  1.0000
  H   H740      1.0  0.37764  0.40832  0.57780  1.0000
  H   H741      1.0  0.07939  0.45167  0.68235  1.0000
  H   H742      1.0  0.04986  0.45276  0.66570  1.0000
  H   H743      1.0  0.13057  0.58858  0.60226  1.0000
  C   C915      1.0  0.13278  0.59987  0.58974  1.0000
  H   H744      1.0  0.10164  0.56959  0.61231  1.0000
  H   H745      1.0  0.34917  0.50117  0.47833  1.0000
  C   C916      1.0  0.41932  0.37620  0.56722  1.0000
  H   H746      1.0  0.06607  0.57793  0.60510  1.0000
  C   C917      1.0  0.07049  0.43963  0.68598  1.0000
  C   C918      1.0  0.01507  0.37528  0.58184  1.0000
  H   H747      1.0  0.19381  0.49633  0.49007  1.0000
  C   C919      1.0  0.41470  0.38100  0.60197  1.0000
  H   H748      1.0  0.08981  0.42227  0.70570  1.0000
  C   C920      1.0  0.03346  0.49424  0.66574  1.0000
  H   H749      1.0  0.38186  0.51867  0.58065  1.0000
  H   H750      1.0  0.09004  0.57456  0.67439  1.0000
  H   H751      1.0  0.27665  0.56138  0.52406  1.0000
  C   C921      1.0  0.43941  0.62923  0.58301  1.0000
  C   C922      1.0  0.34811  0.50735  0.55377  1.0000
  C   C923      1.0  0.35387  0.48689  0.55494  1.0000
  C   C924      1.0  0.23036  0.48706  0.51693  1.0000
  H   H752      1.0  0.42770  0.43931  0.60095  1.0000
  C   C925      1.0  0.35609  0.57488  0.58354  1.0000
  P   P30       1.0  0.09128  0.61038  0.59388  1.0000
  H   H753      1.0  0.47662  0.34997  0.69728  1.0000
  H   H754      1.0  0.48381  0.40538  0.60241  1.0000
  Fe  Fe74      1.0  0.41108  0.62618  0.53383  1.0000
  C   C926      1.0  0.44828  0.40171  0.70553  1.0000
  H   H755      1.0  0.07986  0.61072  0.66681  1.0000
  C   C927      1.0  0.03684  0.35086  0.68809  1.0000
  H   H756      1.0  0.03701  0.49811  0.64986  1.0000
  C   C928      1.0  0.41498  0.32453  0.66527  1.0000
  C   C929      1.0  0.24465  0.39105  0.64131  1.0000
  C   C930      1.0  0.25546  0.37317  0.63644  1.0000
  H   H757      1.0  0.43720  0.63588  0.56811  1.0000
  C   C931      1.0  0.07732  0.63492  0.59246  1.0000
  H   H758      1.0  0.26259  0.48453  0.51367  1.0000
  H   H759      1.0  0.11567  0.54494  0.72532  1.0000
  C   C932      1.0  0.03018  0.36215  0.55156  1.0000
  H   H760      1.0  0.41675  0.44829  0.71627  1.0000
  S   S141      1.0  0.09137  0.61315  0.49453  1.0000
  H   H761      1.0  0.37333  0.46197  0.56709  1.0000
  C   C933      1.0  0.34687  0.41556  0.50451  1.0000
  C   C934      1.0  0.24109  0.52802  0.51046  1.0000
  H   H762      1.0  0.08884  0.35511  0.65803  1.0000
  C   C935      1.0  0.18554  0.47162  0.70650  1.0000
  H   H763      1.0  0.19070  0.59254  0.52777  1.0000
  H   H764      1.0  0.10820  0.63679  0.56028  1.0000
  C   C936      1.0  0.36931  0.47791  0.56568  1.0000
  C   C937      1.0  0.06586  0.33645  0.66798  1.0000
  C   C938      1.0  0.40886  0.33828  0.62600  1.0000
  C   C939      1.0  0.01839  0.48252  0.67324  1.0000
  H   H765      1.0  0.45458  0.53766  0.61049  1.0000
  C   C940      1.0  0.35775  0.51898  0.56345  1.0000
  H   H766      1.0  0.43437  0.45080  0.63137  1.0000
  C   C941      1.0  0.07618  0.42311  0.69930  1.0000
  H   H767      1.0  0.34282  0.55396  0.52088  1.0000
  C   C942      1.0  0.45736  0.39134  0.61217  1.0000
  P   P31       1.0  0.34999  0.54532  0.56241  1.0000
  C   C943      1.0  0.41890  0.34357  0.65690  1.0000
  H   H768      1.0  0.35863  0.35551  0.63668  1.0000
  H   H769      1.0  0.36249  0.56843  0.49082  1.0000
  C   C944      1.0  0.24404  0.54618  0.49885  1.0000
  C   C945      1.0  0.39126  0.39849  0.58006  1.0000
  C   C946      1.0  0.30537  0.35394  0.56277  1.0000
  H   H770      1.0  0.01781  0.38456  0.66355  1.0000
  H   H771      1.0  0.04657  0.37091  0.57256  1.0000
  C   C947      1.0  0.39302  0.57183  0.52431  1.0000
  C   C948      1.0  0.06411  0.57278  0.55728  1.0000
  H   H772      1.0  0.32164  0.60673  0.51071  1.0000
  C   C949      1.0  0.35766  0.58264  0.60079  1.0000
  C   C950      1.0  0.48482  0.51268  0.64340  1.0000
  C   C951      1.0  0.30685  0.47039  0.49732  1.0000
  C   C952      1.0  0.34621  0.43326  0.51230  1.0000
  C   C953      1.0  0.17853  0.47599  0.72575  1.0000
  C   C954      1.0  0.35208  0.54296  0.60289  1.0000
  C   C955      1.0  0.06442  0.40774  0.70413  1.0000
  H   H773      1.0  0.14681  0.54465  0.49591  1.0000
  H   H774      1.0  0.08034  0.62647  0.63218  1.0000
  H   H775      1.0  0.35138  0.62467  0.50387  1.0000
  H   H776      1.0  0.36001  0.59796  0.59996  1.0000
  C   C956      1.0  0.28767  0.36377  0.57151  1.0000
  C   C957      1.0  0.06475  0.36928  0.67701  1.0000
  H   H777      1.0  0.19886  0.48505  0.52520  1.0000
  C   C958      1.0  0.05352  0.44045  0.67687  1.0000
  C   C959      1.0  0.37872  0.51253  0.50935  1.0000
  H   H778      1.0  0.35315  0.54140  0.63423  1.0000
  C   C960      1.0  0.03200  0.36967  0.56890  1.0000
  C   C961      1.0  0.35364  0.55487  0.58441  1.0000
  H   H779      1.0  0.43874  0.36143  0.58811  1.0000
  H   H780      1.0  0.00881  0.31957  0.49964  1.0000
  H   H781      1.0  0.41802  0.31889  0.68020  1.0000
  H   H782      1.0  0.46358  0.40452  0.70258  1.0000
  C   C962      1.0  0.38568  0.57416  0.50614  1.0000
  C   C963      1.0  0.41617  0.35048  0.63710  1.0000
  H   H783      1.0  0.40655  0.34303  0.61070  1.0000
  C   C964      1.0  0.15241  0.46680  0.70197  1.0000
  C   C965      1.0  0.04585  0.36788  0.68796  1.0000
  C   C966      1.0  0.06113  0.56922  0.57795  1.0000
  H   H784      1.0  0.09117  0.61116  0.55117  1.0000
  C   C967      1.0  0.08278  0.59957  0.55890  1.0000
  H   H785      1.0  0.46905  0.50947  0.59233  1.0000
  C   C968      1.0  0.37938  0.48947  0.57482  1.0000
  C   C969      1.0  0.06891  0.58084  0.58914  1.0000
  H   H786      1.0  0.39364  0.58163  0.49301  1.0000
  H   H787      1.0  0.24810  0.36308  0.63031  1.0000
  C   C970      1.0  0.37382  0.50997  0.57349  1.0000
  H   H788      1.0  0.05314  0.55717  0.58531  1.0000
  H   H789      1.0  0.30508  0.46752  0.71106  1.0000
  C   C971      1.0  0.04732  0.34042  0.50723  1.0000
  C   C972      1.0  0.01420  0.47703  0.69370  1.0000
  C   C973      1.0  0.07460  0.58817  0.54780  1.0000
  C   C974      1.0  0.19430  0.54055  0.50642  1.0000
  C   C975      1.0  0.03993  0.49542  0.69913  1.0000
  C   C976      1.0  0.16196  0.53812  0.49757  1.0000
  H   H790      1.0  0.28521  0.44021  0.72532  1.0000
  H   H791      1.0  0.34942  0.52768  0.60412  1.0000
  H   H792      1.0  0.33933  0.43452  0.52739  1.0000
  C   C977      1.0  0.37824  0.48537  0.48294  1.0000
  C   C978      1.0  0.26604  0.55249  0.52091  1.0000
  H   H793      1.0  0.39127  0.48250  0.58329  1.0000
  H   H794      1.0  0.45650  0.34597  0.63997  1.0000
  C   C979      1.0  0.34672  0.34660  0.64219  1.0000
  H   H795      1.0  0.39695  0.39230  0.54986  1.0000
  C   C980      1.0  0.02839  0.38150  0.72731  1.0000
  C   C981      1.0  0.36379  0.55706  0.54054  1.0000
  C   C982      1.0  0.09044  0.58145  0.65912  1.0000
  H   H796      1.0  0.41501  0.38040  0.68662  1.0000
  H   H797      1.0  0.35359  0.46282  0.50717  1.0000
  Fe  Fe75      1.0  0.11023  0.63234  0.50542  1.0000
  C   C983      1.0  0.04191  0.42499  0.68131  1.0000
  H   H798      1.0  0.36421  0.32560  0.66122  1.0000
  C   C984      1.0  0.31298  0.34001  0.64150  1.0000
  C   C985      1.0  0.14536  0.47111  0.72120  1.0000
  C   C986      1.0  0.15567  0.61596  0.56429  1.0000
  H   H799      1.0  0.38839  0.56121  0.55535  1.0000
  C   C987      1.0  0.07463  0.35364  0.66703  1.0000
  H   H800      1.0  0.34981  0.52519  0.50126  1.0000
  C   C988      1.0  0.38231  0.56300  0.54143  1.0000
  H   H801      1.0  0.37897  0.52282  0.51970  1.0000
  C   C989      1.0  0.25633  0.55843  0.50418  1.0000
  H   H802      1.0  0.25925  0.57203  0.49471  1.0000
  H   H803      1.0  0.14227  0.63966  0.54430  1.0000
  H   H804      1.0  0.12969  0.47107  0.72655  1.0000
  C   C990      1.0  0.35447  0.44926  0.50075  1.0000
  H   H805      1.0  0.39293  0.39342  0.71455  1.0000
  C   C991      1.0  0.45108  0.33834  0.71475  1.0000
  C   C992      1.0  0.36380  0.44752  0.48133  1.0000
  C   C993      1.0  0.99629  0.37309  0.57765  1.0000
  C   C994      1.0  0.30776  0.48931  0.48678  1.0000
  H   H806      1.0  0.33168  0.33351  0.56780  1.0000
  H   H807      1.0  0.30809  0.52013  0.48905  1.0000
  H   H808      1.0  0.99955  0.63316  0.52176  1.0000
  C   C995      1.0  0.47107  0.52752  0.63516  1.0000
  H   H809      1.0  0.46400  0.53945  0.64347  1.0000
  C   C996      1.0  0.47608  0.46242  0.60102  1.0000
  C   C997      1.0  0.35592  0.41375  0.48517  1.0000
  H   H810      1.0  0.00261  0.46779  0.69910  1.0000
  C   C998      1.0  0.43596  0.40900  0.72159  1.0000
  C   C999      1.0  0.47251  0.45555  0.58382  1.0000
  H   H811      1.0  0.44046  0.34968  0.70814  1.0000
  C   C1000     1.0  0.05768  0.63802  0.58798  1.0000
  H   H812      1.0  0.01587  0.38048  0.49015  1.0000
  S   S142      1.0  0.18238  0.60679  0.48591  1.0000
  H   H813      1.0  0.98668  0.39871  0.65011  1.0000
  C   C1001     1.0  0.33909  0.42578  0.72095  1.0000
  C   C1002     1.0  0.01077  0.64119  0.52516  1.0000
  C   C1003     1.0  0.04229  0.64115  0.53686  1.0000
  H   H814      1.0  0.03631  0.59900  0.48600  1.0000
  C   C1004     1.0  0.37010  0.43766  0.72282  1.0000
  S   S143      1.0  0.98900  0.35994  0.63381  1.0000
  H   H815      1.0  0.42518  0.48091  0.71973  1.0000
  C   C1005     1.0  0.98877  0.40128  0.66476  1.0000
  C   C1006     1.0  0.48513  0.32364  0.71695  1.0000
  H   H816      1.0  0.13178  0.51046  0.72591  1.0000
  C   C1007     1.0  0.48241  0.36034  0.63026  1.0000
  C   C1008     1.0  0.41579  0.40643  0.72490  1.0000
  H   H817      1.0  0.42532  0.63579  0.63146  1.0000
  H   H818      1.0  0.33912  0.64180  0.59254  1.0000
  C   C1009     1.0  0.36191  0.64202  0.61093  1.0000
  H   H819      1.0  0.15893  0.51085  0.48735  1.0000
  H   H820      1.0  0.38697  0.64400  0.62548  1.0000
  H   H821      1.0  0.02349  0.35132  0.72647  1.0000
  H   H822      1.0  0.48274  0.45706  0.57030  1.0000
  H   H823      1.0  0.47533  0.48388  0.72103  1.0000
  H   H824      1.0  0.22459  0.59815  0.48434  1.0000
  H   H825      1.0  0.07733  0.33256  0.49372  1.0000
  H   H826      1.0  0.35652  0.39993  0.47924  1.0000
  H   H827      1.0  0.32140  0.33657  0.87428  1.0000
  Fe  Fe76      1.0  0.37207  0.57781  0.96183  1.0000
  C   C1010     1.0  0.11968  0.52204  0.90411  1.0000
  S   S144      1.0  0.37874  0.56556  0.93195  1.0000
  H   H828      1.0  0.38165  0.52222  0.77074  1.0000
  Fe  Fe77      1.0  0.35696  0.47316  0.88070  1.0000
  S   S145      1.0  0.33542  0.48891  0.86017  1.0000
  S   S146      1.0  0.36073  0.48326  0.91006  1.0000
  Fe  Fe78      1.0  0.36746  0.43795  0.85672  1.0000
  S   S147      1.0  0.34629  0.45115  0.83483  1.0000
  S   S148      1.0  0.38513  0.40886  0.84927  1.0000
  Fe  Fe79      1.0  0.35857  0.47932  0.83530  1.0000
  S   S149      1.0  0.36924  0.49949  0.80766  1.0000
  Fe  Fe80      1.0  0.32475  0.45920  0.86138  1.0000
  S   S150      1.0  0.29095  0.45987  0.86436  1.0000
  S   S151      1.0  0.38105  0.46577  0.85580  1.0000
  S   S152      1.0  0.34504  0.44375  0.88329  1.0000
  H   H829      1.0  0.04620  0.60883  0.92581  1.0000
  H   H830      1.0  0.10697  0.48960  0.77607  1.0000
  S   S153      1.0  0.46448  0.37440  0.88634  1.0000
  C   C1011     1.0  0.43373  0.32624  0.82616  1.0000
  Fe  Fe81      1.0  0.19642  0.40203  0.89138  1.0000
  S   S154      1.0  0.18300  0.43320  0.88221  1.0000
  S   S155      1.0  0.23047  0.39521  0.88871  1.0000
  Fe  Fe82      1.0  0.15526  0.38605  0.90096  1.0000
  S   S156      1.0  0.14001  0.41673  0.89233  1.0000
  S   S157      1.0  0.13041  0.36615  0.91175  1.0000
  Fe  Fe83      1.0  0.16374  0.41880  0.86657  1.0000
  S   S158      1.0  0.15403  0.42959  0.83661  1.0000
  Fe  Fe84      1.0  0.16052  0.42810  0.90913  1.0000
  S   S159      1.0  0.14645  0.45234  0.92791  1.0000
  S   S160      1.0  0.17829  0.38771  0.87381  1.0000
  S   S161      1.0  0.17470  0.39748  0.91960  1.0000
  Fe  Fe85      1.0  0.08713  0.52715  0.82212  1.0000
  S   S162      1.0  0.08313  0.55676  0.80364  1.0000
  S   S163      1.0  0.11679  0.51916  0.83320  1.0000
  Fe  Fe86      1.0  0.04388  0.52115  0.82412  1.0000
  S   S164      1.0  0.03691  0.55089  0.80638  1.0000
  S   S165      1.0  0.01790  0.50387  0.83589  1.0000
  Fe  Fe87      1.0  0.06520  0.54193  0.78667  1.0000
  S   S166      1.0  0.06745  0.54718  0.75281  1.0000
  Fe  Fe88      1.0  0.05571  0.56245  0.82526  1.0000
  S   S167      1.0  0.04655  0.59115  0.83917  1.0000
  S   S168      1.0  0.07136  0.51164  0.80375  1.0000
  S   S169      1.0  0.06041  0.53336  0.84448  1.0000
  H   H831      1.0  0.10014  0.36366  0.85158  1.0000
  C   C1012     1.0  0.04827  0.40747  0.88513  1.0000
  C   C1013     1.0  0.44166  0.32312  0.90492  1.0000
  S   S170      1.0  0.06539  0.63357  0.95324  1.0000
  H   H832      1.0  0.07648  0.50448  0.76258  1.0000
  C   C1014     1.0  0.05903  0.59946  0.85669  1.0000
  C   C1015     1.0  0.05149  0.61760  0.86375  1.0000
  C   C1016     1.0  0.06046  0.62468  0.87799  1.0000
  C   C1017     1.0  0.07758  0.61394  0.88491  1.0000
  C   C1018     1.0  0.08528  0.59583  0.87774  1.0000
  C   C1019     1.0  0.07595  0.58850  0.86390  1.0000
  H   H833      1.0  0.03872  0.62635  0.85790  1.0000
  H   H834      1.0  0.09860  0.58746  0.88285  1.0000
  H   H835      1.0  0.08203  0.57455  0.85857  1.0000
  H   H836      1.0  0.28457  0.54163  0.97087  1.0000
  C   C1020     1.0  0.09754  0.32443  0.90227  1.0000
  H   H837      1.0  0.00949  0.31941  0.93673  1.0000
  C   C1021     1.0  0.15836  0.47569  0.73329  1.0000
  C   C1022     1.0  0.99308  0.44906  0.73730  1.0000
  H   H838      1.0  0.01147  0.56957  0.95911  1.0000
  C   C1023     1.0  0.45920  0.42468  0.82514  1.0000
  H   H839      1.0  0.47727  0.62745  0.95373  1.0000
  C   C1024     1.0  0.18484  0.48679  0.90503  1.0000
  H   H840      1.0  0.13652  0.52492  0.94917  1.0000
  C   C1025     1.0  0.01480  0.32694  0.81115  1.0000
  C   C1026     1.0  0.13193  0.54066  0.94552  1.0000
  C   C1027     1.0  0.14361  0.45447  0.83565  1.0000
  C   C1028     1.0  0.15003  0.46697  0.84691  1.0000
  C   C1029     1.0  0.14203  0.48697  0.84571  1.0000
  C   C1030     1.0  0.12725  0.49440  0.83361  1.0000
  C   C1031     1.0  0.12080  0.48194  0.82232  1.0000
  C   C1032     1.0  0.12910  0.46200  0.82323  1.0000
  H   H841      1.0  0.16138  0.46134  0.85634  1.0000
  H   H842      1.0  0.14707  0.49660  0.85443  1.0000
  H   H843      1.0  0.10943  0.48771  0.81296  1.0000
  H   H844      1.0  0.12425  0.45236  0.81443  1.0000
  C   C1033     1.0  0.12393  0.34401  0.90520  1.0000
  C   C1034     1.0  0.10368  0.34215  0.90580  1.0000
  H   H845      1.0  0.09274  0.35460  0.90899  1.0000
  H   H846      1.0  0.13102  0.49335  0.91866  1.0000
  C   C1035     1.0  0.00697  0.33530  0.93269  1.0000
  H   H847      1.0  0.44689  0.33353  0.82098  1.0000
  H   H848      1.0  0.07544  0.53190  0.88534  1.0000
  C   C1036     1.0  0.27469  0.44144  0.87129  1.0000
  C   C1037     1.0  0.28155  0.42130  0.87583  1.0000
  C   C1038     1.0  0.26786  0.40735  0.88115  1.0000
  C   C1039     1.0  0.24720  0.41335  0.88212  1.0000
  C   C1040     1.0  0.24046  0.43350  0.87752  1.0000
  C   C1041     1.0  0.25410  0.44739  0.87210  1.0000
  H   H849      1.0  0.29733  0.41649  0.87534  1.0000
  H   H850      1.0  0.27327  0.39183  0.88467  1.0000
  H   H851      1.0  0.22472  0.43842  0.87814  1.0000
  H   H852      1.0  0.24862  0.46290  0.86859  1.0000
  C   C1042     1.0  0.40716  0.39970  0.85976  1.0000
  C   C1043     1.0  0.41153  0.40677  0.87639  1.0000
  C   C1044     1.0  0.42921  0.39897  0.88444  1.0000
  C   C1045     1.0  0.44251  0.38405  0.87592  1.0000
  C   C1046     1.0  0.43811  0.37706  0.85927  1.0000
  C   C1047     1.0  0.42041  0.38472  0.85135  1.0000
  H   H853      1.0  0.40127  0.41817  0.88311  1.0000
  H   H854      1.0  0.43255  0.40448  0.89733  1.0000
  H   H855      1.0  0.44844  0.36590  0.85237  1.0000
  H   H856      1.0  0.41719  0.37926  0.83845  1.0000
  C   C1048     1.0  0.37351  0.54260  0.92620  1.0000
  C   C1049     1.0  0.37606  0.53919  0.90623  1.0000
  C   C1050     1.0  0.37183  0.52134  0.90095  1.0000
  C   C1051     1.0  0.36525  0.50653  0.91564  1.0000
  C   C1052     1.0  0.36287  0.50987  0.93560  1.0000
  C   C1053     1.0  0.36684  0.52780  0.94086  1.0000
  H   H857      1.0  0.38123  0.55048  0.89476  1.0000
  H   H858      1.0  0.37390  0.51897  0.88555  1.0000
  H   H859      1.0  0.35788  0.49851  0.94711  1.0000
  H   H860      1.0  0.36479  0.53016  0.95627  1.0000
  C   C1054     1.0  0.06418  0.40764  0.83037  1.0000
  C   C1055     1.0  0.35895  0.47812  0.75832  1.0000
  C   C1056     1.0  0.35996  0.48004  0.77825  1.0000
  C   C1057     1.0  0.36793  0.49609  0.78286  1.0000
  C   C1058     1.0  0.37541  0.50980  0.76733  1.0000
  C   C1059     1.0  0.37483  0.50763  0.74740  1.0000
  H   H861      1.0  0.35252  0.46583  0.75489  1.0000
  H   H862      1.0  0.35472  0.46910  0.79002  1.0000
  C   C1060     1.0  0.01537  0.53399  0.74518  1.0000
  C   C1061     1.0  0.32373  0.41001  0.83004  1.0000
  C   C1062     1.0  0.33281  0.39614  0.81753  1.0000
  C   C1063     1.0  0.32902  0.39862  0.79785  1.0000
  C   C1064     1.0  0.31589  0.41482  0.79077  1.0000
  C   C1065     1.0  0.30658  0.42876  0.80333  1.0000
  C   C1066     1.0  0.31065  0.42618  0.82300  1.0000
  P   P32       1.0  0.28807  0.44865  0.79510  1.0000
  C   C1067     1.0  0.26386  0.44043  0.80268  1.0000
  C   C1068     1.0  0.28944  0.46990  0.80715  1.0000
  C   C1069     1.0  0.27218  0.48057  0.81604  1.0000
  C   C1070     1.0  0.27356  0.49693  0.82538  1.0000
  C   C1071     1.0  0.29212  0.50284  0.82574  1.0000
  C   C1072     1.0  0.30932  0.49236  0.81683  1.0000
  C   C1073     1.0  0.30800  0.47579  0.80786  1.0000
  C   C1074     1.0  0.24872  0.44573  0.79047  1.0000
  C   C1075     1.0  0.23034  0.43868  0.79615  1.0000
  C   C1076     1.0  0.22656  0.42712  0.81447  1.0000
  C   C1077     1.0  0.24121  0.42250  0.82708  1.0000
  C   C1078     1.0  0.25978  0.42911  0.82125  1.0000
  C   C1079     1.0  0.29340  0.45479  0.76840  1.0000
  C   C1080     1.0  0.30479  0.47010  0.76008  1.0000
  H   H863      1.0  0.47712  0.44178  0.78607  1.0000
  H   H864      1.0  0.42861  0.33761  0.85405  1.0000
  C   C1081     1.0  0.41484  0.45282  0.73090  1.0000
  C   C1082     1.0  0.28675  0.44378  0.75564  1.0000
  H   H865      1.0  0.32676  0.40834  0.84525  1.0000
  H   H866      1.0  0.34273  0.38347  0.82314  1.0000
  H   H867      1.0  0.33608  0.38787  0.78816  1.0000
  H   H868      1.0  0.31294  0.41630  0.77560  1.0000
  H   H869      1.0  0.30354  0.43661  0.83301  1.0000
  H   H870      1.0  0.25770  0.47614  0.81614  1.0000
  H   H871      1.0  0.26030  0.50477  0.83272  1.0000
  H   H872      1.0  0.29325  0.51531  0.83322  1.0000
  H   H873      1.0  0.32374  0.49690  0.81713  1.0000
  H   H874      1.0  0.32145  0.46756  0.80141  1.0000
  H   H875      1.0  0.25099  0.45532  0.77659  1.0000
  H   H876      1.0  0.21894  0.44231  0.78640  1.0000
  H   H877      1.0  0.21221  0.42188  0.81905  1.0000
  H   H878      1.0  0.23816  0.41381  0.84146  1.0000
  H   H879      1.0  0.27072  0.42551  0.83146  1.0000
  H   H880      1.0  0.31057  0.47874  0.76921  1.0000
  H   H881      1.0  0.01614  0.37869  0.94532  1.0000
  C   C1083     1.0  0.10980  0.42252  0.95084  1.0000
  C   C1084     1.0  0.11986  0.58127  0.93675  1.0000
  H   H882      1.0  0.27854  0.43148  0.76159  1.0000
  H   H883      1.0  0.18845  0.47353  0.89779  1.0000
  S   S171      1.0  0.09053  0.62297  0.90156  1.0000
  H   H884      1.0  0.41935  0.49277  0.75267  1.0000
  C   C1085     1.0  0.09384  0.43757  0.95283  1.0000
  C   C1086     1.0  0.99265  0.45848  0.82270  1.0000
  P   P33       1.0  0.00979  0.59327  0.91966  1.0000
  C   C1087     1.0  0.05807  0.45666  0.73236  1.0000
  C   C1088     1.0  0.07843  0.43938  0.94121  1.0000
  C   C1089     1.0  0.28266  0.62050  0.93906  1.0000
  H   H885      1.0  0.01526  0.34348  0.76238  1.0000
  H   H886      1.0  0.02240  0.40233  0.77019  1.0000
  C   C1090     1.0  0.45195  0.49410  0.82070  1.0000
  C   C1091     1.0  0.08028  0.36192  0.96077  1.0000
  C   C1092     1.0  0.01179  0.37541  0.83125  1.0000
  H   H887      1.0  0.17965  0.50656  0.75827  1.0000
  C   C1093     1.0  0.37126  0.33714  0.87336  1.0000
  P   P34       1.0  0.06029  0.43011  0.91065  1.0000
  C   C1094     1.0  0.33545  0.34242  0.87267  1.0000
  C   C1095     1.0  0.33590  0.36284  0.86847  1.0000
  C   C1096     1.0  0.35402  0.37038  0.86607  1.0000
  C   C1097     1.0  0.37169  0.35759  0.86812  1.0000
  C   C1098     1.0  0.02345  0.39112  0.76050  1.0000
  C   C1099     1.0  0.15227  0.47583  0.95501  1.0000
  C   C1100     1.0  0.03896  0.56091  0.92555  1.0000
  H   H888      1.0  0.09339  0.44103  0.83779  1.0000
  C   C1101     1.0  0.08871  0.34761  0.83172  1.0000
  C   C1102     1.0  0.99570  0.47593  0.82955  1.0000
  H   H889      1.0  0.99451  0.42797  0.95125  1.0000
  H   H890      1.0  0.05425  0.34567  0.79784  1.0000
  H   H891      1.0  0.31819  0.48612  0.73327  1.0000
  H   H892      1.0  0.10355  0.54849  0.88977  1.0000
  C   C1103     1.0  0.02396  0.36252  0.73564  1.0000
  H   H893      1.0  0.24668  0.59202  0.96086  1.0000
  C   C1104     1.0  0.99993  0.37620  0.92177  1.0000
  H   H894      1.0  0.32220  0.37281  0.86706  1.0000
  H   H895      1.0  0.35433  0.38621  0.86283  1.0000
  H   H896      1.0  0.38561  0.36375  0.86591  1.0000
  C   C1105     1.0  0.30899  0.55575  0.95480  1.0000
  C   C1106     1.0  0.32261  0.55706  0.93757  1.0000
  C   C1107     1.0  0.32240  0.54487  0.92311  1.0000
  C   C1108     1.0  0.30901  0.53094  0.92611  1.0000
  C   C1109     1.0  0.29576  0.52903  0.94373  1.0000
  C   C1110     1.0  0.29534  0.54209  0.95768  1.0000
  P   P35       1.0  0.27755  0.51198  0.94720  1.0000
  C   C1111     1.0  0.28598  0.49014  0.93514  1.0000
  C   C1112     1.0  0.01990  0.49826  0.74551  1.0000
  H   H897      1.0  0.05789  0.43726  0.83842  1.0000
  H   H898      1.0  0.07230  0.33568  0.95281  1.0000
  H   H899      1.0  0.20083  0.50940  0.93925  1.0000
  C   C1113     1.0  0.09020  0.37642  0.76115  1.0000
  H   H900      1.0  0.38049  0.51839  0.73561  1.0000
  C   C1114     1.0  0.27216  0.48009  0.92883  1.0000
  C   C1115     1.0  0.27862  0.46321  0.91939  1.0000
  C   C1116     1.0  0.29880  0.45588  0.91677  1.0000
  C   C1117     1.0  0.31253  0.46528  0.92380  1.0000
  C   C1118     1.0  0.30618  0.48233  0.93299  1.0000
  C   C1119     1.0  0.25605  0.52603  0.93733  1.0000
  C   C1120     1.0  0.25357  0.52634  0.91739  1.0000
  C   C1121     1.0  0.23669  0.53712  0.90997  1.0000
  C   C1122     1.0  0.22247  0.54803  0.92227  1.0000
  C   C1123     1.0  0.10417  0.41230  0.82887  1.0000
  C   C1124     1.0  0.24205  0.53750  0.94939  1.0000
  C   C1125     1.0  0.01500  0.51745  0.73578  1.0000
  H   H901      1.0  0.33339  0.56747  0.93544  1.0000
  H   H902      1.0  0.33296  0.54594  0.90973  1.0000
  H   H903      1.0  0.30918  0.52161  0.91473  1.0000
  H   H904      1.0  0.46043  0.37425  0.76978  1.0000
  C   C1126     1.0  0.09907  0.39479  0.82422  1.0000
  H   H905      1.0  0.99041  0.34706  0.80034  1.0000
  H   H906      1.0  0.08141  0.36225  0.73855  1.0000
  C   C1127     1.0  0.41991  0.43612  0.81755  1.0000
  C   C1128     1.0  0.16289  0.48181  0.96860  1.0000
  H   H907      1.0  0.25640  0.48527  0.93111  1.0000
  H   H908      1.0  0.26801  0.45582  0.91398  1.0000
  H   H909      1.0  0.30376  0.44293  0.90925  1.0000
  H   H910      1.0  0.32817  0.45947  0.92202  1.0000
  H   H911      1.0  0.31711  0.48934  0.93834  1.0000
  H   H912      1.0  0.26459  0.51819  0.90760  1.0000
  H   H913      1.0  0.23462  0.53695  0.89470  1.0000
  C   C1129     1.0  0.35304  0.32960  0.87497  1.0000
  C   C1130     1.0  0.44289  0.46733  0.86409  1.0000
  H   H914      1.0  0.11503  0.58165  0.96836  1.0000
  C   C1131     1.0  0.41519  0.37085  0.78676  1.0000
  C   C1132     1.0  0.40091  0.37426  0.80304  1.0000
  C   C1133     1.0  0.38629  0.39068  0.80166  1.0000
  C   C1134     1.0  0.38558  0.40345  0.78388  1.0000
  C   C1135     1.0  0.39991  0.40017  0.76744  1.0000
  C   C1136     1.0  0.41479  0.38381  0.76904  1.0000
  C   C1137     1.0  0.11377  0.31494  0.84773  1.0000
  H   H915      1.0  0.15365  0.32866  0.90116  1.0000
  C   C1138     1.0  0.40711  0.44057  0.74762  1.0000
  C   C1139     1.0  0.08749  0.52354  0.89282  1.0000
  H   H916      1.0  0.16396  0.58011  0.83254  1.0000
  C   C1140     1.0  0.41673  0.47794  0.75136  1.0000
  C   C1141     1.0  0.40967  0.46567  0.76816  1.0000
  C   C1142     1.0  0.40480  0.44710  0.76632  1.0000
  H   H917      1.0  0.09651  0.40128  0.91424  1.0000
  H   H918      1.0  0.02797  0.55193  0.92343  1.0000
  C   C1143     1.0  0.14821  0.54865  0.88272  1.0000
  C   C1144     1.0  0.07932  0.50804  0.74671  1.0000
  H   H919      1.0  0.01926  0.44527  0.76708  1.0000
  C   C1145     1.0  0.10352  0.53290  0.89527  1.0000
  H   H920      1.0  0.42670  0.35825  0.78796  1.0000
  H   H921      1.0  0.40129  0.36435  0.81684  1.0000
  H   H922      1.0  0.37575  0.39378  0.81455  1.0000
  H   H923      1.0  0.37406  0.41609  0.78309  1.0000
  H   H924      1.0  0.42609  0.38098  0.75668  1.0000
  C   C1146     1.0  0.17499  0.52046  0.92448  1.0000
  H   H925      1.0  0.17172  0.53355  0.93195  1.0000
  H   H926      1.0  0.00579  0.43891  0.73229  1.0000
  H   H927      1.0  0.40708  0.47098  0.78251  1.0000
  H   H928      1.0  0.39873  0.43832  0.77950  1.0000
  P   P36       1.0  0.25482  0.63009  0.97134  1.0000
  Fe  Fe89      1.0  0.07943  0.64584  0.92311  1.0000
  H   H929      1.0  0.12337  0.33559  0.86368  1.0000
  C   C1147     1.0  0.13256  0.54933  0.92565  1.0000
  P   P37       1.0  0.14083  0.53411  0.90600  1.0000
  C   C1148     1.0  0.42897  0.44792  0.82741  1.0000
  H   H930      1.0  0.40322  0.45512  0.89759  1.0000
  H   H931      1.0  0.13791  0.48381  0.95241  1.0000
  H   H932      1.0  0.11969  0.41408  0.82845  1.0000
  H   H933      1.0  0.02484  0.32944  0.79764  1.0000
  C   C1149     1.0  0.01177  0.63304  0.92182  1.0000
  H   H934      1.0  0.42063  0.46154  0.83184  1.0000
  C   C1150     1.0  0.16801  0.50019  0.90110  1.0000
  C   C1151     1.0  0.16254  0.51679  0.91131  1.0000
  C   C1152     1.0  0.14878  0.55562  0.84698  1.0000
  C   C1153     1.0  0.14320  0.54424  0.86497  1.0000
  H   H935      1.0  0.15905  0.49732  0.89041  1.0000
  H   H936      1.0  0.14448  0.55226  0.83343  1.0000
  H   H937      1.0  0.13497  0.53202  0.86487  1.0000
  C   C1154     1.0  0.46418  0.46870  0.77031  1.0000
  C   C1155     1.0  0.48100  0.44468  0.85556  1.0000
  C   C1156     1.0  0.03060  0.47064  0.81680  1.0000
  H   H938      1.0  0.02760  0.51066  0.78968  1.0000
  H   H939      1.0  0.46763  0.41760  0.86496  1.0000
  C   C1157     1.0  0.13804  0.32768  0.90129  1.0000
  P   P38       1.0  0.14868  0.48200  0.75780  1.0000
  C   C1158     1.0  0.13729  0.50746  0.75653  1.0000
  C   C1159     1.0  0.13021  0.46592  0.76845  1.0000
  C   C1160     1.0  0.11100  0.47381  0.77609  1.0000
  C   C1161     1.0  0.09666  0.46132  0.78392  1.0000
  C   C1162     1.0  0.10143  0.44085  0.78429  1.0000
  C   C1163     1.0  0.12047  0.43284  0.77661  1.0000
  C   C1164     1.0  0.13477  0.44534  0.76854  1.0000
  C   C1165     1.0  0.13463  0.51709  0.77354  1.0000
  C   C1166     1.0  0.12562  0.53669  0.77298  1.0000
  H   H940      1.0  0.07510  0.49603  0.89716  1.0000
  C   C1167     1.0  0.16831  0.47975  0.77321  1.0000
  C   C1168     1.0  0.18094  0.49452  0.77031  1.0000
  C   C1169     1.0  0.19482  0.49430  0.78332  1.0000
  C   C1170     1.0  0.19609  0.47942  0.79945  1.0000
  C   C1171     1.0  0.18377  0.46458  0.80231  1.0000
  C   C1172     1.0  0.17002  0.46462  0.78922  1.0000
  H   H941      1.0  0.08013  0.41863  0.76229  1.0000
  C   C1173     1.0  0.07304  0.44276  0.73981  1.0000
  C   C1174     1.0  0.42864  0.31725  0.89383  1.0000
  C   C1175     1.0  0.99622  0.34298  0.91690  1.0000
  C   C1176     1.0  0.01446  0.34795  0.94310  1.0000
  H   H942      1.0  0.09037  0.43124  0.79068  1.0000
  H   H943      1.0  0.12424  0.41696  0.77705  1.0000
  H   H944      1.0  0.14946  0.43899  0.76256  1.0000
  H   H945      1.0  0.13922  0.50940  0.78739  1.0000
  H   H946      1.0  0.12357  0.54391  0.78622  1.0000
  P   P39       1.0  0.01950  0.47686  0.73335  1.0000
  C   C1177     1.0  0.48054  0.42505  0.86465  1.0000
  H   H947      1.0  0.20650  0.47943  0.80985  1.0000
  H   H948      1.0  0.18458  0.45319  0.81499  1.0000
  H   H949      1.0  0.16039  0.45318  0.79216  1.0000
  C   C1178     1.0  0.15977  0.57124  0.84650  1.0000
  C   C1179     1.0  0.12600  0.56966  0.92138  1.0000
  C   C1180     1.0  0.08729  0.50336  0.89950  1.0000
  H   H950      1.0  0.10309  0.47691  0.91401  1.0000
  H   H951      1.0  0.29158  0.58197  0.91182  1.0000
  H   H952      1.0  0.11517  0.59704  0.93335  1.0000
  H   H953      1.0  0.09952  0.44230  0.89390  1.0000
  S   S172      1.0  0.47253  0.32757  0.85702  1.0000
  Fe  Fe90      1.0  0.48361  0.34836  0.87365  1.0000
  H   H954      1.0  0.44215  0.41703  0.73108  1.0000
  C   C1181     1.0  0.00941  0.56425  0.87205  1.0000
  H   H955      1.0  0.05493  0.34285  0.85581  1.0000
  C   C1182     1.0  0.41489  0.46353  0.88991  1.0000
  C   C1183     1.0  0.10300  0.49261  0.90892  1.0000
  C   C1184     1.0  0.11904  0.50196  0.91137  1.0000
  H   H956      1.0  0.42868  0.32331  0.73396  1.0000
  C   C1185     1.0  0.46732  0.61659  0.95971  1.0000
  H   H957      1.0  0.45605  0.31442  0.90628  1.0000
  C   C1186     1.0  0.04910  0.43023  0.76629  1.0000
  C   C1187     1.0  0.41966  0.47139  0.73278  1.0000
  H   H958      1.0  0.01600  0.36854  0.78448  1.0000
  C   C1188     1.0  0.19661  0.49009  0.91880  1.0000
  H   H959      1.0  0.05636  0.35811  0.92002  1.0000
  H   H960      1.0  0.08474  0.48793  0.84698  1.0000
  H   H961      1.0  0.26259  0.57175  0.93497  1.0000
  C   C1189     1.0  0.16539  0.57533  0.86403  1.0000
  H   H962      1.0  0.04859  0.40639  0.83100  1.0000
  C   C1190     1.0  0.10073  0.34975  0.84590  1.0000
  H   H963      1.0  0.04528  0.47519  0.81452  1.0000
  H   H964      1.0  0.45352  0.57453  0.94843  1.0000
  C   C1191     1.0  0.06852  0.42938  0.75661  1.0000
  H   H965      1.0  0.03897  0.45611  0.88040  1.0000
  C   C1192     1.0  0.06669  0.34915  0.95925  1.0000
  H   H966      1.0  0.08970  0.47789  0.74181  1.0000
  H   H967      1.0  0.10959  0.46786  0.86713  1.0000
  C   C1193     1.0  0.45643  0.50915  0.80534  1.0000
  C   C1194     1.0  0.15978  0.56396  0.88208  1.0000
  C   C1195     1.0  0.01933  0.35793  0.75614  1.0000
  H   H968      1.0  0.21437  0.55692  0.95140  1.0000
  C   C1196     1.0  0.15082  0.60560  0.96231  1.0000
  C   C1197     1.0  0.15768  0.59107  0.97710  1.0000
  C   C1198     1.0  0.19178  0.50699  0.92841  1.0000
  C   C1199     1.0  0.46397  0.48084  0.75212  1.0000
  C   C1200     1.0  0.41017  0.32869  0.89149  1.0000
  C   C1201     1.0  0.06833  0.44738  0.88951  1.0000
  C   C1202     1.0  0.08026  0.47637  0.85857  1.0000
  H   H969      1.0  0.20424  0.50593  0.78119  1.0000
  H   H970      1.0  0.12548  0.57664  0.90625  1.0000
  C   C1203     1.0  0.09421  0.46515  0.86996  1.0000
  H   H971      1.0  0.42313  0.40913  0.80453  1.0000
  H   H972      1.0  0.24272  0.49485  0.96880  1.0000
  C   C1204     1.0  0.43040  0.41852  0.81163  1.0000
  C   C1205     1.0  0.03443  0.58164  0.92419  1.0000
  H   H973      1.0  0.07887  0.59232  0.93313  1.0000
  C   C1206     1.0  0.40686  0.31839  0.85220  1.0000
  C   C1207     1.0  0.05449  0.45833  0.87759  1.0000
  C   C1208     1.0  0.44848  0.44202  0.83180  1.0000
  C   C1209     1.0  0.06048  0.47277  0.86222  1.0000
  H   H974      1.0  0.04972  0.48142  0.85330  1.0000
  H   H975      1.0  0.02991  0.57928  0.88292  1.0000
  C   C1210     1.0  0.04898  0.59285  0.92707  1.0000
  C   C1211     1.0  0.04633  0.35392  0.96585  1.0000
  H   H976      1.0  0.12313  0.64441  0.87990  1.0000
  C   C1212     1.0  0.16015  0.45953  0.94485  1.0000
  H   H977      1.0  0.16432  0.56719  0.89554  1.0000
  H   H978      1.0  0.17403  0.58734  0.86364  1.0000
  C   C1213     1.0  0.98864  0.32019  0.84603  1.0000
  C   C1214     1.0  0.26808  0.58544  0.93606  1.0000
  C   C1215     1.0  0.00776  0.36239  0.84850  1.0000
  C   C1216     1.0  0.08836  0.45062  0.88526  1.0000
  H   H979      1.0  0.20927  0.47935  0.92228  1.0000
  P   P40       1.0  0.02855  0.33771  0.96340  1.0000
  C   C1217     1.0  0.01463  0.48217  0.82650  1.0000
  H   H980      1.0  0.12796  0.62939  0.95498  1.0000
  C   C1218     1.0  0.05781  0.55162  0.92944  1.0000
  H   H981      1.0  0.06135  0.53569  0.93012  1.0000
  C   C1219     1.0  0.11369  0.33364  0.85326  1.0000
  S   S173      1.0  0.00555  0.42465  0.80454  1.0000
  C   C1220     1.0  0.45425  0.58654  0.95673  1.0000
  C   C1221     1.0  0.07491  0.36717  0.79488  1.0000
  H   H982      1.0  0.12215  0.42156  0.95926  1.0000
  C   C1222     1.0  0.22527  0.54835  0.94190  1.0000
  H   H983      1.0  0.12301  0.39789  0.93543  1.0000
  C   C1223     1.0  0.03849  0.45768  0.74193  1.0000
  H   H984      1.0  0.18488  0.43663  0.94076  1.0000
  C   C1224     1.0  0.01944  0.37211  0.76857  1.0000
  H   H985      1.0  0.39039  0.35463  0.90001  1.0000
  C   C1225     1.0  0.02412  0.49591  0.76514  1.0000
  C   C1226     1.0  0.01470  0.47009  0.93229  1.0000
  C   C1227     1.0  0.36646  0.49186  0.74281  1.0000
  H   H986      1.0  0.40453  0.44036  0.81507  1.0000
  C   C1228     1.0  0.06938  0.42529  0.83463  1.0000
  H   H987      1.0  0.09659  0.38780  0.78648  1.0000
  C   C1229     1.0  0.99537  0.33696  0.81271  1.0000
  C   C1230     1.0  0.09512  0.41113  0.92541  1.0000
  C   C1231     1.0  0.17867  0.44920  0.94846  1.0000
  H   H988      1.0  0.08821  0.44262  0.73255  1.0000
  C   C1232     1.0  0.00524  0.43736  0.94334  1.0000
  C   C1233     1.0  0.37494  0.42155  0.73711  1.0000
  H   H989      1.0  0.20930  0.55627  0.91662  1.0000
  H   H990      1.0  0.03738  0.39027  0.86633  1.0000
  H   H991      1.0  0.45410  0.49468  0.75087  1.0000
  C   C1234     1.0  0.30908  0.47450  0.73951  1.0000
  H   H992      1.0  0.47452  0.42011  0.82760  1.0000
  P   P41       1.0  0.39946  0.41721  0.74474  1.0000
  C   C1235     1.0  0.04651  0.37221  0.89258  1.0000
  H   H993      1.0  0.45802  0.39892  0.81129  1.0000
  H   H994      1.0  0.30905  0.56535  0.96594  1.0000
  C   C1236     1.0  0.41788  0.35173  0.91185  1.0000
  C   C1237     1.0  0.25910  0.59706  0.95080  1.0000
  C   C1238     1.0  0.07559  0.52767  0.73805  1.0000
  H   H995      1.0  0.44684  0.34549  0.92163  1.0000
  H   H996      1.0  0.05444  0.63870  0.88318  1.0000
  C   C1239     1.0  0.99533  0.46854  0.73938  1.0000
  C   C1240     1.0  0.46630  0.47778  0.82499  1.0000
  C   C1241     1.0  0.02422  0.51251  0.77457  1.0000
  H   H997      1.0  0.36510  0.39476  0.75396  1.0000
  C   C1242     1.0  0.00088  0.45794  0.94246  1.0000
  H   H998      1.0  0.04017  0.44405  0.80323  1.0000
  H   H999      1.0  0.04289  0.35862  0.88873  1.0000
  H   H1000     1.0  0.11087  0.38326  0.82004  1.0000
  H   H1001     1.0  0.33341  0.39893  0.74001  1.0000
  C   C1243     1.0  0.28440  0.59122  0.92296  1.0000
  C   C1244     1.0  0.02763  0.45298  0.81035  1.0000
  C   C1245     1.0  0.02339  0.35061  0.85717  1.0000
  H   H1002     1.0  0.11115  0.56170  0.75538  1.0000
  H   H1003     1.0  0.04567  0.42018  0.77966  1.0000
  C   C1246     1.0  0.05858  0.38937  0.91563  1.0000
  C   C1247     1.0  0.42346  0.32833  0.84504  1.0000
  H   H1004     1.0  0.98906  0.34425  0.73153  1.0000
  H   H1005     1.0  0.43237  0.50716  0.88986  1.0000
  C   C1248     1.0  0.03414  0.44440  0.75907  1.0000
  C   C1249     1.0  0.99295  0.59252  0.94255  1.0000
  H   H1006     1.0  0.99248  0.36105  0.85480  1.0000
  C   C1250     1.0  0.08934  0.42749  0.83419  1.0000
  C   C1251     1.0  0.03283  0.46169  0.92287  1.0000
  H   H1007     1.0  0.07883  0.32619  0.81647  1.0000
  H   H1008     1.0  0.02734  0.48133  0.77322  1.0000
  P   P42       1.0  0.39396  0.32060  0.87682  1.0000
  C   C1252     1.0  0.07900  0.39199  0.82555  1.0000
  C   C1253     1.0  0.01514  0.57484  0.88558  1.0000
  C   C1254     1.0  0.42817  0.45619  0.87440  1.0000
  C   C1255     1.0  0.05597  0.40728  0.90297  1.0000
  H   H1009     1.0  0.06657  0.45153  0.94260  1.0000
  H   H1010     1.0  0.04567  0.42106  0.87524  1.0000
  P   P43       1.0  0.07252  0.36851  0.82119  1.0000
  H   H1011     1.0  0.06399  0.38886  0.92966  1.0000
  C   C1256     1.0  0.08670  0.49295  0.73483  1.0000
  H   H1012     1.0  0.30458  0.61304  0.91450  1.0000
  C   C1257     1.0  0.06677  0.35256  0.76754  1.0000
  H   H1013     1.0  0.42684  0.44194  0.87037  1.0000
  H   H1014     1.0  0.16018  0.64409  0.97538  1.0000
  C   C1258     1.0  0.11971  0.57261  0.95647  1.0000
  H   H1015     1.0  0.01223  0.54878  0.73745  1.0000
  C   C1259     1.0  0.47097  0.38144  0.75880  1.0000
  H   H1016     1.0  0.01968  0.56071  0.85909  1.0000
  H   H1017     1.0  0.09594  0.35824  0.95538  1.0000
  H   H1018     1.0  0.99970  0.38429  0.82433  1.0000
  H   H1019     1.0  0.08683  0.55577  0.93514  1.0000
  C   C1260     1.0  0.45004  0.41281  0.81542  1.0000
  H   H1020     1.0  0.05013  0.32240  0.92754  1.0000
  C   C1261     1.0  0.47514  0.50790  0.79400  1.0000
  C   C1262     1.0  0.00862  0.44689  0.81310  1.0000
  H   H1021     1.0  0.01366  0.62849  0.93728  1.0000
  C   C1263     1.0  0.47730  0.45109  0.77193  1.0000
  H   H1022     1.0  0.02022  0.33996  0.87014  1.0000
  H   H1023     1.0  0.10036  0.38482  0.75083  1.0000
  P   P44       1.0  0.45999  0.45787  0.84404  1.0000
  H   H1024     1.0  0.03083  0.41074  0.73408  1.0000
  C   C1264     1.0  0.07958  0.36367  0.75422  1.0000
  C   C1265     1.0  0.04308  0.35218  0.84883  1.0000
  C   C1266     1.0  0.26642  0.61465  0.95255  1.0000
  C   C1267     1.0  0.43639  0.34048  0.91374  1.0000
  H   H1025     1.0  0.40591  0.48765  0.90728  1.0000
  C   C1268     1.0  0.44291  0.58744  0.97527  1.0000
  C   C1269     1.0  0.07219  0.56291  0.93226  1.0000
  H   H1026     1.0  0.44529  0.52175  0.80220  1.0000
  C   C1270     1.0  0.00691  0.62565  0.88969  1.0000
  C   C1271     1.0  0.12572  0.55231  0.96086  1.0000
  C   C1272     1.0  0.13309  0.61817  0.96643  1.0000
  H   H1027     1.0  0.01130  0.48605  0.93153  1.0000
  H   H1028     1.0  0.18890  0.47954  0.73463  1.0000
  C   C1273     1.0  0.08797  0.37810  0.78142  1.0000
  C   C1274     1.0  0.41637  0.48193  0.89537  1.0000
  C   C1275     1.0  0.13052  0.51765  0.73906  1.0000
  C   C1276     1.0  0.03139  0.37692  0.82277  1.0000
  C   C1277     1.0  0.36152  0.40763  0.74339  1.0000
  H   H1029     1.0  0.02052  0.54440  0.77163  1.0000
  C   C1278     1.0  0.06771  0.58347  0.93118  1.0000
  C   C1279     1.0  0.43128  0.49292  0.88549  1.0000
  C   C1280     1.0  0.44463  0.48559  0.87000  1.0000
  C   C1281     1.0  0.07891  0.42615  0.92739  1.0000
  H   H1030     1.0  0.08187  0.46756  0.78977  1.0000
  H   H1031     1.0  0.45620  0.49422  0.86263  1.0000
  C   C1282     1.0  0.29066  0.44855  0.73506  1.0000
  C   C1283     1.0  0.00982  0.61908  0.90951  1.0000
  H   H1032     1.0  0.03418  0.38718  0.80941  1.0000
  C   C1284     1.0  0.08870  0.32866  0.82644  1.0000
  C   C1285     1.0  0.11033  0.40923  0.93728  1.0000
  H   H1033     1.0  0.43721  0.49516  0.82909  1.0000
  H   H1034     1.0  0.24411  0.53806  0.96459  1.0000
  H   H1035     1.0  0.04338  0.47137  0.91514  1.0000
  H   H1036     1.0  0.05878  0.34244  0.76223  1.0000
  C   C1286     1.0  0.29171  0.60872  0.92448  1.0000
  C   C1287     1.0  0.04722  0.36555  0.83167  1.0000
  H   H1037     1.0  0.15920  0.60713  0.94766  1.0000
  C   C1288     1.0  0.02801  0.39582  0.73999  1.0000
  C   C1289     1.0  0.11887  0.54675  0.75558  1.0000
  C   C1290     1.0  0.07376  0.37944  0.96906  1.0000
  H   H1038     1.0  0.08195  0.32344  0.90245  1.0000
  C   C1291     1.0  0.02332  0.42892  0.93387  1.0000
  C   C1292     1.0  0.06426  0.35443  0.78774  1.0000
  S   S174      1.0  0.34555  0.60094  0.96656  1.0000
  C   C1293     1.0  0.03717  0.44103  0.92336  1.0000
  C   C1294     1.0  0.40468  0.34576  0.90098  1.0000
  C   C1295     1.0  0.05402  0.37192  0.91035  1.0000
  C   C1296     1.0  0.04351  0.38999  0.88000  1.0000
  H   H1039     1.0  0.02641  0.41298  0.93471  1.0000
  H   H1040     1.0  0.41399  0.36536  0.91844  1.0000
  H   H1041     1.0  0.99736  0.39206  0.91736  1.0000
  H   H1042     1.0  0.20335  0.44676  0.96512  1.0000
  C   C1297     1.0  0.46654  0.60105  0.94899  1.0000
  S   S175      1.0  0.18031  0.57612  0.97215  1.0000
  C   C1298     1.0  0.00640  0.64575  0.88224  1.0000
  H   H1043     1.0  0.45412  0.47293  0.78314  1.0000
  C   C1299     1.0  0.18913  0.45499  0.96225  1.0000
  C   C1300     1.0  0.02003  0.53152  0.76452  1.0000
  C   C1301     1.0  0.01065  0.36853  0.93763  1.0000
  H   H1044     1.0  0.28856  0.63403  0.93993  1.0000
  H   H1045     1.0  0.00528  0.61538  0.87977  1.0000
  H   H1046     1.0  0.09384  0.44820  0.96295  1.0000
  H   H1047     1.0  0.46829  0.36402  0.73618  1.0000
  C   C1302     1.0  0.99041  0.55851  0.87504  1.0000
  C   C1303     1.0  0.12142  0.53727  0.73862  1.0000
  C   C1304     1.0  0.47612  0.47489  0.73533  1.0000
  C   C1305     1.0  0.00185  0.57988  0.90221  1.0000
  C   C1306     1.0  0.48058  0.39611  0.76381  1.0000
  C   C1307     1.0  0.99765  0.57948  0.95944  1.0000
  H   H1048     1.0  0.47550  0.60022  0.93470  1.0000
  C   C1308     1.0  0.47554  0.37556  0.73992  1.0000
  H   H1049     1.0  0.99068  0.33297  0.90889  1.0000
  C   C1309     1.0  0.18133  0.47129  0.97236  1.0000
  H   H1050     1.0  0.08438  0.38923  0.97030  1.0000
  H   H1051     1.0  0.12585  0.54567  0.97615  1.0000
  C   C1310     1.0  0.48487  0.47638  0.81320  1.0000
  H   H1052     1.0  0.18604  0.63974  0.94657  1.0000
  C   C1311     1.0  0.27118  0.50264  0.97297  1.0000
  C   C1312     1.0  0.34362  0.40981  0.73536  1.0000
  C   C1313     1.0  0.45533  0.61803  0.97800  1.0000
  H   H1053     1.0  0.47705  0.40039  0.77854  1.0000
  H   H1054     1.0  0.98676  0.46449  0.94960  1.0000
  S   S176      1.0  0.39226  0.59624  0.97226  1.0000
  H   H1055     1.0  0.15674  0.49434  0.97635  1.0000
  C   C1314     1.0  0.99274  0.36342  0.91139  1.0000
  H   H1056     1.0  0.99110  0.32077  0.97125  1.0000
  C   C1315     1.0  0.03992  0.37164  0.97409  1.0000
  C   C1316     1.0  0.05358  0.38433  0.97568  1.0000
  H   H1057     1.0  0.47857  0.51958  0.78208  1.0000
  C   C1317     1.0  0.44446  0.32347  0.72930  1.0000
  H   H1058     1.0  0.21744  0.61293  0.97782  1.0000
  C   C1318     1.0  0.42727  0.31451  0.81414  1.0000
  Fe  Fe91      1.0  0.00334  0.84005  0.11931  1.0000
  S   S177      1.0  0.01651  0.81515  0.14024  1.0000
  S   S178      1.0  0.01610  0.85037  0.08756  1.0000
  Fe  Fe92      1.0  0.00484  0.83466  0.16436  1.0000
  S   S179      1.0  0.02573  0.84063  0.18548  1.0000
  C   C1319     1.0  0.13920  0.92219  0.98144  1.0000
  Fe  Fe93      1.0  0.11846  0.82556  0.01669  1.0000
  S   S180      1.0  0.14436  0.80218  0.01002  1.0000
  S   S181      1.0  0.10469  0.82260  0.04921  1.0000
  H   H1059     1.0  0.08651  0.66104  0.06487  1.0000
  C   C1320     1.0  0.48406  0.82362  0.21439  1.0000
  H   H1060     1.0  0.38289  0.86419  0.99332  1.0000
  H   H1061     1.0  0.43784  0.68906  0.02059  1.0000
  S   S182      1.0  0.13486  0.85010  0.99942  1.0000
  Fe  Fe94      1.0  0.44989  0.91405  0.14120  1.0000
  S   S183      1.0  0.42022  0.91661  0.16052  1.0000
  H   H1062     1.0  0.08746  0.66213  0.02121  1.0000
  Fe  Fe95      1.0  0.44243  0.87596  0.12690  1.0000
  S   S184      1.0  0.41299  0.87521  0.14575  1.0000
  S   S185      1.0  0.45207  0.85543  0.10369  1.0000
  Fe  Fe96      1.0  0.40768  0.90760  0.13485  1.0000
  S   S186      1.0  0.38087  0.92174  0.11909  1.0000
  Fe  Fe97      1.0  0.42831  0.88372  0.16958  1.0000
  S   S187      1.0  0.43673  0.90795  0.11508  1.0000
  S   S188      1.0  0.45827  0.88175  0.15120  1.0000
  Fe  Fe98      1.0  0.27548  0.87726  0.02975  1.0000
  S   S189      1.0  0.28590  0.89126  0.99923  1.0000
  S   S190      1.0  0.24548  0.86537  0.03832  1.0000
  Fe  Fe99      1.0  0.31340  0.88526  0.04612  1.0000
  S   S191      1.0  0.32613  0.89976  0.01637  1.0000
  S   S192      1.0  0.33072  0.87672  0.07287  1.0000
  Fe  Fe100     1.0  0.29493  0.91466  0.01404  1.0000
  S   S193      1.0  0.28527  0.94640  0.00207  1.0000
  Fe  Fe101     1.0  0.31582  0.87504  0.00442  1.0000
  C   C1321     1.0  0.03610  0.73010  0.09926  1.0000
  S   S194      1.0  0.28256  0.90194  0.04468  1.0000
  S   S195      1.0  0.30508  0.85931  0.03401  1.0000
  C   C1322     1.0  0.22431  0.92961  0.14770  1.0000
  C   C1323     1.0  0.35021  0.83105  0.00555  1.0000
  C   C1324     1.0  0.36353  0.81402  0.01031  1.0000
  C   C1325     1.0  0.37593  0.80494  0.99524  1.0000
  C   C1326     1.0  0.05713  0.67529  0.02010  1.0000
  C   C1327     1.0  0.99231  0.77635  0.06290  1.0000
  H   H1063     1.0  0.34102  0.83824  0.01722  1.0000
  S   S196      1.0  0.99365  0.86042  0.14276  1.0000
  C   C1328     1.0  0.03995  0.85235  0.21675  1.0000
  H   H1064     1.0  0.41169  0.71968  0.15867  1.0000
  H   H1065     1.0  0.09032  0.78840  0.04104  1.0000
  C   C1329     1.0  0.46419  0.74244  0.10794  1.0000
  H   H1066     1.0  0.07757  0.77082  0.09830  1.0000
  C   C1330     1.0  0.36870  0.90860  0.10506  1.0000
  C   C1331     1.0  0.36024  0.91865  0.08829  1.0000
  C   C1332     1.0  0.34918  0.90901  0.07778  1.0000
  C   C1333     1.0  0.34566  0.88946  0.08447  1.0000
  C   C1334     1.0  0.35402  0.87952  0.10128  1.0000
  C   C1335     1.0  0.36578  0.88884  0.11126  1.0000
  H   H1067     1.0  0.36224  0.93398  0.08344  1.0000
  H   H1068     1.0  0.34309  0.91683  0.06476  1.0000
  H   H1069     1.0  0.35126  0.86450  0.10674  1.0000
  H   H1070     1.0  0.37187  0.88100  0.12429  1.0000
  H   H1071     1.0  0.46056  0.93496  0.04404  1.0000
  H   H1072     1.0  0.24725  0.80700  0.99667  1.0000
  C   C1336     1.0  0.34903  0.83875  0.98569  1.0000
  C   C1337     1.0  0.41921  0.64947  0.04221  1.0000
  H   H1073     1.0  0.47130  0.73543  0.06708  1.0000
  S   S197      1.0  0.42417  0.86603  0.20052  1.0000
  C   C1338     1.0  0.09158  0.75785  0.03702  1.0000
  H   H1074     1.0  0.36437  0.80802  0.02566  1.0000
  C   C1339     1.0  0.26919  0.76130  0.01436  1.0000
  H   H1075     1.0  0.45844  0.84227  0.17567  1.0000
  C   C1340     1.0  0.20671  0.84101  0.00038  1.0000
  C   C1341     1.0  0.19928  0.84529  0.01955  1.0000
  C   C1342     1.0  0.21127  0.85289  0.03082  1.0000
  C   C1343     1.0  0.23076  0.85654  0.02306  1.0000
  C   C1344     1.0  0.23806  0.85262  0.00374  1.0000
  C   C1345     1.0  0.22611  0.84490  0.99251  1.0000
  H   H1076     1.0  0.18442  0.84237  0.02585  1.0000
  H   H1077     1.0  0.20542  0.85585  0.04573  1.0000
  H   H1078     1.0  0.25298  0.85534  0.99755  1.0000
  H   H1079     1.0  0.25001  0.95521  0.08691  1.0000
  C   C1346     1.0  0.02361  0.84602  0.21041  1.0000
  C   C1347     1.0  0.23794  0.92670  0.99239  1.0000
  C   C1348     1.0  0.46839  0.82771  0.20295  1.0000
  H   H1080     1.0  0.36261  0.91969  0.00560  1.0000
  C   C1349     1.0  0.46880  0.95577  0.16530  1.0000
  C   C1350     1.0  0.47392  0.76478  0.05249  1.0000
  H   H1081     1.0  0.25663  0.97585  0.05470  1.0000
  C   C1351     1.0  0.04036  0.84133  0.07684  1.0000
  C   C1352     1.0  0.05407  0.82958  0.08823  1.0000
  C   C1353     1.0  0.07360  0.82377  0.07945  1.0000
  C   C1354     1.0  0.07957  0.82938  0.05916  1.0000
  C   C1355     1.0  0.06565  0.84053  0.04761  1.0000
  C   C1356     1.0  0.04618  0.84657  0.05646  1.0000
  H   H1082     1.0  0.04984  0.82542  0.10391  1.0000
  H   H1083     1.0  0.08424  0.81513  0.08850  1.0000
  H   H1084     1.0  0.07004  0.84497  0.03200  1.0000
  H   H1085     1.0  0.03570  0.85564  0.04751  1.0000
  H   H1086     1.0  0.42152  0.76345  0.08002  1.0000
  S   S198      1.0  0.47589  0.93204  0.13495  1.0000
  H   H1087     1.0  0.08494  0.78283  0.12783  1.0000
  C   C1357     1.0  0.25199  0.75219  0.02063  1.0000
  H   H1088     1.0  0.47615  0.78784  0.11203  1.0000
  C   C1358     1.0  0.05545  0.67086  0.07109  1.0000
  H   H1089     1.0  0.48129  0.72343  0.01400  1.0000
  H   H1090     1.0  0.01629  0.89709  0.22298  1.0000
  C   C1359     1.0  0.00173  0.65232  0.03171  1.0000
  C   C1360     1.0  0.43251  0.78821  0.08899  1.0000
  H   H1091     1.0  0.24042  0.90565  0.13293  1.0000
  H   H1092     1.0  0.05714  0.68631  0.06640  1.0000
  H   H1093     1.0  0.02353  0.67651  0.07797  1.0000
  C   C1361     1.0  0.47517  0.83886  0.02227  1.0000
  C   C1362     1.0  0.43399  0.81707  0.06402  1.0000
  C   C1363     1.0  0.46131  0.76253  0.11064  1.0000
  C   C1364     1.0  0.30382  0.66027  0.98963  1.0000
  H   H1094     1.0  0.40025  0.95457  0.00130  1.0000
  C   C1365     1.0  0.99373  0.90880  0.11756  1.0000
  H   H1095     1.0  0.14927  0.64899  0.07796  1.0000
  H   H1096     1.0  0.39885  0.71069  0.10552  1.0000
  C   C1366     1.0  0.15600  0.89283  0.99893  1.0000
  H   H1097     1.0  0.48366  0.91269  0.20259  1.0000
  C   C1367     1.0  0.03654  0.66539  0.07761  1.0000
  C   C1368     1.0  0.23331  0.76272  0.01787  1.0000
  H   H1098     1.0  0.43787  0.83186  0.05943  1.0000
  H   H1099     1.0  0.41099  0.83846  0.98439  1.0000
  H   H1100     1.0  0.45483  0.78516  0.01010  1.0000
  H   H1101     1.0  0.06171  0.72563  0.06371  1.0000
  C   C1369     1.0  0.31136  0.79250  0.02981  1.0000
  C   C1370     1.0  0.26804  0.96441  0.05986  1.0000
  H   H1102     1.0  0.99290  0.94498  0.18584  1.0000
  C   C1371     1.0  0.07102  0.77707  0.12820  1.0000
  H   H1103     1.0  0.03425  0.91120  0.14663  1.0000
  H   H1104     1.0  0.05115  0.66142  0.02480  1.0000
  H   H1105     1.0  0.43712  0.74120  0.14365  1.0000
  C   C1372     1.0  0.31403  0.79821  0.04780  1.0000
  C   C1373     1.0  0.29946  0.81139  0.05723  1.0000
  C   C1374     1.0  0.28223  0.81892  0.04863  1.0000
  C   C1375     1.0  0.39955  0.96658  0.98917  1.0000
  C   C1376     1.0  0.46842  0.70089  0.03534  1.0000
  Fe  Fe102     1.0  0.15958  0.82637  0.99082  1.0000
  C   C1377     1.0  0.30842  0.76061  0.97886  1.0000
  C   C1378     1.0  0.05166  0.71493  0.10325  1.0000
  C   C1379     1.0  0.02789  0.69193  0.11609  1.0000
  C   C1380     1.0  0.01402  0.93002  0.16517  1.0000
  H   H1106     1.0  0.47920  0.91552  0.09794  1.0000
  H   H1107     1.0  0.02064  0.75756  0.12951  1.0000
  C   C1381     1.0  0.06659  0.77047  0.11129  1.0000
  C   C1382     1.0  0.01232  0.70704  0.11263  1.0000
  C   C1383     1.0  0.98798  0.79581  0.06729  1.0000
  H   H1108     1.0  0.40384  0.83550  0.14288  1.0000
  H   H1109     1.0  0.40871  0.81171  0.11862  1.0000
  C   C1384     1.0  0.22703  0.94201  0.98126  1.0000
  C   C1385     1.0  0.27007  0.66187  0.98236  1.0000
  C   C1386     1.0  0.03945  0.76907  0.14596  1.0000
  H   H1110     1.0  0.32744  0.79242  0.05441  1.0000
  H   H1111     1.0  0.30159  0.81595  0.07108  1.0000
  H   H1112     1.0  0.27093  0.82926  0.05575  1.0000
  C   C1387     1.0  0.03482  0.76287  0.12898  1.0000
  H   H1113     1.0  0.42607  0.83164  0.16884  1.0000
  C   C1388     1.0  0.38449  0.75164  0.12718  1.0000
  C   C1389     1.0  0.39887  0.76385  0.11854  1.0000
  C   C1390     1.0  0.42068  0.78851  0.05734  1.0000
  C   C1391     1.0  0.42529  0.80779  0.05144  1.0000
  C   C1392     1.0  0.06877  0.77384  0.06202  1.0000
  H   H1114     1.0  0.15592  0.88072  0.01098  1.0000
  C   C1393     1.0  0.08342  0.74023  0.04344  1.0000
  H   H1115     1.0  0.18596  0.88345  0.98688  1.0000
  H   H1116     1.0  0.37795  0.72627  0.14831  1.0000
  H   H1117     1.0  0.36961  0.75481  0.12299  1.0000
  H   H1118     1.0  0.39477  0.77658  0.10796  1.0000
  H   H1119     1.0  0.41439  0.78120  0.04730  1.0000
  H   H1120     1.0  0.42237  0.81538  0.03699  1.0000
  C   C1394     1.0  0.42829  0.82108  0.15822  1.0000
  H   H1121     1.0  0.48458  0.65422  0.16096  1.0000
  C   C1395     1.0  0.45862  0.84019  0.01230  1.0000
  H   H1122     1.0  0.99383  0.83900  0.21952  1.0000
  H   H1123     1.0  0.47224  0.70656  0.98025  1.0000
  C   C1396     1.0  0.45833  0.86484  0.04120  1.0000
  C   C1397     1.0  0.44195  0.86691  0.03063  1.0000
  C   C1398     1.0  0.44199  0.85408  0.01656  1.0000
  P   P45       1.0  0.41976  0.88342  0.03745  1.0000
  C   C1399     1.0  0.40438  0.86812  0.05490  1.0000
  C   C1400     1.0  0.42539  0.90385  0.04832  1.0000
  C   C1401     1.0  0.41197  0.91187  0.06344  1.0000
  C   C1402     1.0  0.41617  0.92792  0.07162  1.0000
  C   C1403     1.0  0.43376  0.93611  0.06478  1.0000
  C   C1404     1.0  0.44698  0.92853  0.04938  1.0000
  C   C1405     1.0  0.44270  0.91261  0.04099  1.0000
  C   C1406     1.0  0.38974  0.85918  0.04861  1.0000
  C   C1407     1.0  0.37874  0.84634  0.06207  1.0000
  C   C1408     1.0  0.38254  0.84207  0.08176  1.0000
  C   C1409     1.0  0.39727  0.85073  0.08804  1.0000
  C   C1410     1.0  0.40820  0.86365  0.07466  1.0000
  C   C1411     1.0  0.40745  0.89497  0.01643  1.0000
  C   C1412     1.0  0.41807  0.89713  0.99731  1.0000
  C   C1413     1.0  0.02282  0.91181  0.15932  1.0000
  H   H1124     1.0  0.02875  0.76874  0.15927  1.0000
  C   C1414     1.0  0.37807  0.91327  0.00327  1.0000
  C   C1415     1.0  0.38743  0.90334  0.01935  1.0000
  H   H1125     1.0  0.46961  0.69842  0.07690  1.0000
  H   H1126     1.0  0.01180  0.74902  0.06640  1.0000
  C   C1416     1.0  0.47078  0.83882  0.18426  1.0000
  H   H1127     1.0  0.45809  0.87340  0.05325  1.0000
  H   H1128     1.0  0.42906  0.85459  0.00910  1.0000
  H   H1129     1.0  0.39830  0.90569  0.06904  1.0000
  H   H1130     1.0  0.40590  0.93382  0.08355  1.0000
  H   H1131     1.0  0.43711  0.94827  0.07151  1.0000
  H   H1132     1.0  0.99839  0.89256  0.09246  1.0000
  H   H1133     1.0  0.45296  0.90705  0.02892  1.0000
  H   H1134     1.0  0.38674  0.86206  0.03338  1.0000
  H   H1135     1.0  0.36700  0.84000  0.05731  1.0000
  H   H1136     1.0  0.37374  0.83242  0.09223  1.0000
  H   H1137     1.0  0.40011  0.84776  0.10333  1.0000
  H   H1138     1.0  0.41967  0.87008  0.07977  1.0000
  H   H1139     1.0  0.31564  0.66727  0.99344  1.0000
  C   C1417     1.0  0.46692  0.74639  0.05505  1.0000
  H   H1140     1.0  0.37906  0.90230  0.03408  1.0000
  C   C1418     1.0  0.24893  0.79153  0.00278  1.0000
  H   H1141     1.0  0.46954  0.67376  0.00022  1.0000
  H   H1142     1.0  0.28881  0.96973  0.03347  1.0000
  C   C1419     1.0  0.99169  0.72164  0.04823  1.0000
  C   C1420     1.0  0.98907  0.66706  0.02181  1.0000
  H   H1143     1.0  0.45170  0.73494  0.10689  1.0000
  C   C1421     1.0  0.48450  0.82994  0.09200  1.0000
  H   H1144     1.0  0.30012  0.83369  0.99351  1.0000
  C   C1422     1.0  0.25339  0.95228  0.12738  1.0000
  C   C1423     1.0  0.25408  0.93258  0.12397  1.0000
  H   H1145     1.0  0.15635  0.65948  0.04177  1.0000
  P   P46       1.0  0.27451  0.92171  0.10767  1.0000
  C   C1424     1.0  0.26894  0.89940  0.10010  1.0000
  C   C1425     1.0  0.27911  0.93768  0.08466  1.0000
  C   C1426     1.0  0.29708  0.93399  0.07228  1.0000
  C   C1427     1.0  0.30067  0.94569  0.05401  1.0000
  C   C1428     1.0  0.28332  0.88266  0.09919  1.0000
  C   C1429     1.0  0.27937  0.86598  0.09188  1.0000
  C   C1430     1.0  0.26107  0.86595  0.08531  1.0000
  C   C1431     1.0  0.24680  0.88268  0.08583  1.0000
  C   C1432     1.0  0.25074  0.89941  0.09306  1.0000
  C   C1433     1.0  0.29572  0.91745  0.12115  1.0000
  C   C1434     1.0  0.29778  0.90118  0.13601  1.0000
  C   C1435     1.0  0.31408  0.89798  0.14664  1.0000
  C   C1436     1.0  0.32813  0.91127  0.14286  1.0000
  C   C1437     1.0  0.32577  0.92786  0.12861  1.0000
  C   C1438     1.0  0.30964  0.93099  0.11779  1.0000
  P   P47       1.0  0.28989  0.79309  0.99794  1.0000
  H   H1146     1.0  0.38717  0.65287  0.04655  1.0000
  H   H1147     1.0  0.30807  0.92171  0.07660  1.0000
  H   H1148     1.0  0.31441  0.94255  0.04432  1.0000
  H   H1149     1.0  0.29789  0.88264  0.10341  1.0000
  H   H1150     1.0  0.29080  0.85337  0.09069  1.0000
  H   H1151     1.0  0.25811  0.85324  0.07921  1.0000
  H   H1152     1.0  0.23297  0.88285  0.07993  1.0000
  H   H1153     1.0  0.23981  0.91251  0.09268  1.0000
  H   H1154     1.0  0.28691  0.89087  0.13922  1.0000
  H   H1155     1.0  0.31593  0.88516  0.15774  1.0000
  H   H1156     1.0  0.34101  0.90868  0.15078  1.0000
  H   H1157     1.0  0.33679  0.93806  0.12567  1.0000
  H   H1158     1.0  0.30818  0.94395  0.10683  1.0000
  C   C1439     1.0  0.22338  0.94941  0.15057  1.0000
  C   C1440     1.0  0.43416  0.79404  0.13045  1.0000
  H   H1159     1.0  0.00516  0.89924  0.12498  1.0000
  C   C1441     1.0  0.01699  0.89427  0.16997  1.0000
  C   C1442     1.0  0.45503  0.74204  0.04175  1.0000
  C   C1443     1.0  0.45104  0.75605  0.02531  1.0000
  P   P48       1.0  0.44737  0.71766  0.04454  1.0000
  C   C1444     1.0  0.47503  0.85115  0.03670  1.0000
  C   C1445     1.0  0.43986  0.71037  0.07066  1.0000
  C   C1446     1.0  0.41990  0.71403  0.07905  1.0000
  C   C1447     1.0  0.41429  0.70802  0.09920  1.0000
  C   C1448     1.0  0.42851  0.69825  0.11111  1.0000
  C   C1449     1.0  0.44840  0.69477  0.10294  1.0000
  C   C1450     1.0  0.45408  0.70104  0.08289  1.0000
  C   C1451     1.0  0.41578  0.82330  0.14356  1.0000
  H   H1160     1.0  0.13563  0.65020  0.01873  1.0000
  C   C1452     1.0  0.42675  0.71739  0.03100  1.0000
  C   C1453     1.0  0.41104  0.73304  0.03087  1.0000
  C   C1454     1.0  0.39478  0.73246  0.02102  1.0000
  C   C1455     1.0  0.39410  0.71634  0.01113  1.0000
  C   C1456     1.0  0.40977  0.70084  0.01092  1.0000
  C   C1457     1.0  0.42598  0.70128  0.02090  1.0000
  H   H1161     1.0  0.06074  0.78178  0.15853  1.0000
  C   C1458     1.0  0.99389  0.73520  0.00762  1.0000
  C   C1459     1.0  0.43931  0.86499  0.21969  1.0000
  S   S199      1.0  0.39265  0.78376  0.00128  1.0000
  H   H1162     1.0  0.44311  0.75268  0.01403  1.0000
  H   H1163     1.0  0.42412  0.69324  0.12662  1.0000
  H   H1164     1.0  0.02398  0.88011  0.16558  1.0000
  H   H1165     1.0  0.05324  0.85413  0.20635  1.0000
  H   H1166     1.0  0.01872  0.94358  0.15702  1.0000
  H   H1167     1.0  0.45943  0.67469  0.05419  1.0000
  C   C1460     1.0  0.45462  0.87673  0.21780  1.0000
  H   H1168     1.0  0.45735  0.88696  0.20444  1.0000
  H   H1169     1.0  0.41134  0.74577  0.03828  1.0000
  H   H1170     1.0  0.38286  0.74472  0.02070  1.0000
  H   H1171     1.0  0.38155  0.71600  0.00342  1.0000
  C   C1461     1.0  0.26783  0.78090  0.00491  1.0000
  H   H1172     1.0  0.47039  0.84057  0.13909  1.0000
  C   C1462     1.0  0.06107  0.75596  0.06917  1.0000
  H   H1173     1.0  0.21315  0.92077  0.15572  1.0000
  H   H1174     1.0  0.12557  0.90484  0.00721  1.0000
  C   C1463     1.0  0.01016  0.72390  0.03699  1.0000
  C   C1464     1.0  0.01141  0.73050  0.01654  1.0000
  C   C1465     1.0  0.99345  0.91312  0.19250  1.0000
  P   P49       1.0  0.03541  0.73297  0.00208  1.0000
  C   C1466     1.0  0.04457  0.75520  0.00620  1.0000
  C   C1467     1.0  0.05200  0.71070  0.00888  1.0000
  C   C1468     1.0  0.07261  0.71096  0.00716  1.0000
  C   C1469     1.0  0.08534  0.69354  0.01176  1.0000
  H   H1175     1.0  0.24371  0.89515  0.00053  1.0000
  C   C1470     1.0  0.38916  0.73561  0.14148  1.0000
  C   C1471     1.0  0.04438  0.69261  0.01529  1.0000
  H   H1176     1.0  0.99877  0.88100  0.19490  1.0000
  H   H1177     1.0  0.99503  0.96654  0.11496  1.0000
  C   C1472     1.0  0.05760  0.79077  0.01117  1.0000
  C   C1473     1.0  0.04066  0.78457  0.02293  1.0000
  C   C1474     1.0  0.03412  0.76693  0.02040  1.0000
  H   H1178     1.0  0.10341  0.75867  0.02463  1.0000
  C   C1475     1.0  0.99932  0.93071  0.18159  1.0000
  H   H1179     1.0  0.40941  0.68857  0.00282  1.0000
  C   C1476     1.0  0.07210  0.65638  0.07028  1.0000
  C   C1477     1.0  0.99287  0.67176  0.00112  1.0000
  H   H1180     1.0  0.40858  0.72132  0.07013  1.0000
  C   C1478     1.0  0.23972  0.92113  0.13461  1.0000
  H   H1181     1.0  0.02465  0.67723  0.12265  1.0000
  H   H1182     1.0  0.02349  0.72033  0.04418  1.0000
  C   C1479     1.0  0.14426  0.65089  0.04753  1.0000
  H   H1183     1.0  0.07907  0.72442  0.00197  1.0000
  H   H1184     1.0  0.10126  0.69381  0.00986  1.0000
  H   H1185     1.0  0.05960  0.68424  0.11457  1.0000
  C   C1480     1.0  0.05745  0.77640  0.14552  1.0000
  H   H1186     1.0  0.02864  0.69165  0.01618  1.0000
  H   H1187     1.0  0.45952  0.68707  0.11205  1.0000
  C   C1481     1.0  0.00653  0.84382  0.22409  1.0000
  H   H1188     1.0  0.06273  0.80440  0.01320  1.0000
  H   H1189     1.0  0.03262  0.79348  0.03402  1.0000
  H   H1190     1.0  0.02073  0.76272  0.02932  1.0000
  H   H1191     1.0  0.99706  0.70409  0.11672  1.0000
  C   C1482     1.0  0.45788  0.77451  0.02290  1.0000
  C   C1483     1.0  0.26441  0.95273  0.07816  1.0000
  H   H1192     1.0  0.06695  0.71795  0.10034  1.0000
  C   C1484     1.0  0.06811  0.77924  0.99700  1.0000
  C   C1485     1.0  0.04826  0.76362  0.11147  1.0000
  H   H1193     1.0  0.32263  0.78191  0.02310  1.0000
  C   C1486     1.0  0.28620  0.96097  0.04785  1.0000
  C   C1487     1.0  0.48332  0.73188  0.10646  1.0000
  C   C1488     1.0  0.02027  0.77085  0.08187  1.0000
  H   H1194     1.0  0.47506  0.79296  0.03430  1.0000
  C   C1489     1.0  0.00853  0.76400  0.06999  1.0000
  C   C1490     1.0  0.08421  0.77464  0.04628  1.0000
  C   C1491     1.0  0.27970  0.81361  0.03046  1.0000
  P   P50       1.0  0.04168  0.75498  0.09010  1.0000
  H   H1195     1.0  0.44436  0.81488  0.09223  1.0000
  C   C1492     1.0  0.99991  0.80294  0.07866  1.0000
  H   H1196     1.0  0.02518  0.79648  0.09456  1.0000
  C   C1493     1.0  0.06162  0.76160  0.99446  1.0000
  C   C1494     1.0  0.06808  0.73930  0.05932  1.0000
  C   C1495     1.0  0.00966  0.66216  0.99045  1.0000
  H   H1197     1.0  0.43368  0.89141  0.99476  1.0000
  H   H1198     1.0  0.21729  0.79083  0.00726  1.0000
  C   C1496     1.0  0.04756  0.69589  0.11148  1.0000
  C   C1497     1.0  0.01635  0.72611  0.10452  1.0000
  H   H1199     1.0  0.45414  0.82274  0.20878  1.0000
  H   H1200     1.0  0.06299  0.78718  0.06871  1.0000
  H   H1201     1.0  0.08903  0.72732  0.03608  1.0000
  C   C1498     1.0  0.07760  0.67571  0.01820  1.0000
  C   C1499     1.0  0.99033  0.97177  0.12923  1.0000
  H   H1202     1.0  0.08134  0.78400  0.98795  1.0000
  C   C1500     1.0  0.01607  0.79056  0.08589  1.0000
  C   C1501     1.0  0.29427  0.80042  0.02085  1.0000
  C   C1502     1.0  0.02274  0.64801  0.00050  1.0000
  H   H1203     1.0  0.25311  0.73705  0.02787  1.0000
  C   C1503     1.0  0.42462  0.77858  0.07591  1.0000
  C   C1504     1.0  0.46930  0.77888  0.03648  1.0000
  H   H1204     1.0  0.28351  0.75316  0.01710  1.0000
  C   C1505     1.0  0.42260  0.74401  0.13864  1.0000
  C   C1506     1.0  0.32994  0.78387  0.98365  1.0000
  C   C1507     1.0  0.47329  0.83867  0.10789  1.0000
  Fe  Fe103     1.0  0.12958  0.79877  0.98380  1.0000
  H   H1205     1.0  0.45867  0.83028  0.00145  1.0000
  C   C1508     1.0  0.29164  0.83252  0.98175  1.0000
  H   H1206     1.0  0.99067  0.71639  0.06398  1.0000
  C   C1509     1.0  0.47931  0.83420  0.12674  1.0000
  C   C1510     1.0  0.44350  0.80514  0.15929  1.0000
  S   S200      1.0  0.10319  0.82129  0.99129  1.0000
  C   C1511     1.0  0.41865  0.80983  0.12977  1.0000
  H   H1207     1.0  0.00396  0.73774  0.10303  1.0000
  H   H1208     1.0  0.26632  0.81985  0.02393  1.0000
  H   H1209     1.0  0.26479  0.96110  0.11989  1.0000
  C   C1512     1.0  0.23613  0.90701  0.99112  1.0000
  H   H1210     1.0  0.45776  0.77896  0.14712  1.0000
  C   C1513     1.0  0.48281  0.70801  0.02037  1.0000
  C   C1514     1.0  0.43762  0.80735  0.08271  1.0000
  C   C1515     1.0  0.40818  0.73186  0.14728  1.0000
  C   C1516     1.0  0.31095  0.77775  0.98651  1.0000
  H   H1211     1.0  0.45480  0.94991  0.16973  1.0000
  H   H1212     1.0  0.45310  0.80334  0.17076  1.0000
  H   H1213     1.0  0.23743  0.97598  0.14293  1.0000
  C   C1517     1.0  0.00251  0.89488  0.18655  1.0000
  C   C1518     1.0  0.41819  0.75982  0.12385  1.0000
  H   H1214     1.0  0.99660  0.81806  0.08197  1.0000
  S   S201      1.0  0.19290  0.82988  0.98609  1.0000
  C   C1519     1.0  0.22399  0.90257  0.97826  1.0000
  P   P51       1.0  0.43659  0.77599  0.11342  1.0000
  C   C1520     1.0  0.44624  0.79147  0.14567  1.0000
  H   H1215     1.0  0.32597  0.93683  0.98391  1.0000
  H   H1216     1.0  0.21995  0.75578  0.02285  1.0000
  H   H1217     1.0  0.46375  0.97532  0.18787  1.0000
  S   S202      1.0  0.12725  0.76601  0.98239  1.0000
  C   C1521     1.0  0.23798  0.96071  0.14049  1.0000
  H   H1218     1.0  0.36408  0.69134  0.98521  1.0000
  H   H1219     1.0  0.22808  0.95728  0.98265  1.0000
  C   C1522     1.0  0.29902  0.95673  0.98032  1.0000
  Fe  Fe104     1.0  0.98614  0.80495  0.14506  1.0000
  H   H1220     1.0  0.12598  0.93279  0.97987  1.0000
  H   H1221     1.0  0.42040  0.65170  0.05723  1.0000
  H   H1222     1.0  0.06963  0.75327  0.98291  1.0000
  C   C1523     1.0  0.48171  0.94931  0.14911  1.0000
  C   C1524     1.0  0.46596  0.67623  0.98524  1.0000
  H   H1223     1.0  0.33213  0.79759  0.98844  1.0000
  C   C1525     1.0  0.47050  0.68065  0.04285  1.0000
  C   C1526     1.0  0.98994  0.90506  0.09918  1.0000
  H   H1224     1.0  0.24745  0.93007  0.00236  1.0000
  C   C1527     1.0  0.17306  0.89447  0.98523  1.0000
  H   H1225     1.0  0.21145  0.95595  0.16074  1.0000
  C   C1528     1.0  0.47790  0.77217  0.11072  1.0000
  C   C1529     1.0  0.40052  0.65007  0.03624  1.0000
  H   H1226     1.0  0.12062  0.72555  0.98611  1.0000
  C   C1530     1.0  0.23179  0.78242  0.00904  1.0000
  C   C1531     1.0  0.13896  0.90649  0.99688  1.0000
  C   C1532     1.0  0.47389  0.97019  0.17552  1.0000
  H   H1227     1.0  0.47958  0.83299  0.07754  1.0000
  H   H1228     1.0  0.29383  0.75619  0.97968  1.0000
  H   H1229     1.0  0.99440  0.74045  0.99194  1.0000
  C   C1533     1.0  0.38860  0.91496  0.98421  1.0000
  H   H1230     1.0  0.02764  0.70325  0.97890  1.0000
  C   C1534     1.0  0.40860  0.90690  0.98125  1.0000
  S   S203      1.0  0.36189  0.65143  0.97921  1.0000
  S   S204      1.0  0.33318  0.86040  0.97916  1.0000
  H   H1231     1.0  0.48334  0.76794  0.06264  1.0000
  H   H1232     1.0  0.48523  0.88260  0.08611  1.0000
  C   C1535     1.0  0.28510  0.67100  0.98758  1.0000
  H   H1233     1.0  0.28233  0.68643  0.98991  1.0000
  H   H1234     1.0  0.21929  0.65260  0.99023  1.0000
  C   C1536     1.0  0.28512  0.81458  0.98004  1.0000
  H   H1235     1.0  0.25576  0.67052  0.98077  1.0000
  H   H1236     1.0  0.48553  0.71630  0.10460  1.0000
  H   H1237     1.0  0.46319  0.93743  0.25769  1.0000
  C   C1537     1.0  0.01247  0.67214  0.45831  1.0000
  H   H1238     1.0  0.42533  0.78878  0.37741  1.0000
  C   C1538     1.0  0.07957  0.94171  0.31086  1.0000
  Fe  Fe105     1.0  0.37497  0.85374  0.45903  1.0000
  S   S205      1.0  0.38912  0.87092  0.43091  1.0000
  S   S206      1.0  0.35971  0.82745  0.45775  1.0000
  P   P52       1.0  0.05771  0.70247  0.42992  1.0000
  Fe  Fe106     1.0  0.20740  0.88690  0.42652  1.0000
  S   S207      1.0  0.19639  0.89032  0.45823  1.0000
  S   S208      1.0  0.24111  0.88191  0.41807  1.0000
  Fe  Fe107     1.0  0.16465  0.89630  0.41383  1.0000
  S   S209      1.0  0.15147  0.90071  0.44515  1.0000
  S   S210      1.0  0.13994  0.90354  0.39349  1.0000
  Fe  Fe108     1.0  0.17703  0.91723  0.44618  1.0000
  H   H1239     1.0  0.12783  0.87421  0.47038  1.0000
  Fe  Fe109     1.0  0.17209  0.87347  0.45392  1.0000
  H   H1240     1.0  0.44874  0.65631  0.29505  1.0000
  S   S211      1.0  0.18906  0.91496  0.41432  1.0000
  S   S212      1.0  0.18426  0.86794  0.42283  1.0000
  Fe  Fe110     1.0  0.07284  0.87911  0.31743  1.0000
  S   S213      1.0  0.05172  0.89704  0.33792  1.0000
  S   S214      1.0  0.10514  0.87197  0.32411  1.0000
  Fe  Fe111     1.0  0.03870  0.87041  0.29540  1.0000
  S   S215      1.0  0.01577  0.88724  0.31590  1.0000
  S   S216      1.0  0.02147  0.85650  0.27579  1.0000
  Fe  Fe112     1.0  0.03660  0.90998  0.31139  1.0000
  S   S217      1.0  0.02574  0.94273  0.30542  1.0000
  Fe  Fe113     1.0  0.03314  0.87267  0.34029  1.0000
  S   S218      1.0  0.02052  0.86079  0.37083  1.0000
  S   S219      1.0  0.05924  0.89416  0.28984  1.0000
  S   S220      1.0  0.05452  0.85387  0.32080  1.0000
  H   H1241     1.0  0.48180  0.79512  0.36136  1.0000
  C   C1539     1.0  0.01054  0.83913  0.36985  1.0000
  C   C1540     1.0  0.00968  0.83298  0.35157  1.0000
  H   H1242     1.0  0.28720  0.67523  0.33707  1.0000
  S   S221      1.0  0.47830  0.86132  0.26977  1.0000
  C   C1541     1.0  0.46949  0.76806  0.36224  1.0000
  C   C1542     1.0  0.00271  0.82835  0.38737  1.0000
  H   H1243     1.0  0.01578  0.84124  0.33800  1.0000
  H   H1244     1.0  0.17261  0.91624  0.24471  1.0000
  H   H1245     1.0  0.01665  0.76370  0.25958  1.0000
  H   H1246     1.0  0.44359  0.94392  0.43913  1.0000
  C   C1543     1.0  0.99990  0.94944  0.31097  1.0000
  C   C1544     1.0  0.44578  0.92978  0.43350  1.0000
  C   C1545     1.0  0.47946  0.78091  0.36976  1.0000
  C   C1546     1.0  0.99319  0.81194  0.38657  1.0000
  H   H1247     1.0  0.44246  0.78737  0.40681  1.0000
  H   H1248     1.0  0.35376  0.66921  0.41395  1.0000
  C   C1547     1.0  0.15853  0.92674  0.27206  1.0000
  C   C1548     1.0  0.98931  0.91429  0.23522  1.0000
  H   H1249     1.0  0.44831  0.66610  0.37570  1.0000
  C   C1549     1.0  0.00572  0.78616  0.27858  1.0000
  C   C1550     1.0  0.46626  0.87540  0.23333  1.0000
  C   C1551     1.0  0.13025  0.89322  0.37516  1.0000
  C   C1552     1.0  0.14046  0.87728  0.36573  1.0000
  C   C1553     1.0  0.13256  0.87080  0.35029  1.0000
  C   C1554     1.0  0.11409  0.87973  0.34449  1.0000
  C   C1555     1.0  0.10359  0.89510  0.35449  1.0000
  C   C1556     1.0  0.11169  0.90188  0.36952  1.0000
  H   H1250     1.0  0.15467  0.87028  0.36995  1.0000
  H   H1251     1.0  0.14085  0.85884  0.34277  1.0000
  H   H1252     1.0  0.08942  0.90216  0.35031  1.0000
  H   H1253     1.0  0.10356  0.91409  0.37675  1.0000
  C   C1557     1.0  0.47520  0.64919  0.46530  1.0000
  C   C1558     1.0  0.01948  0.90579  0.25079  1.0000
  H   H1254     1.0  0.10484  0.93841  0.28868  1.0000
  H   H1255     1.0  0.48169  0.81510  0.22885  1.0000
  C   C1559     1.0  0.28504  0.85261  0.46202  1.0000
  C   C1560     1.0  0.26474  0.85038  0.46631  1.0000
  C   C1561     1.0  0.25110  0.85951  0.45320  1.0000
  C   C1562     1.0  0.25766  0.87086  0.43546  1.0000
  C   C1563     1.0  0.27798  0.87313  0.43117  1.0000
  C   C1564     1.0  0.29159  0.86418  0.44442  1.0000
  H   H1256     1.0  0.05225  0.86066  0.24109  1.0000
  H   H1257     1.0  0.23557  0.85751  0.45670  1.0000
  H   H1258     1.0  0.28321  0.88188  0.41751  1.0000
  H   H1259     1.0  0.30715  0.86605  0.44093  1.0000
  C   C1565     1.0  0.40973  0.85960  0.41596  1.0000
  C   C1566     1.0  0.42083  0.84203  0.42323  1.0000
  C   C1567     1.0  0.43757  0.83371  0.41135  1.0000
  C   C1568     1.0  0.44311  0.84247  0.39190  1.0000
  C   C1569     1.0  0.43210  0.86014  0.38461  1.0000
  C   C1570     1.0  0.41556  0.86875  0.39669  1.0000
  H   H1260     1.0  0.41664  0.83495  0.43809  1.0000
  H   H1261     1.0  0.44625  0.82029  0.41725  1.0000
  H   H1262     1.0  0.43630  0.86711  0.36971  1.0000
  H   H1263     1.0  0.40713  0.88246  0.39102  1.0000
  C   C1571     1.0  0.05533  0.69685  0.40553  1.0000
  C   C1572     1.0  0.45131  0.89327  0.41898  1.0000
  H   H1264     1.0  0.15035  0.95942  0.33907  1.0000
  C   C1573     1.0  0.05161  0.67461  0.46374  1.0000
  C   C1574     1.0  0.44791  0.85015  0.25260  1.0000
  S   S222      1.0  0.47517  0.81885  0.32192  1.0000
  C   C1575     1.0  0.46305  0.86208  0.25079  1.0000
  H   H1265     1.0  0.44519  0.83990  0.26593  1.0000
  H   H1266     1.0  0.04731  0.68531  0.35382  1.0000
  C   C1576     1.0  0.41258  0.72199  0.44655  1.0000
  C   C1577     1.0  0.00901  0.90507  0.23505  1.0000
  C   C1578     1.0  0.17588  0.90508  0.34549  1.0000
  H   H1267     1.0  0.17718  0.95718  0.30001  1.0000
  P   P53       1.0  0.13988  0.93990  0.30782  1.0000
  C   C1579     1.0  0.47218  0.70263  0.38608  1.0000
  S   S223      1.0  0.46383  0.83046  0.37765  1.0000
  C   C1580     1.0  0.04986  0.68841  0.36813  1.0000
  H   H1268     1.0  0.02990  0.78343  0.43928  1.0000
  H   H1269     1.0  0.00064  0.84240  0.44396  1.0000
  H   H1270     1.0  0.02507  0.76448  0.33701  1.0000
  H   H1271     1.0  0.16569  0.94002  0.26910  1.0000
  H   H1272     1.0  0.01855  0.91621  0.27890  1.0000
  C   C1581     1.0  0.05817  0.71087  0.38867  1.0000
  H   H1273     1.0  0.06215  0.72520  0.38977  1.0000
  C   C1582     1.0  0.05990  0.74328  0.42313  1.0000
  C   C1583     1.0  0.32400  0.78767  0.47012  1.0000
  C   C1584     1.0  0.04873  0.72820  0.43267  1.0000
  C   C1585     1.0  0.16926  0.93771  0.35587  1.0000
  C   C1586     1.0  0.45837  0.68907  0.38834  1.0000
  C   C1587     1.0  0.33086  0.65402  0.40701  1.0000
  C   C1588     1.0  0.08626  0.94551  0.34350  1.0000
  C   C1589     1.0  0.99138  0.80641  0.36824  1.0000
  C   C1590     1.0  0.07860  0.83545  0.36279  1.0000
  C   C1591     1.0  0.06761  0.81953  0.36542  1.0000
  C   C1592     1.0  0.05780  0.81341  0.38414  1.0000
  C   C1593     1.0  0.05880  0.82338  0.40017  1.0000
  C   C1594     1.0  0.06878  0.84019  0.39733  1.0000
  C   C1595     1.0  0.07916  0.84579  0.37864  1.0000
  P   P54       1.0  0.06976  0.85371  0.41763  1.0000
  C   C1596     1.0  0.04936  0.85007  0.43717  1.0000
  C   C1597     1.0  0.09399  0.84571  0.42546  1.0000
  C   C1598     1.0  0.09697  0.82951  0.44021  1.0000
  C   C1599     1.0  0.34971  0.75955  0.46908  1.0000
  C   C1600     1.0  0.43415  0.89871  0.43173  1.0000
  C   C1601     1.0  0.12910  0.84930  0.42216  1.0000
  C   C1602     1.0  0.11032  0.85518  0.41609  1.0000
  C   C1603     1.0  0.47688  0.93188  0.26390  1.0000
  C   C1604     1.0  0.46303  0.92438  0.42078  1.0000
  C   C1605     1.0  0.45911  0.90896  0.34752  1.0000
  C   C1606     1.0  0.01484  0.84487  0.44756  1.0000
  C   C1607     1.0  0.03047  0.84843  0.43247  1.0000
  C   C1608     1.0  0.06678  0.88003  0.40960  1.0000
  C   C1609     1.0  0.05543  0.88811  0.39427  1.0000
  C   C1610     1.0  0.05289  0.90857  0.38833  1.0000
  C   C1611     1.0  0.06163  0.92108  0.39768  1.0000
  C   C1612     1.0  0.07276  0.91315  0.41312  1.0000
  C   C1613     1.0  0.07512  0.89274  0.41923  1.0000
  H   H1274     1.0  0.08646  0.84003  0.34836  1.0000
  H   H1275     1.0  0.06662  0.81204  0.35291  1.0000
  H   H1276     1.0  0.04913  0.80119  0.38615  1.0000
  H   H1277     1.0  0.05146  0.81813  0.41461  1.0000
  H   H1278     1.0  0.08755  0.85826  0.37623  1.0000
  C   C1614     1.0  0.13184  0.83358  0.43729  1.0000
  H   H1279     1.0  0.47873  0.65846  0.27081  1.0000
  C   C1615     1.0  0.42825  0.70712  0.45047  1.0000
  H   H1280     1.0  0.14148  0.85708  0.41519  1.0000
  H   H1281     1.0  0.10860  0.86724  0.40416  1.0000
  H   H1282     1.0  0.47362  0.66806  0.34585  1.0000
  H   H1283     1.0  0.01679  0.69430  0.43318  1.0000
  H   H1284     1.0  0.16176  0.90084  0.32109  1.0000
  C   C1616     1.0  0.44594  0.64788  0.42909  1.0000
  H   H1285     1.0  0.02790  0.84954  0.41715  1.0000
  H   H1286     1.0  0.04857  0.87863  0.38687  1.0000
  H   H1287     1.0  0.04422  0.91464  0.37639  1.0000
  H   H1288     1.0  0.05983  0.93687  0.39292  1.0000
  H   H1289     1.0  0.07976  0.92276  0.42025  1.0000
  H   H1290     1.0  0.08365  0.88686  0.43134  1.0000
  C   C1617     1.0  0.03454  0.71120  0.31365  1.0000
  C   C1618     1.0  0.11582  0.82359  0.44619  1.0000
  H   H1291     1.0  0.04351  0.65987  0.38316  1.0000
  H   H1292     1.0  0.28003  0.67191  0.41030  1.0000
  H   H1293     1.0  0.24295  0.91101  0.45192  1.0000
  C   C1619     1.0  0.27616  0.69073  0.36228  1.0000
  H   H1294     1.0  0.04641  0.66145  0.31241  1.0000
  C   C1620     1.0  0.04325  0.68648  0.44784  1.0000
  C   C1621     1.0  0.28166  0.67243  0.39433  1.0000
  H   H1295     1.0  0.45894  0.73981  0.36684  1.0000
  Fe  Fe114     1.0  0.48464  0.84489  0.30025  1.0000
  H   H1296     1.0  0.18064  0.98062  0.47439  1.0000
  C   C1622     1.0  0.02355  0.68523  0.44533  1.0000
  C   C1623     1.0  0.47448  0.74353  0.39100  1.0000
  H   H1297     1.0  0.05702  0.71779  0.35721  1.0000
  H   H1298     1.0  0.00363  0.83286  0.40155  1.0000
  H   H1299     1.0  0.13350  0.87860  0.28191  1.0000
  C   C1624     1.0  0.14053  0.89203  0.27902  1.0000
  C   C1625     1.0  0.03611  0.84653  0.47213  1.0000
  H   H1300     1.0  0.01301  0.66170  0.33205  1.0000
  H   H1301     1.0  0.11685  0.94455  0.34717  1.0000
  H   H1302     1.0  0.32051  0.66743  0.40516  1.0000
  H   H1303     1.0  0.46907  0.90238  0.27253  1.0000
  C   C1626     1.0  0.10665  0.94405  0.33676  1.0000
  C   C1627     1.0  0.98881  0.67490  0.40902  1.0000
  C   C1628     1.0  0.99096  0.96796  0.30284  1.0000
  C   C1629     1.0  0.28568  0.67446  0.35306  1.0000
  S   S224      1.0  0.17394  0.94745  0.45656  1.0000
  H   H1304     1.0  0.45311  0.87909  0.41339  1.0000
  H   H1305     1.0  0.99055  0.85308  0.31401  1.0000
  H   H1306     1.0  0.47775  0.88486  0.23188  1.0000
  C   C1630     1.0  0.01765  0.84396  0.46738  1.0000
  H   H1307     1.0  0.07396  0.73969  0.41410  1.0000
  C   C1631     1.0  0.17851  0.91817  0.35823  1.0000
  C   C1632     1.0  0.07273  0.94429  0.33057  1.0000
  C   C1633     1.0  0.14542  0.92292  0.28951  1.0000
  C   C1634     1.0  0.09989  0.94038  0.30404  1.0000
  H   H1308     1.0  0.01035  0.75704  0.45634  1.0000
  S   S225      1.0  0.16431  0.84736  0.47597  1.0000
  H   H1309     1.0  0.15656  0.88548  0.25090  1.0000
  H   H1310     1.0  0.27028  0.70411  0.35344  1.0000
  Fe  Fe115     1.0  0.48000  0.83575  0.34618  1.0000
  H   H1311     1.0  0.47184  0.91280  0.31684  1.0000
  C   C1635     1.0  0.27417  0.68972  0.38290  1.0000
  C   C1636     1.0  0.04573  0.69323  0.30941  1.0000
  C   C1637     1.0  0.14593  0.96403  0.29651  1.0000
  H   H1312     1.0  0.08866  0.67012  0.41979  1.0000
  C   C1638     1.0  0.01036  0.91556  0.26682  1.0000
  H   H1313     1.0  0.47768  0.72814  0.44305  1.0000
  H   H1314     1.0  0.42293  0.88879  0.43590  1.0000
  C   C1639     1.0  0.33754  0.91868  0.47723  1.0000
  C   C1640     1.0  0.47291  0.67795  0.35688  1.0000
  C   C1641     1.0  0.46675  0.74954  0.37292  1.0000
  C   C1642     1.0  0.48415  0.75674  0.39863  1.0000
  P   P55       1.0  0.47152  0.71920  0.40429  1.0000
  C   C1643     1.0  0.44821  0.72004  0.42045  1.0000
  C   C1644     1.0  0.44593  0.70602  0.43742  1.0000
  H   H1315     1.0  0.99305  0.84502  0.25443  1.0000
  C   C1645     1.0  0.16251  0.91327  0.25816  1.0000
  H   H1316     1.0  0.99911  0.64883  0.39428  1.0000
  C   C1646     1.0  0.43234  0.73482  0.41646  1.0000
  H   H1317     1.0  0.04091  0.72487  0.30887  1.0000
  C   C1647     1.0  0.15350  0.89593  0.26163  1.0000
  C   C1648     1.0  0.41461  0.73578  0.42949  1.0000
  H   H1318     1.0  0.41786  0.92119  0.44860  1.0000
  H   H1319     1.0  0.04913  0.66674  0.41577  1.0000
  H   H1320     1.0  0.99768  0.66983  0.42092  1.0000
  C   C1649     1.0  0.45878  0.67678  0.37377  1.0000
  H   H1321     1.0  0.06048  0.69310  0.30115  1.0000
  H   H1322     1.0  0.45789  0.69436  0.44081  1.0000
  C   C1650     1.0  0.43131  0.91698  0.43890  1.0000
  H   H1323     1.0  0.06907  0.94059  0.30089  1.0000
  H   H1324     1.0  0.42423  0.84257  0.23883  1.0000
  H   H1325     1.0  0.43366  0.74570  0.40342  1.0000
  C   C1651     1.0  0.02260  0.85335  0.25030  1.0000
  C   C1652     1.0  0.24079  0.91562  0.46660  1.0000
  C   C1653     1.0  0.05062  0.67819  0.40324  1.0000
  H   H1326     1.0  0.23379  0.94656  0.45603  1.0000
  H   H1327     1.0  0.00780  0.72290  0.40087  1.0000
  H   H1328     1.0  0.03460  0.89842  0.25077  1.0000
  C   C1654     1.0  0.34093  0.75111  0.38893  1.0000
  C   C1655     1.0  0.33947  0.76034  0.36959  1.0000
  C   C1656     1.0  0.34345  0.77988  0.36421  1.0000
  C   C1657     1.0  0.34883  0.79021  0.37816  1.0000
  C   C1658     1.0  0.35015  0.78111  0.39771  1.0000
  C   C1659     1.0  0.34632  0.76140  0.40293  1.0000
  P   P56       1.0  0.35779  0.79442  0.41541  1.0000
  C   C1660     1.0  0.34825  0.82028  0.40974  1.0000
  C   C1661     1.0  0.34779  0.78480  0.44034  1.0000
  C   C1662     1.0  0.35699  0.76697  0.44975  1.0000
  H   H1329     1.0  0.35710  0.74596  0.47635  1.0000
  H   H1330     1.0  0.98650  0.88688  0.38796  1.0000
  C   C1663     1.0  0.48257  0.90235  0.37162  1.0000
  C   C1664     1.0  0.33108  0.79501  0.45070  1.0000
  C   C1665     1.0  0.32827  0.82570  0.40658  1.0000
  C   C1666     1.0  0.32066  0.84566  0.40239  1.0000
  C   C1667     1.0  0.33297  0.86034  0.40111  1.0000
  C   C1668     1.0  0.35293  0.85507  0.40390  1.0000
  C   C1669     1.0  0.36059  0.83514  0.40818  1.0000
  C   C1670     1.0  0.38469  0.79153  0.41276  1.0000
  C   C1671     1.0  0.39457  0.79117  0.42928  1.0000
  C   C1672     1.0  0.41532  0.78934  0.42721  1.0000
  C   C1673     1.0  0.42639  0.78828  0.40853  1.0000
  C   C1674     1.0  0.41670  0.78902  0.39194  1.0000
  C   C1675     1.0  0.39593  0.79059  0.39401  1.0000
  H   H1331     1.0  0.33789  0.73595  0.39311  1.0000
  H   H1332     1.0  0.33529  0.75236  0.35876  1.0000
  H   H1333     1.0  0.34239  0.78704  0.34920  1.0000
  H   H1334     1.0  0.35203  0.80529  0.37366  1.0000
  H   H1335     1.0  0.34736  0.75390  0.41777  1.0000
  H   H1336     1.0  0.36998  0.75890  0.44227  1.0000
  C   C1676     1.0  0.00957  0.75087  0.28997  1.0000
  H   H1337     1.0  0.08478  0.82154  0.44725  1.0000
  C   C1677     1.0  0.01161  0.73191  0.38687  1.0000
  H   H1338     1.0  0.32378  0.80899  0.44428  1.0000
  H   H1339     1.0  0.31847  0.81452  0.40772  1.0000
  H   H1340     1.0  0.30511  0.84977  0.40047  1.0000
  H   H1341     1.0  0.32700  0.87582  0.39816  1.0000
  H   H1342     1.0  0.36245  0.86646  0.40308  1.0000
  H   H1343     1.0  0.37603  0.83153  0.41063  1.0000
  H   H1344     1.0  0.38632  0.79251  0.44380  1.0000
  H   H1345     1.0  0.42273  0.78917  0.44010  1.0000
  H   H1346     1.0  0.44737  0.68786  0.40132  1.0000
  H   H1347     1.0  0.11600  0.97575  0.29038  1.0000
  H   H1348     1.0  0.38874  0.79146  0.38091  1.0000
  C   C1678     1.0  0.02421  0.75320  0.44707  1.0000
  C   C1679     1.0  0.03529  0.76808  0.43743  1.0000
  C   C1680     1.0  0.05318  0.76312  0.42551  1.0000
  H   H1349     1.0  0.06678  0.67516  0.46606  1.0000
  C   C1681     1.0  0.03080  0.73341  0.44468  1.0000
  C   C1682     1.0  0.08349  0.69686  0.43387  1.0000
  C   C1683     1.0  0.09191  0.70864  0.44450  1.0000
  C   C1684     1.0  0.11146  0.70338  0.44876  1.0000
  C   C1685     1.0  0.12271  0.68626  0.44252  1.0000
  C   C1686     1.0  0.11446  0.67449  0.43191  1.0000
  C   C1687     1.0  0.09494  0.67976  0.42755  1.0000
  H   H1350     1.0  0.01711  0.80357  0.47305  1.0000
  H   H1351     1.0  0.06187  0.77467  0.41819  1.0000
  H   H1352     1.0  0.02178  0.72240  0.45242  1.0000
  C   C1688     1.0  0.11363  0.94145  0.31696  1.0000
  H   H1353     1.0  0.08331  0.72167  0.44989  1.0000
  H   H1354     1.0  0.11776  0.71237  0.45724  1.0000
  H   H1355     1.0  0.13771  0.68191  0.44619  1.0000
  C   C1689     1.0  0.34972  0.65511  0.41193  1.0000
  C   C1690     1.0  0.16394  0.91147  0.33038  1.0000
  H   H1356     1.0  0.18262  0.88978  0.34772  1.0000
  C   C1691     1.0  0.13656  0.90546  0.29286  1.0000
  H   H1357     1.0  0.99349  0.69299  0.34003  1.0000
  C   C1692     1.0  0.13122  0.97864  0.28929  1.0000
  C   C1693     1.0  0.01904  0.67551  0.32680  1.0000
  H   H1358     1.0  0.47163  0.64842  0.40685  1.0000
  C   C1694     1.0  0.05189  0.84973  0.45711  1.0000
  C   C1695     1.0  0.03943  0.85611  0.23647  1.0000
  H   H1359     1.0  0.40257  0.74741  0.42647  1.0000
  C   C1696     1.0  0.02705  0.75949  0.36810  1.0000
  C   C1697     1.0  0.29115  0.65597  0.38518  1.0000
  H   H1360     1.0  0.13387  0.96798  0.44413  1.0000
  C   C1698     1.0  0.15750  0.94424  0.34063  1.0000
  C   C1699     1.0  0.00279  0.75463  0.30952  1.0000
  C   C1700     1.0  0.04765  0.67411  0.38469  1.0000
  C   C1701     1.0  0.00003  0.81663  0.35075  1.0000
  H   H1361     1.0  0.99875  0.81231  0.33657  1.0000
  C   C1702     1.0  0.05536  0.70668  0.37007  1.0000
  C   C1703     1.0  0.15485  0.93119  0.32767  1.0000
  H   H1362     1.0  0.99374  0.80511  0.30092  1.0000
  H   H1363     1.0  0.34278  0.91291  0.46328  1.0000
  C   C1704     1.0  0.43602  0.85173  0.23720  1.0000
  H   H1364     1.0  0.06601  0.85179  0.46121  1.0000
  H   H1365     1.0  0.42689  0.69652  0.46378  1.0000
  H   H1366     1.0  0.17095  0.94764  0.36614  1.0000
  H   H1367     1.0  0.14634  0.82926  0.44223  1.0000
  H   H1368     1.0  0.12659  0.90223  0.30632  1.0000
  H   H1369     1.0  0.26677  0.70232  0.39006  1.0000
  C   C1705     1.0  0.16556  0.96830  0.29470  1.0000
  H   H1370     1.0  0.12295  0.66091  0.42755  1.0000
  H   H1371     1.0  0.18728  0.91298  0.37029  1.0000
  C   C1706     1.0  0.98813  0.93656  0.32345  1.0000
  C   C1707     1.0  0.99818  0.78996  0.29785  1.0000
  H   H1372     1.0  0.99490  0.92245  0.33011  1.0000
  C   C1708     1.0  0.47483  0.91010  0.33210  1.0000
  C   C1709     1.0  0.03789  0.67540  0.31580  1.0000
  H   H1373     1.0  0.99031  0.77746  0.32798  1.0000
  C   C1710     1.0  0.99059  0.92427  0.26738  1.0000
  C   C1711     1.0  0.48018  0.91211  0.27228  1.0000
  H   H1374     1.0  0.39894  0.72288  0.45682  1.0000
  C   C1712     1.0  0.00614  0.84728  0.24391  1.0000
  H   H1375     1.0  0.08101  0.94717  0.35886  1.0000
  C   C1713     1.0  0.46586  0.90612  0.41332  1.0000
  H   H1376     1.0  0.99728  0.67130  0.45620  1.0000
  C   C1714     1.0  0.00974  0.73977  0.35156  1.0000
  C   C1715     1.0  0.02215  0.74792  0.38615  1.0000
  H   H1377     1.0  0.00719  0.79838  0.26673  1.0000
  C   C1716     1.0  0.01118  0.76662  0.27461  1.0000
  H   H1378     1.0  0.02625  0.75153  0.39962  1.0000
  H   H1379     1.0  0.44394  0.91085  0.34419  1.0000
  C   C1717     1.0  0.00550  0.72779  0.36963  1.0000
  H   H1380     1.0  0.44829  0.66107  0.43477  1.0000
  H   H1381     1.0  0.47403  0.93448  0.41689  1.0000
  H   H1382     1.0  0.46419  0.77241  0.34796  1.0000
  H   H1383     1.0  0.03489  0.77212  0.36760  1.0000
  C   C1718     1.0  0.99644  0.77426  0.31319  1.0000
  C   C1719     1.0  0.98965  0.66289  0.39393  1.0000
  C   C1720     1.0  0.01520  0.71147  0.32387  1.0000
  C   C1721     1.0  0.00786  0.69341  0.33109  1.0000
  C   C1722     1.0  0.02112  0.75529  0.35078  1.0000
  C   C1723     1.0  0.29319  0.65714  0.36445  1.0000
  H   H1384     1.0  0.99719  0.71545  0.37045  1.0000
  H   H1385     1.0  0.05694  0.94511  0.33577  1.0000
  H   H1386     1.0  0.01349  0.73587  0.28648  1.0000
  P   P57       1.0  0.00092  0.73460  0.32971  1.0000
  C   C1724     1.0  0.23576  0.93563  0.46890  1.0000
  H   H1387     1.0  0.45050  0.90416  0.37888  1.0000
  H   H1388     1.0  0.36412  0.93168  0.47745  1.0000
  C   C1725     1.0  0.46292  0.90506  0.36723  1.0000
  C   C1726     1.0  0.02101  0.66012  0.47384  1.0000
  H   H1389     1.0  0.98698  0.80382  0.40016  1.0000
  H   H1390     1.0  0.11794  0.81145  0.45798  1.0000
  S   S226      1.0  0.34896  0.86887  0.47789  1.0000
  H   H1391     1.0  0.99998  0.97802  0.29322  1.0000
  C   C1727     1.0  0.04049  0.66147  0.47669  1.0000
  H   H1392     1.0  0.43455  0.85579  0.47793  1.0000
  H   H1393     1.0  0.12190  0.73930  0.57204  1.0000
  S   S227      1.0  0.30149  0.84041  0.47905  1.0000
  H   H1394     1.0  0.27108  0.96320  0.61658  1.0000
  H   H1395     1.0  0.11064  0.81797  0.58290  1.0000
  Fe  Fe116     1.0  0.39331  0.66929  0.52116  1.0000
  S   S228      1.0  0.37570  0.69784  0.53093  1.0000
  H   H1396     1.0  0.10139  0.64919  0.59862  1.0000
  C   C1728     1.0  0.02256  0.67245  0.52677  1.0000
  H   H1397     1.0  0.13675  0.96559  0.53371  1.0000
  C   C1729     1.0  0.34561  0.96343  0.54252  1.0000
  Fe  Fe117     1.0  0.38323  0.94168  0.63596  1.0000
  S   S229      1.0  0.40384  0.95587  0.61090  1.0000
  S   S230      1.0  0.39788  0.91992  0.65980  1.0000
  C   C1730     1.0  0.38287  0.66036  0.57682  1.0000
  Fe  Fe118     1.0  0.38347  0.94887  0.59058  1.0000
  S   S231      1.0  0.39306  0.93832  0.56009  1.0000
  H   H1398     1.0  0.04815  0.75778  0.48942  1.0000
  S   S232      1.0  0.36469  0.93247  0.61523  1.0000
  H   H1399     1.0  0.39710  0.69850  0.57343  1.0000
  H   H1400     1.0  0.10961  0.96029  0.61410  1.0000
  C   C1731     1.0  0.04143  0.95005  0.58259  1.0000
  C   C1732     1.0  0.99883  0.89488  0.57442  1.0000
  S   S233      1.0  0.36282  0.86391  0.53369  1.0000
  S   S234      1.0  0.34791  0.82578  0.50568  1.0000
  Fe  Fe119     1.0  0.07204  0.80998  0.52760  1.0000
  S   S235      1.0  0.09522  0.79513  0.54663  1.0000
  S   S236      1.0  0.07464  0.83771  0.50589  1.0000
  Fe  Fe120     1.0  0.04306  0.78138  0.54520  1.0000
  S   S237      1.0  0.06358  0.76450  0.56658  1.0000
  S   S238      1.0  0.01354  0.77179  0.54212  1.0000
  Fe  Fe121     1.0  0.06993  0.79470  0.57160  1.0000
  S   S239      1.0  0.07657  0.80150  0.60156  1.0000
  Fe  Fe122     1.0  0.08719  0.76637  0.54020  1.0000
  S   S240      1.0  0.11130  0.74187  0.53037  1.0000
  S   S241      1.0  0.04708  0.81116  0.55272  1.0000
  S   S242      1.0  0.06642  0.78154  0.51873  1.0000
  Fe  Fe123     1.0  0.07932  0.89536  0.66378  1.0000
  S   S243      1.0  0.09006  0.92204  0.64468  1.0000
  S   S244      1.0  0.06257  0.87899  0.64595  1.0000
  Fe  Fe124     1.0  0.09186  0.90865  0.70126  1.0000
  S   S245      1.0  0.10296  0.93578  0.68397  1.0000
  Fe  Fe125     1.0  0.07547  0.93938  0.66915  1.0000
  S   S246      1.0  0.05973  0.97010  0.66075  1.0000
  Fe  Fe126     1.0  0.11633  0.91577  0.66133  1.0000
  S   S247      1.0  0.14745  0.91613  0.64563  1.0000
  S   S248      1.0  0.06304  0.91339  0.68783  1.0000
  S   S249      1.0  0.10694  0.88791  0.67919  1.0000
  C   C1733     1.0  0.34280  0.93685  0.50311  1.0000
  C   C1734     1.0  0.43254  0.68714  0.64031  1.0000
  C   C1735     1.0  0.02333  0.96003  0.67883  1.0000
  H   H1401     1.0  0.32513  0.87655  0.57155  1.0000
  C   C1736     1.0  0.15466  0.97889  0.69870  1.0000
  H   H1402     1.0  0.03136  0.94694  0.68613  1.0000
  C   C1737     1.0  0.13908  0.84449  0.48188  1.0000
  C   C1738     1.0  0.10602  0.71772  0.52888  1.0000
  C   C1739     1.0  0.08924  0.71036  0.53988  1.0000
  C   C1740     1.0  0.08592  0.69083  0.53910  1.0000
  C   C1741     1.0  0.09889  0.67860  0.52680  1.0000
  C   C1742     1.0  0.11568  0.68594  0.51576  1.0000
  C   C1743     1.0  0.11932  0.70534  0.51698  1.0000
  H   H1403     1.0  0.07897  0.71965  0.54922  1.0000
  H   H1404     1.0  0.43299  0.83230  0.50866  1.0000
  H   H1405     1.0  0.12586  0.67671  0.50630  1.0000
  H   H1406     1.0  0.13243  0.71085  0.50855  1.0000
  C   C1744     1.0  0.07369  0.82411  0.61213  1.0000
  C   C1745     1.0  0.05830  0.83943  0.60843  1.0000
  C   C1746     1.0  0.05530  0.85609  0.61878  1.0000
  C   C1747     1.0  0.06805  0.85814  0.63242  1.0000
  C   C1748     1.0  0.08391  0.84317  0.63556  1.0000
  C   C1749     1.0  0.08646  0.82613  0.62575  1.0000
  H   H1407     1.0  0.04815  0.83799  0.59828  1.0000
  H   H1408     1.0  0.04274  0.86729  0.61648  1.0000
  H   H1409     1.0  0.09370  0.84433  0.64614  1.0000
  H   H1410     1.0  0.09821  0.81427  0.62901  1.0000
  C   C1750     1.0  0.01560  0.78980  0.50335  1.0000
  C   C1751     1.0  0.00548  0.77769  0.51842  1.0000
  C   C1752     1.0  0.32276  0.91882  0.59222  1.0000
  H   H1411     1.0  0.36861  0.84133  0.60293  1.0000
  H   H1412     1.0  0.02823  0.79607  0.50620  1.0000
  C   C1753     1.0  0.00802  0.66194  0.52248  1.0000
  C   C1754     1.0  0.28818  0.95175  0.53682  1.0000
  Fe  Fe127     1.0  0.37382  0.81375  0.48494  1.0000
  C   C1755     1.0  0.45171  0.68846  0.54893  1.0000
  H   H1413     1.0  0.05993  0.68478  0.50667  1.0000
  C   C1756     1.0  0.23286  0.94145  0.48783  1.0000
  C   C1757     1.0  0.17766  0.96218  0.62325  1.0000
  C   C1758     1.0  0.17252  0.94300  0.62878  1.0000
  C   C1759     1.0  0.15407  0.94013  0.63975  1.0000
  C   C1760     1.0  0.14096  0.95648  0.64552  1.0000
  C   C1761     1.0  0.12406  0.75134  0.57969  1.0000
  H   H1414     1.0  0.19181  0.96426  0.61457  1.0000
  H   H1415     1.0  0.18270  0.93040  0.62431  1.0000
  H   H1416     1.0  0.12652  0.95452  0.65347  1.0000
  H   H1417     1.0  0.12929  0.79577  0.60617  1.0000
  C   C1762     1.0  0.05698  0.70065  0.50311  1.0000
  C   C1763     1.0  0.38375  0.91816  0.55268  1.0000
  C   C1764     1.0  0.37594  0.90346  0.56661  1.0000
  C   C1765     1.0  0.36978  0.88707  0.56036  1.0000
  C   C1766     1.0  0.37090  0.88521  0.54017  1.0000
  C   C1767     1.0  0.37817  0.90020  0.52613  1.0000
  C   C1768     1.0  0.38469  0.91652  0.53239  1.0000
  H   H1418     1.0  0.37494  0.90453  0.58225  1.0000
  H   H1419     1.0  0.36391  0.87578  0.57130  1.0000
  H   H1420     1.0  0.37900  0.89908  0.51051  1.0000
  H   H1421     1.0  0.39054  0.92791  0.52146  1.0000
  H   H1422     1.0  0.03775  0.95685  0.63111  1.0000
  C   C1769     1.0  0.39754  0.68723  0.62401  1.0000
  C   C1770     1.0  0.38278  0.93640  0.69450  1.0000
  C   C1771     1.0  0.39662  0.92236  0.68541  1.0000
  C   C1772     1.0  0.40985  0.90973  0.69696  1.0000
  C   C1773     1.0  0.09923  0.83982  0.49549  1.0000
  H   H1423     1.0  0.47822  0.97199  0.69553  1.0000
  H   H1424     1.0  0.37248  0.94620  0.68589  1.0000
  H   H1425     1.0  0.42062  0.89880  0.69011  1.0000
  C   C1774     1.0  0.37991  0.72141  0.51767  1.0000
  C   C1775     1.0  0.99613  0.70791  0.49348  1.0000
  C   C1776     1.0  0.44492  0.67602  0.56582  1.0000
  C   C1777     1.0  0.00444  0.92411  0.59680  1.0000
  H   H1426     1.0  0.04869  0.68823  0.58601  1.0000
  C   C1778     1.0  0.05651  0.67334  0.58812  1.0000
  C   C1779     1.0  0.99239  0.78680  0.48065  1.0000
  C   C1780     1.0  0.02154  0.92030  0.64499  1.0000
  C   C1781     1.0  0.18221  0.80782  0.61060  1.0000
  H   H1427     1.0  0.16264  0.88976  0.49790  1.0000
  H   H1428     1.0  0.26115  0.96275  0.66075  1.0000
  C   C1782     1.0  0.00207  0.69984  0.58414  1.0000
  C   C1783     1.0  0.38237  0.84710  0.59671  1.0000
  C   C1784     1.0  0.38860  0.86192  0.60523  1.0000
  C   C1785     1.0  0.40615  0.86963  0.59700  1.0000
  C   C1786     1.0  0.41756  0.86244  0.58035  1.0000
  C   C1787     1.0  0.41133  0.84766  0.57156  1.0000
  C   C1788     1.0  0.39355  0.84014  0.57982  1.0000
  P   P58       1.0  0.42688  0.83765  0.55076  1.0000
  C   C1789     1.0  0.45193  0.83184  0.55705  1.0000
  C   C1790     1.0  0.41848  0.81520  0.54636  1.0000
  C   C1791     1.0  0.42860  0.79646  0.55239  1.0000
  C   C1792     1.0  0.42230  0.77929  0.54820  1.0000
  C   C1793     1.0  0.40587  0.78071  0.53803  1.0000
  C   C1794     1.0  0.39560  0.79927  0.53223  1.0000
  C   C1795     1.0  0.40183  0.81644  0.53640  1.0000
  C   C1796     1.0  0.45517  0.82536  0.57680  1.0000
  C   C1797     1.0  0.47452  0.82083  0.58174  1.0000
  H   H1429     1.0  0.28917  0.96101  0.50521  1.0000
  H   H1430     1.0  0.08693  0.70264  0.48905  1.0000
  C   C1798     1.0  0.46835  0.83341  0.54230  1.0000
  H   H1431     1.0  0.18853  0.92093  0.52383  1.0000
  H   H1432     1.0  0.37974  0.86765  0.61805  1.0000
  H   H1433     1.0  0.41082  0.88132  0.60347  1.0000
  H   H1434     1.0  0.43128  0.86840  0.57439  1.0000
  H   H1435     1.0  0.38817  0.82896  0.57330  1.0000
  H   H1436     1.0  0.44142  0.79498  0.56015  1.0000
  H   H1437     1.0  0.43023  0.76487  0.55267  1.0000
  H   H1438     1.0  0.40115  0.76747  0.53447  1.0000
  H   H1439     1.0  0.38296  0.80032  0.52422  1.0000
  H   H1440     1.0  0.44274  0.82379  0.58841  1.0000
  H   H1441     1.0  0.47690  0.81598  0.59703  1.0000
  H   H1442     1.0  0.41465  0.70609  0.66026  1.0000
  C   C1799     1.0  0.03364  0.97380  0.66593  1.0000
  H   H1443     1.0  0.46631  0.83817  0.52695  1.0000
  C   C1800     1.0  0.00417  0.88944  0.59348  1.0000
  P   P59       1.0  0.00868  0.94289  0.61097  1.0000
  C   C1801     1.0  0.18771  0.95266  0.51847  1.0000
  H   H1444     1.0  0.31145  0.86952  0.50430  1.0000
  C   C1802     1.0  0.43086  0.84804  0.50968  1.0000
  C   C1803     1.0  0.46755  0.96923  0.63574  1.0000
  H   H1445     1.0  0.41245  0.74400  0.48219  1.0000
  H   H1446     1.0  0.38366  0.70636  0.64564  1.0000
  H   H1447     1.0  0.02990  0.73790  0.57623  1.0000
  H   H1448     1.0  0.08311  0.68294  0.59436  1.0000
  C   C1804     1.0  0.43278  0.67646  0.62449  1.0000
  C   C1805     1.0  0.41241  0.69551  0.56679  1.0000
  C   C1806     1.0  0.35552  0.97981  0.54209  1.0000
  H   H1449     1.0  0.35769  0.65831  0.56235  1.0000
  C   C1807     1.0  0.13279  0.82245  0.55731  1.0000
  H   H1450     1.0  0.99817  0.90715  0.69127  1.0000
  C   C1808     1.0  0.41482  0.69780  0.64802  1.0000
  C   C1809     1.0  0.18558  0.96947  0.50446  1.0000
  C   C1810     1.0  0.39963  0.74252  0.49331  1.0000
  C   C1811     1.0  0.12847  0.78320  0.59874  1.0000
  C   C1812     1.0  0.32322  0.89223  0.57279  1.0000
  H   H1451     1.0  0.44612  0.68720  0.64655  1.0000
  C   C1813     1.0  0.02315  0.72559  0.57320  1.0000
  C   C1814     1.0  0.16405  0.92984  0.70071  1.0000
  H   H1452     1.0  0.08155  0.73928  0.48093  1.0000
  C   C1815     1.0  0.44172  0.94792  0.64390  1.0000
  C   C1816     1.0  0.18665  0.93402  0.51311  1.0000
  H   H1453     1.0  0.39083  0.66693  0.56328  1.0000
  Fe  Fe128     1.0  0.36366  0.85268  0.50383  1.0000
  C   C1817     1.0  0.31897  0.91511  0.48746  1.0000
  C   C1818     1.0  0.24256  0.90143  0.48324  1.0000
  H   H1454     1.0  0.23902  0.91181  0.67925  1.0000
  C   C1819     1.0  0.14670  0.93530  0.57403  1.0000
  H   H1455     1.0  0.00887  0.71951  0.60309  1.0000
  H   H1456     1.0  0.00562  0.84089  0.47908  1.0000
  C   C1820     1.0  0.05064  0.74180  0.49307  1.0000
  H   H1457     1.0  0.27736  0.88189  0.49763  1.0000
  C   C1821     1.0  0.03937  0.66184  0.53455  1.0000
  C   C1822     1.0  0.15280  0.91426  0.70205  1.0000
  C   C1823     1.0  0.13403  0.82629  0.49169  1.0000
  C   C1824     1.0  0.01120  0.71531  0.58828  1.0000
  C   C1825     1.0  0.28898  0.86857  0.55181  1.0000
  C   C1826     1.0  0.30416  0.86656  0.53598  1.0000
  C   C1827     1.0  0.29982  0.87165  0.51656  1.0000
  C   C1828     1.0  0.28039  0.87880  0.51286  1.0000
  C   C1829     1.0  0.26508  0.88113  0.52866  1.0000
  C   C1830     1.0  0.26948  0.87564  0.54820  1.0000
  P   P60       1.0  0.23966  0.88820  0.52377  1.0000
  C   C1831     1.0  0.23910  0.90705  0.50239  1.0000
  C   C1832     1.0  0.23043  0.86691  0.51778  1.0000
  C   C1833     1.0  0.21370  0.86965  0.50771  1.0000
  C   C1834     1.0  0.20674  0.85339  0.50245  1.0000
  C   C1835     1.0  0.21627  0.83427  0.50727  1.0000
  C   C1836     1.0  0.23285  0.83137  0.51745  1.0000
  C   C1837     1.0  0.23996  0.84763  0.52269  1.0000
  C   C1838     1.0  0.23456  0.92725  0.50453  1.0000
  C   C1839     1.0  0.99913  0.92942  0.57758  1.0000
  H   H1458     1.0  0.14758  0.91101  0.68893  1.0000
  H   H1459     1.0  0.03057  0.90070  0.67044  1.0000
  P   P61       1.0  0.18543  0.95436  0.71568  1.0000
  C   C1840     1.0  0.22422  0.89721  0.54518  1.0000
  C   C1841     1.0  0.23082  0.91068  0.55536  1.0000
  C   C1842     1.0  0.21895  0.91765  0.57190  1.0000
  C   C1843     1.0  0.20037  0.91131  0.57837  1.0000
  C   C1844     1.0  0.19373  0.89782  0.56845  1.0000
  C   C1845     1.0  0.20558  0.89075  0.55195  1.0000
  H   H1460     1.0  0.29230  0.86434  0.56688  1.0000
  H   H1461     1.0  0.31927  0.86083  0.53869  1.0000
  C   C1846     1.0  0.03524  0.73175  0.50341  1.0000
  H   H1462     1.0  0.43436  0.93617  0.64054  1.0000
  H   H1463     1.0  0.25786  0.87641  0.56066  1.0000
  H   H1464     1.0  0.20622  0.88441  0.50362  1.0000
  H   H1465     1.0  0.24053  0.81659  0.52083  1.0000
  H   H1466     1.0  0.25308  0.84509  0.53018  1.0000
  H   H1467     1.0  0.23154  0.93215  0.51900  1.0000
  C   C1847     1.0  0.43495  0.95651  0.66123  1.0000
  H   H1468     1.0  0.35239  0.94499  0.50899  1.0000
  H   H1469     1.0  0.14346  0.79314  0.52758  1.0000
  C   C1848     1.0  0.37028  0.75744  0.51245  1.0000
  H   H1470     1.0  0.24504  0.91600  0.55034  1.0000
  H   H1471     1.0  0.22386  0.92842  0.57939  1.0000
  H   H1472     1.0  0.19098  0.91718  0.59085  1.0000
  H   H1473     1.0  0.17924  0.89311  0.57336  1.0000
  H   H1474     1.0  0.19995  0.88051  0.54443  1.0000
  C   C1849     1.0  0.32080  0.90605  0.55595  1.0000
  H   H1475     1.0  0.23118  0.96758  0.53866  1.0000
  C   C1850     1.0  0.31917  0.92639  0.55718  1.0000
  C   C1851     1.0  0.20048  0.78330  0.52893  1.0000
  H   H1476     1.0  0.37111  0.94830  0.72181  1.0000
  H   H1477     1.0  0.10566  0.74161  0.60650  1.0000
  H   H1478     1.0  0.31905  0.94827  0.57679  1.0000
  C   C1852     1.0  0.42698  0.85505  0.52824  1.0000
  C   C1853     1.0  0.06538  0.90066  0.59228  1.0000
  C   C1854     1.0  0.05785  0.90142  0.57440  1.0000
  C   C1855     1.0  0.07051  0.90314  0.55653  1.0000
  C   C1856     1.0  0.09071  0.90420  0.55652  1.0000
  C   C1857     1.0  0.09848  0.90334  0.57447  1.0000
  C   C1858     1.0  0.08563  0.90123  0.59238  1.0000
  P   P62       1.0  0.12472  0.90404  0.57487  1.0000
  C   C1859     1.0  0.13269  0.88430  0.59356  1.0000
  C   C1860     1.0  0.13834  0.90010  0.55084  1.0000
  C   C1861     1.0  0.14995  0.88192  0.54792  1.0000
  C   C1862     1.0  0.15900  0.87839  0.52895  1.0000
  C   C1863     1.0  0.15618  0.89281  0.51270  1.0000
  C   C1864     1.0  0.14503  0.91112  0.51553  1.0000
  C   C1865     1.0  0.13646  0.91491  0.53457  1.0000
  C   C1866     1.0  0.14515  0.88733  0.60694  1.0000
  C   C1867     1.0  0.15055  0.87212  0.62181  1.0000
  C   C1868     1.0  0.14371  0.85376  0.62330  1.0000
  C   C1869     1.0  0.13154  0.85057  0.60986  1.0000
  C   C1870     1.0  0.12592  0.86581  0.59515  1.0000
  C   C1871     1.0  0.12893  0.92738  0.58148  1.0000
  C   C1872     1.0  0.34954  0.92933  0.48517  1.0000
  C   C1873     1.0  0.01863  0.91088  0.66446  1.0000
  C   C1874     1.0  0.00249  0.96327  0.68250  1.0000
  C   C1875     1.0  0.04378  0.95665  0.61567  1.0000
  C   C1876     1.0  0.25932  0.96489  0.52002  1.0000
  H   H1479     1.0  0.05564  0.89919  0.60620  1.0000
  H   H1480     1.0  0.04229  0.90035  0.57441  1.0000
  H   H1481     1.0  0.06473  0.90329  0.54268  1.0000
  H   H1482     1.0  0.10012  0.90511  0.54246  1.0000
  H   H1483     1.0  0.09124  0.89964  0.60653  1.0000
  H   H1484     1.0  0.15166  0.87032  0.56016  1.0000
  C   C1877     1.0  0.00468  0.69486  0.56486  1.0000
  H   H1485     1.0  0.14557  0.81410  0.49418  1.0000
  C   C1878     1.0  0.17534  0.97459  0.69862  1.0000
  H   H1486     1.0  0.12779  0.92914  0.53651  1.0000
  H   H1487     1.0  0.15034  0.90152  0.60637  1.0000
  H   H1488     1.0  0.15959  0.87484  0.63252  1.0000
  H   H1489     1.0  0.14762  0.84213  0.63504  1.0000
  H   H1490     1.0  0.12607  0.83642  0.61109  1.0000
  H   H1491     1.0  0.11603  0.86329  0.58520  1.0000
  H   H1492     1.0  0.42262  0.95102  0.67121  1.0000
  C   C1879     1.0  0.01649  0.70530  0.54955  1.0000
  C   C1880     1.0  0.17067  0.93429  0.71772  1.0000
  C   C1881     1.0  0.19254  0.78027  0.51224  1.0000
  H   H1493     1.0  0.15139  0.83203  0.53021  1.0000
  C   C1882     1.0  0.31225  0.92247  0.50549  1.0000
  H   H1494     1.0  0.42334  0.94875  0.71869  1.0000
  H   H1495     1.0  0.44390  0.71363  0.52753  1.0000
  C   C1883     1.0  0.21566  0.93039  0.69489  1.0000
  C   C1884     1.0  0.32025  0.93267  0.57544  1.0000
  C   C1885     1.0  0.99632  0.91486  0.56647  1.0000
  H   H1496     1.0  0.14178  0.76467  0.55465  1.0000
  H   H1497     1.0  0.18639  0.79909  0.62416  1.0000
  H   H1498     1.0  0.10201  0.93072  0.60226  1.0000
  H   H1499     1.0  0.04716  0.65213  0.48873  1.0000
  P   P63       1.0  0.01879  0.69922  0.52457  1.0000
  H   H1500     1.0  0.28178  0.94541  0.56881  1.0000
  C   C1886     1.0  0.29718  0.97558  0.60168  1.0000
  C   C1887     1.0  0.11416  0.82392  0.49851  1.0000
  H   H1501     1.0  0.11042  0.80986  0.50627  1.0000
  H   H1502     1.0  0.21640  0.78045  0.52924  1.0000
  P   P64       1.0  0.31466  0.94439  0.53586  1.0000
  H   H1503     1.0  0.29790  0.91940  0.51332  1.0000
  H   H1504     1.0  0.20414  0.92297  0.69123  1.0000
  H   H1505     1.0  0.42113  0.88157  0.54283  1.0000
  H   H1506     1.0  0.39376  0.83072  0.53167  1.0000
  H   H1507     1.0  0.19435  0.79190  0.55809  1.0000
  H   H1508     1.0  0.99453  0.66968  0.51714  1.0000
  C   C1888     1.0  0.23548  0.92400  0.68802  1.0000
  C   C1889     1.0  0.13762  0.78216  0.57917  1.0000
  H   H1509     1.0  0.13891  0.89124  0.72144  1.0000
  H   H1510     1.0  0.07311  0.68533  0.54797  1.0000
  C   C1890     1.0  0.42447  0.87556  0.52890  1.0000
  C   C1891     1.0  0.11967  0.95362  0.60249  1.0000
  C   C1892     1.0  0.39116  0.65683  0.59467  1.0000
  S   S250      1.0  0.40389  0.66779  0.48903  1.0000
  H   H1511     1.0  0.32363  0.92384  0.60622  1.0000
  C   C1893     1.0  0.41928  0.70799  0.55002  1.0000
  C   C1894     1.0  0.43199  0.86131  0.49217  1.0000
  H   H1512     1.0  0.14315  0.92240  0.50290  1.0000
  C   C1895     1.0  0.33331  0.76996  0.47932  1.0000
  C   C1896     1.0  0.27576  0.95040  0.55500  1.0000
  P   P65       1.0  0.41571  0.66271  0.59583  1.0000
  C   C1897     1.0  0.10412  0.85780  0.48482  1.0000
  C   C1898     1.0  0.07593  0.67035  0.59284  1.0000
  H   H1513     1.0  0.40646  0.71066  0.49944  1.0000
  H   H1514     1.0  0.16767  0.86423  0.52664  1.0000
  H   H1515     1.0  0.03372  0.94502  0.57211  1.0000
  C   C1899     1.0  0.10016  0.84191  0.56201  1.0000
  H   H1516     1.0  0.32056  0.90078  0.54198  1.0000
  C   C1900     1.0  0.42595  0.88877  0.51135  1.0000
  C   C1901     1.0  0.42955  0.88167  0.49300  1.0000
  C   C1902     1.0  0.17096  0.80022  0.59886  1.0000
  C   C1903     1.0  0.03845  0.71118  0.50911  1.0000
  C   C1904     1.0  0.27982  0.95927  0.51934  1.0000
  C   C1905     1.0  0.40936  0.91116  0.71731  1.0000
  C   C1906     1.0  0.13539  0.76597  0.56978  1.0000
  H   H1517     1.0  0.99460  0.95275  0.69279  1.0000
  H   H1518     1.0  0.21095  0.82179  0.50277  1.0000
  H   H1519     1.0  0.15770  0.92825  0.56337  1.0000
  H   H1520     1.0  0.40924  0.72023  0.54378  1.0000
  C   C1907     1.0  0.15938  0.79050  0.52810  1.0000
  C   C1908     1.0  0.48020  0.94627  0.71749  1.0000
  P   P66       1.0  0.15079  0.80215  0.56591  1.0000
  S   S251      1.0  0.09315  0.65455  0.52541  1.0000
  C   C1909     1.0  0.06937  0.73137  0.48817  1.0000
  C   C1910     1.0  0.38666  0.75954  0.49785  1.0000
  H   H1521     1.0  0.08563  0.84436  0.57061  1.0000
  H   H1522     1.0  0.16851  0.83859  0.56150  1.0000
  C   C1911     1.0  0.32396  0.93375  0.51325  1.0000
  H   H1523     1.0  0.35274  0.94883  0.54758  1.0000
  S   S252      1.0  0.39072  0.83947  0.48496  1.0000
  H   H1524     1.0  0.42390  0.90457  0.51205  1.0000
  H   H1525     1.0  0.43027  0.89193  0.47944  1.0000
  H   H1526     1.0  0.20227  0.77515  0.49959  1.0000
  C   C1912     1.0  0.23476  0.97171  0.64644  1.0000
  C   C1913     1.0  0.98757  0.93650  0.64880  1.0000
  C   C1914     1.0  0.18207  0.96763  0.48525  1.0000
  H   H1527     1.0  0.07020  0.96838  0.61918  1.0000
  H   H1528     1.0  0.99218  0.91904  0.55168  1.0000
  H   H1529     1.0  0.32659  0.88790  0.60385  1.0000
  C   C1915     1.0  0.46998  0.96145  0.70548  1.0000
  C   C1916     1.0  0.32427  0.89860  0.59091  1.0000
  C   C1917     1.0  0.06217  0.96333  0.60889  1.0000
  C   C1918     1.0  0.15081  0.95219  0.58084  1.0000
  C   C1919     1.0  0.45796  0.95432  0.63110  1.0000
  C   C1920     1.0  0.43882  0.70431  0.54091  1.0000
  H   H1530     1.0  0.45522  0.66397  0.57186  1.0000
  C   C1921     1.0  0.27689  0.97331  0.60428  1.0000
  H   H1531     1.0  0.16752  0.93839  0.68636  1.0000
  C   C1922     1.0  0.07241  0.71077  0.49283  1.0000
  H   H1532     1.0  0.24589  0.95515  0.56970  1.0000
  C   C1923     1.0  0.42498  0.67901  0.57444  1.0000
  H   H1533     1.0  0.18799  0.85213  0.58250  1.0000
  H   H1534     1.0  0.09328  0.86491  0.53826  1.0000
  C   C1924     1.0  0.17201  0.78374  0.51189  1.0000
  H   H1535     1.0  0.26612  0.92812  0.68733  1.0000
  Fe  Fe129     1.0  0.34595  0.96211  0.61724  1.0000
  C   C1925     1.0  0.10450  0.85356  0.54392  1.0000
  H   H1536     1.0  0.10954  0.76986  0.62340  1.0000
  C   C1926     1.0  0.25074  0.93319  0.69255  1.0000
  S   S253      1.0  0.31217  0.96325  0.61993  1.0000
  C   C1927     1.0  0.39624  0.72357  0.50304  1.0000
  C   C1928     1.0  0.18788  0.78986  0.54526  1.0000
  C   C1929     1.0  0.03319  0.95002  0.60257  1.0000
  C   C1930     1.0  0.11549  0.93670  0.59579  1.0000
  H   H1537     1.0  0.12653  0.85932  0.51887  1.0000
  C   C1931     1.0  0.02593  0.72055  0.55395  1.0000
  C   C1932     1.0  0.18314  0.83769  0.58712  1.0000
  H   H1538     1.0  0.19687  0.83249  0.61394  1.0000
  H   H1539     1.0  0.03831  0.84572  0.48753  1.0000
  C   C1933     1.0  0.13728  0.96143  0.59492  1.0000
  H   H1540     1.0  0.02100  0.74016  0.50764  1.0000
  C   C1934     1.0  0.12318  0.85022  0.53287  1.0000
  C   C1935     1.0  0.11727  0.76845  0.60864  1.0000
  C   C1936     1.0  0.17186  0.83012  0.57540  1.0000
  H   H1541     1.0  0.05033  0.66954  0.53879  1.0000
  H   H1542     1.0  0.16693  0.78545  0.60335  1.0000
  H   H1543     1.0  0.22851  0.95692  0.48962  1.0000
  C   C1937     1.0  0.38206  0.93758  0.71490  1.0000
  C   C1938     1.0  0.99183  0.98002  0.67294  1.0000
  C   C1939     1.0  0.18345  0.93219  0.49382  1.0000
  H   H1544     1.0  0.01127  0.89919  0.61927  1.0000
  H   H1545     1.0  0.46686  0.68560  0.54183  1.0000
  H   H1546     1.0  0.99717  0.68312  0.56179  1.0000
  C   C1940     1.0  0.18819  0.82660  0.60480  1.0000
  C   C1941     1.0  0.21096  0.94600  0.70650  1.0000
  S   S254      1.0  0.19225  0.95424  0.54262  1.0000
  H   H1547     1.0  0.16582  0.78124  0.49902  1.0000
  H   H1548     1.0  0.23031  0.95701  0.64877  1.0000
  C   C1942     1.0  0.11439  0.82671  0.56887  1.0000
  C   C1943     1.0  0.13725  0.83466  0.53940  1.0000
  C   C1944     1.0  0.11495  0.75261  0.59908  1.0000
  C   C1945     1.0  0.41520  0.67617  0.61647  1.0000
  H   H1549     1.0  0.03579  0.91711  0.63611  1.0000
  H   H1550     1.0  0.03510  0.72901  0.54263  1.0000
  H   H1551     1.0  0.03234  0.65955  0.58203  1.0000
  H   H1552     1.0  0.16475  0.95795  0.57562  1.0000
  C   C1946     1.0  0.44927  0.96277  0.70611  1.0000
  C   C1947     1.0  0.16722  0.79360  0.54492  1.0000
  H   H1553     1.0  0.38393  0.68777  0.61763  1.0000
  C   C1948     1.0  0.16526  0.81157  0.58141  1.0000
  C   C1949     1.0  0.32669  0.96586  0.53642  1.0000
  C   C1950     1.0  0.07016  0.96345  0.58898  1.0000
  C   C1951     1.0  0.24618  0.94905  0.70367  1.0000
  H   H1554     1.0  0.18297  0.91779  0.48967  1.0000
  S   S255      1.0  0.36275  0.96980  0.64033  1.0000
  S   S256      1.0  0.46033  0.66374  0.48234  1.0000
  C   C1952     1.0  0.39735  0.69791  0.63982  1.0000
  C   C1953     1.0  0.00599  0.93313  0.63696  1.0000
  C   C1954     1.0  0.99100  0.96508  0.60781  1.0000
  Fe  Fe130     1.0  0.43245  0.65250  0.49923  1.0000
  C   C1955     1.0  0.18058  0.94904  0.48000  1.0000
  C   C1956     1.0  0.00699  0.90394  0.60463  1.0000
  C   C1957     1.0  0.98886  0.76994  0.51445  1.0000
  C   C1958     1.0  0.25528  0.95597  0.55559  1.0000
  C   C1959     1.0  0.36701  0.73847  0.52236  1.0000
  H   H1555     1.0  0.46309  0.94765  0.61766  1.0000
  H   H1556     1.0  0.35439  0.73699  0.53371  1.0000
  C   C1960     1.0  0.36405  0.65521  0.57617  1.0000
  C   C1961     1.0  0.22638  0.95554  0.71050  1.0000
  C   C1962     1.0  0.24704  0.96312  0.53813  1.0000
  C   C1963     1.0  0.38060  0.64744  0.61169  1.0000
  S   S257      1.0  0.39194  0.78296  0.48507  1.0000
  H   H1557     1.0  0.32802  0.76446  0.49449  1.0000
  H   H1558     1.0  0.36022  0.77040  0.51615  1.0000
  H   H1559     1.0  0.19418  0.85568  0.49423  1.0000
  C   C1964     1.0  0.00912  0.79424  0.48458  1.0000
  H   H1560     1.0  0.48022  0.97413  0.62590  1.0000
  C   C1965     1.0  0.14631  0.97562  0.64044  1.0000
  H   H1561     1.0  0.44666  0.66844  0.61850  1.0000
  H   H1562     1.0  0.00918  0.70140  0.48465  1.0000
  C   C1966     1.0  0.14806  0.90301  0.72033  1.0000
  H   H1563     1.0  0.01257  0.64957  0.48347  1.0000
  C   C1967     1.0  0.04735  0.65719  0.58580  1.0000
  C   C1968     1.0  0.43908  0.94856  0.71857  1.0000
  H   H1564     1.0  0.99270  0.69196  0.59582  1.0000
  C   C1969     1.0  0.08627  0.65121  0.59515  1.0000
  H   H1565     1.0  0.00624  0.87392  0.59962  1.0000
  C   C1970     1.0  0.25197  0.97497  0.65338  1.0000
  H   H1566     1.0  0.08438  0.96868  0.58376  1.0000
  H   H1567     1.0  0.06624  0.95637  0.56052  1.0000
  C   C1971     1.0  0.00028  0.91431  0.67613  1.0000
  C   C1972     1.0  0.05989  0.95662  0.57588  1.0000
  S   S258      1.0  0.42266  0.65565  0.53139  1.0000
  H   H1568     1.0  0.99724  0.94482  0.57113  1.0000
  H   H1569     1.0  0.14472  0.97018  0.70893  1.0000
  H   H1570     1.0  0.24625  0.88601  0.48111  1.0000
  C   C1973     1.0  0.16455  0.97852  0.62907  1.0000
  C   C1974     1.0  0.39542  0.92514  0.72643  1.0000
  H   H1571     1.0  0.22311  0.96790  0.71904  1.0000
  H   H1572     1.0  0.25803  0.95628  0.70704  1.0000
  C   C1975     1.0  0.44415  0.97185  0.66573  1.0000
  S   S259      1.0  0.36409  0.97830  0.59193  1.0000
  H   H1573     1.0  0.25951  0.84145  0.47984  1.0000
  C   C1976     1.0  0.99645  0.70901  0.51363  1.0000
  H   H1574     1.0  0.14068  0.97440  0.60024  1.0000
  H   H1575     1.0  0.30986  0.90650  0.48145  1.0000
  H   H1576     1.0  0.41973  0.90144  0.72591  1.0000
  H   H1577     1.0  0.37014  0.97770  0.54687  1.0000
  Fe  Fe131     1.0  0.33479  0.84139  0.47841  1.0000
  H   H1578     1.0  0.09255  0.87005  0.48229  1.0000
  H   H1579     1.0  0.25295  0.97089  0.50656  1.0000
  H   H1580     1.0  0.10905  0.94211  0.72214  1.0000
  C   C1977     1.0  0.46060  0.97806  0.65296  1.0000
  H   H1581     1.0  0.99670  0.88357  0.56582  1.0000
  H   H1582     1.0  0.31149  0.79600  0.47817  1.0000
  C   C1978     1.0  0.12408  0.86016  0.47803  1.0000
  P   P67       1.0  0.26736  0.93400  0.87536  1.0000
  H   H1583     1.0  0.48074  0.81243  0.93156  1.0000
  S   S260      1.0  0.10801  0.87041  0.95323  1.0000
  C   C1979     1.0  0.13422  0.68682  0.89340  1.0000
  C   C1980     1.0  0.30490  0.91626  0.88354  1.0000
  C   C1981     1.0  0.17665  0.69373  0.88621  1.0000
  S   S261      1.0  0.39463  0.92860  0.75173  1.0000
  Fe  Fe132     1.0  0.13809  0.96254  0.81146  1.0000
  S   S262      1.0  0.11618  0.95669  0.83864  1.0000
  S   S263      1.0  0.13272  0.96065  0.77964  1.0000
  H   H1584     1.0  0.45046  0.88507  0.86411  1.0000
  Fe  Fe133     1.0  0.14256  0.94438  0.85477  1.0000
  S   S264      1.0  0.15010  0.91425  0.87301  1.0000
  C   C1982     1.0  0.38067  0.96895  0.82016  1.0000
  S   S265      1.0  0.16430  0.94827  0.82689  1.0000
  H   H1585     1.0  0.03687  0.88831  0.77534  1.0000
  Fe  Fe134     1.0  0.04644  0.66301  0.95309  1.0000
  S   S266      1.0  0.05860  0.67461  0.92201  1.0000
  H   H1586     1.0  0.27274  0.86137  0.94260  1.0000
  H   H1587     1.0  0.24984  0.64960  0.93095  1.0000
  Fe  Fe135     1.0  0.08053  0.68671  0.93707  1.0000
  S   S267      1.0  0.08636  0.71896  0.92971  1.0000
  C   C1983     1.0  0.15657  0.67969  0.92613  1.0000
  S   S268      1.0  0.06686  0.67674  0.96777  1.0000
  Fe  Fe136     1.0  0.41629  0.92565  0.81806  1.0000
  S   S269      1.0  0.40065  0.90429  0.80661  1.0000
  S   S270      1.0  0.40241  0.94113  0.84428  1.0000
  Fe  Fe137     1.0  0.45443  0.91695  0.79086  1.0000
  S   S271      1.0  0.44200  0.89429  0.77728  1.0000
  Fe  Fe138     1.0  0.41440  0.91664  0.77619  1.0000
  Fe  Fe139     1.0  0.42922  0.88371  0.80878  1.0000
  S   S272      1.0  0.42892  0.85099  0.82140  1.0000
  S   S273      1.0  0.42778  0.93986  0.78790  1.0000
  S   S274      1.0  0.44406  0.90451  0.82208  1.0000
  Fe  Fe140     1.0  0.42311  0.74433  0.94482  1.0000
  H   H1588     1.0  0.39589  0.64950  0.94761  1.0000
  S   S275      1.0  0.41646  0.71632  0.93430  1.0000
  Fe  Fe141     1.0  0.43163  0.78760  0.93236  1.0000
  S   S276      1.0  0.43890  0.78978  0.96289  1.0000
  S   S277      1.0  0.43268  0.81775  0.91298  1.0000
  Fe  Fe142     1.0  0.45580  0.75945  0.96214  1.0000
  H   H1589     1.0  0.45820  0.84366  0.93488  1.0000
  C   C1984     1.0  0.45461  0.92950  0.89086  1.0000
  S   S278      1.0  0.45083  0.75802  0.93078  1.0000
  S   S279      1.0  0.40356  0.77383  0.94407  1.0000
  C   C1985     1.0  0.21433  0.93763  0.96886  1.0000
  C   C1986     1.0  0.37579  0.68765  0.97347  1.0000
  C   C1987     1.0  0.43148  0.82629  0.88739  1.0000
  C   C1988     1.0  0.43042  0.84678  0.88102  1.0000
  C   C1989     1.0  0.42918  0.85439  0.86099  1.0000
  C   C1990     1.0  0.42957  0.84169  0.84691  1.0000
  C   C1991     1.0  0.43072  0.82118  0.85321  1.0000
  C   C1992     1.0  0.43155  0.81350  0.87336  1.0000
  H   H1590     1.0  0.43097  0.81117  0.84244  1.0000
  H   H1591     1.0  0.43239  0.79771  0.87799  1.0000
  H   H1592     1.0  0.44743  0.65417  0.95208  1.0000
  C   C1993     1.0  0.02955  0.71678  0.96897  1.0000
  S   S280      1.0  0.09471  0.90341  0.73447  1.0000
  S   S281      1.0  0.48543  0.92495  0.77952  1.0000
  C   C1994     1.0  0.16567  0.92301  0.73608  1.0000
  H   H1593     1.0  0.42153  0.91033  0.86935  1.0000
  C   C1995     1.0  0.17727  0.68827  0.86723  1.0000
  H   H1594     1.0  0.25984  0.94013  0.83352  1.0000
  C   C1996     1.0  0.25574  0.97311  0.91627  1.0000
  H   H1595     1.0  0.12383  0.96357  0.74013  1.0000
  C   C1997     1.0  0.38294  0.96002  0.83947  1.0000
  C   C1998     1.0  0.18493  0.96214  0.73976  1.0000
  H   H1596     1.0  0.36100  0.77683  0.97280  1.0000
  C   C1999     1.0  0.28725  0.84927  0.96817  1.0000
  H   H1597     1.0  0.35653  0.74601  0.96055  1.0000
  H   H1598     1.0  0.03067  0.73415  0.91991  1.0000
  C   C2000     1.0  0.43530  0.91170  0.87464  1.0000
  C   C2001     1.0  0.40247  0.69786  0.94818  1.0000
  C   C2002     1.0  0.40534  0.67871  0.94250  1.0000
  H   H1599     1.0  0.06035  0.94103  0.74625  1.0000
  C   C2003     1.0  0.45378  0.66503  0.95816  1.0000
  C   C2004     1.0  0.12134  0.65971  0.88268  1.0000
  C   C2005     1.0  0.12154  0.94452  0.76795  1.0000
  C   C2006     1.0  0.11906  0.94989  0.74785  1.0000
  C   C2007     1.0  0.19387  0.69897  0.89169  1.0000
  C   C2008     1.0  0.10473  0.91971  0.74716  1.0000
  C   C2009     1.0  0.10704  0.91439  0.76735  1.0000
  C   C2010     1.0  0.11535  0.92671  0.77772  1.0000
  S   S282      1.0  0.42963  0.74384  0.97582  1.0000
  Fe  Fe143     1.0  0.08716  0.64846  0.96499  1.0000
  H   H1600     1.0  0.10259  0.90051  0.77492  1.0000
  H   H1601     1.0  0.11725  0.92230  0.79315  1.0000
  H   H1602     1.0  0.14170  0.73142  0.87684  1.0000
  H   H1603     1.0  0.26215  0.82932  0.93869  1.0000
  C   C2011     1.0  0.10490  0.76359  0.95228  1.0000
  C   C2012     1.0  0.09614  0.75279  0.94076  1.0000
  C   C2013     1.0  0.09608  0.73219  0.94557  1.0000
  C   C2014     1.0  0.10448  0.72256  0.96233  1.0000
  C   C2015     1.0  0.20870  0.68003  0.94690  1.0000
  H   H1604     1.0  0.10513  0.77935  0.94819  1.0000
  H   H1605     1.0  0.08967  0.76039  0.92785  1.0000
  C   C2016     1.0  0.32950  0.95786  0.95739  1.0000
  C   C2017     1.0  0.12066  0.88325  0.93182  1.0000
  C   C2018     1.0  0.11100  0.90097  0.92259  1.0000
  C   C2019     1.0  0.12005  0.91107  0.90496  1.0000
  C   C2020     1.0  0.13878  0.90335  0.89620  1.0000
  C   C2021     1.0  0.14863  0.88586  0.90565  1.0000
  C   C2022     1.0  0.13970  0.87592  0.92343  1.0000
  H   H1606     1.0  0.09632  0.90679  0.92901  1.0000
  H   H1607     1.0  0.11234  0.92455  0.89795  1.0000
  H   H1608     1.0  0.16314  0.87980  0.89903  1.0000
  H   H1609     1.0  0.14731  0.86234  0.93036  1.0000
  H   H1610     1.0  0.47761  0.92075  0.73969  1.0000
  H   H1611     1.0  0.46328  0.71278  0.94616  1.0000
  H   H1612     1.0  0.41997  0.97830  0.94158  1.0000
  C   C2023     1.0  0.03501  0.91837  0.85647  1.0000
  C   C2024     1.0  0.03393  0.92583  0.83645  1.0000
  C   C2025     1.0  0.01521  0.93045  0.82974  1.0000
  P   P68       1.0  0.05606  0.93054  0.81952  1.0000
  C   C2026     1.0  0.05938  0.95634  0.81722  1.0000
  C   C2027     1.0  0.07775  0.91575  0.82857  1.0000
  C   C2028     1.0  0.08720  0.89901  0.81987  1.0000
  C   C2029     1.0  0.10423  0.88805  0.82686  1.0000
  C   C2030     1.0  0.11182  0.89359  0.84266  1.0000
  C   C2031     1.0  0.10239  0.91008  0.85149  1.0000
  C   C2032     1.0  0.08554  0.92122  0.84439  1.0000
  C   C2033     1.0  0.04342  0.97072  0.82244  1.0000
  C   C2034     1.0  0.14313  0.66901  0.96014  1.0000
  H   H1613     1.0  0.23430  0.89476  0.93395  1.0000
  C   C2035     1.0  0.19696  0.95098  0.75340  1.0000
  C   C2036     1.0  0.07809  0.96224  0.80982  1.0000
  C   C2037     1.0  0.05300  0.92429  0.79568  1.0000
  C   C2038     1.0  0.04506  0.90689  0.79458  1.0000
  C   C2039     1.0  0.04257  0.90195  0.77620  1.0000
  S   S283      1.0  0.14705  0.82109  0.96372  1.0000
  C   C2040     1.0  0.05563  0.93180  0.75982  1.0000
  C   C2041     1.0  0.05828  0.93670  0.77815  1.0000
  C   C2042     1.0  0.01135  0.65309  0.91427  1.0000
  C   C2043     1.0  0.22407  0.67137  0.93391  1.0000
  C   C2044     1.0  0.28946  0.96340  0.85550  1.0000
  H   H1614     1.0  0.04912  0.91483  0.86220  1.0000
  H   H1615     1.0  0.01398  0.93652  0.81444  1.0000
  H   H1616     1.0  0.08175  0.89450  0.80753  1.0000
  H   H1617     1.0  0.11167  0.87535  0.81990  1.0000
  H   H1618     1.0  0.12512  0.88529  0.84803  1.0000
  H   H1619     1.0  0.10842  0.91444  0.86363  1.0000
  H   H1620     1.0  0.07868  0.93422  0.85120  1.0000
  H   H1621     1.0  0.02888  0.96668  0.82837  1.0000
  H   H1622     1.0  0.48460  0.91610  0.89378  1.0000
  H   H1623     1.0  0.19544  0.68319  0.83962  1.0000
  C   C2045     1.0  0.28998  0.97298  0.96851  1.0000
  H   H1624     1.0  0.09067  0.95144  0.80573  1.0000
  H   H1625     1.0  0.04107  0.89700  0.80791  1.0000
  H   H1626     1.0  0.22546  0.67674  0.91822  1.0000
  C   C2046     1.0  0.20671  0.91419  0.87230  1.0000
  H   H1627     1.0  0.06480  0.94996  0.77847  1.0000
  H   H1628     1.0  0.30880  0.91968  0.95742  1.0000
  C   C2047     1.0  0.27640  0.84824  0.95282  1.0000
  H   H1629     1.0  0.45121  0.68649  0.93212  1.0000
  C   C2048     1.0  0.32030  0.97384  0.94536  1.0000
  H   H1630     1.0  0.36914  0.96236  0.90913  1.0000
  C   C2049     1.0  0.47810  0.84818  0.83231  1.0000
  C   C2050     1.0  0.19090  0.87457  0.94378  1.0000
  P   P69       1.0  0.19572  0.91188  0.95215  1.0000
  C   C2051     1.0  0.26974  0.95034  0.83539  1.0000
  H   H1631     1.0  0.15590  0.71713  0.93684  1.0000
  C   C2052     1.0  0.34380  0.75486  0.96772  1.0000
  H   H1632     1.0  0.33454  0.87454  0.87110  1.0000
  C   C2053     1.0  0.29050  0.97558  0.82053  1.0000
  S   S284      1.0  0.48438  0.74802  0.97544  1.0000
  C   C2054     1.0  0.37791  0.94883  0.91469  1.0000
  H   H1633     1.0  0.44265  0.95556  0.84414  1.0000
  H   H1634     1.0  0.42254  0.93241  0.93109  1.0000
  C   C2055     1.0  0.39639  0.94947  0.92053  1.0000
  H   H1635     1.0  0.25617  0.96718  0.94782  1.0000
  H   H1636     1.0  0.47253  0.95707  0.86005  1.0000
  H   H1637     1.0  0.01866  0.90961  0.88488  1.0000
  H   H1638     1.0  0.26504  0.93098  0.94798  1.0000
  C   C2056     1.0  0.45169  0.89732  0.87169  1.0000
  P   P70       1.0  0.15385  0.69562  0.90311  1.0000
  C   C2057     1.0  0.02846  0.71702  0.94881  1.0000
  H   H1639     1.0  0.27225  0.96257  0.80452  1.0000
  C   C2058     1.0  0.15449  0.90738  0.73731  1.0000
  Fe  Fe144     1.0  0.41235  0.77420  0.97420  1.0000
  C   C2059     1.0  0.43685  0.92804  0.88382  1.0000
  H   H1640     1.0  0.45961  0.96685  0.75187  1.0000
  H   H1641     1.0  0.42425  0.93953  0.88527  1.0000
  H   H1642     1.0  0.22592  0.69184  0.84978  1.0000
  S   S285      1.0  0.10264  0.65914  0.93516  1.0000
  C   C2060     1.0  0.46979  0.93243  0.73023  1.0000
  H   H1643     1.0  0.29486  0.96337  0.86948  1.0000
  C   C2061     1.0  0.26401  0.94462  0.89825  1.0000
  C   C2062     1.0  0.21112  0.93268  0.86277  1.0000
  S   S286      1.0  0.01384  0.66740  0.96453  1.0000
  H   H1644     1.0  0.36049  0.83552  0.95530  1.0000
  C   C2063     1.0  0.20616  0.94232  0.92220  1.0000
  C   C2064     1.0  0.29689  0.97569  0.83882  1.0000
  C   C2065     1.0  0.21159  0.69820  0.87863  1.0000
  C   C2066     1.0  0.24389  0.92596  0.87359  1.0000
  C   C2067     1.0  0.19212  0.92940  0.93027  1.0000
  C   C2068     1.0  0.48417  0.85938  0.81440  1.0000
  H   H1645     1.0  0.40183  0.96354  0.91959  1.0000
  H   H1646     1.0  0.15024  0.89903  0.75157  1.0000
  C   C2069     1.0  0.40423  0.84856  0.97289  1.0000
  C   C2070     1.0  0.26606  0.93229  0.91625  1.0000
  H   H1647     1.0  0.36623  0.88577  0.96727  1.0000
  C   C2071     1.0  0.03319  0.73378  0.97608  1.0000
  C   C2072     1.0  0.45569  0.68344  0.94684  1.0000
  C   C2073     1.0  0.11607  0.69879  0.89102  1.0000
  H   H1648     1.0  0.46270  0.87330  0.91069  1.0000
  H   H1649     1.0  0.26989  0.91644  0.91646  1.0000
  H   H1650     1.0  0.00447  0.65063  0.86685  1.0000
  C   C2074     1.0  0.32484  0.74911  0.96970  1.0000
  C   C2075     1.0  0.14856  0.72146  0.90671  1.0000
  C   C2076     1.0  0.14334  0.73580  0.89092  1.0000
  C   C2077     1.0  0.14243  0.76190  0.91118  1.0000
  C   C2078     1.0  0.14830  0.74779  0.92671  1.0000
  C   C2079     1.0  0.15134  0.72766  0.92455  1.0000
  H   H1651     1.0  0.17536  0.87768  0.94966  1.0000
  C   C2080     1.0  0.20691  0.67304  0.96713  1.0000
  H   H1652     1.0  0.38519  0.71691  0.96811  1.0000
  C   C2081     1.0  0.37856  0.66854  0.96769  1.0000
  C   C2082     1.0  0.18519  0.97445  0.77685  1.0000
  H   H1653     1.0  0.44110  0.92280  0.74040  1.0000
  H   H1654     1.0  0.11336  0.71373  0.89477  1.0000
  H   H1655     1.0  0.08655  0.70044  0.88327  1.0000
  H   H1656     1.0  0.15024  0.65738  0.89178  1.0000
  H   H1657     1.0  0.00853  0.67497  0.88866  1.0000
  H   H1658     1.0  0.16993  0.92640  0.74957  1.0000
  H   H1659     1.0  0.20614  0.94841  0.78246  1.0000
  C   C2083     1.0  0.48321  0.82558  0.92115  1.0000
  C   C2084     1.0  0.28772  0.89765  0.86581  1.0000
  C   C2085     1.0  0.99791  0.92741  0.84277  1.0000
  C   C2086     1.0  0.27546  0.95097  0.85404  1.0000
  C   C2087     1.0  0.17332  0.91000  0.96944  1.0000
  H   H1660     1.0  0.20011  0.94257  0.85498  1.0000
  H   H1661     1.0  0.24965  0.89793  0.89207  1.0000
  C   C2088     1.0  0.22061  0.90175  0.88289  1.0000
  C   C2089     1.0  0.17233  0.94320  0.90383  1.0000
  C   C2090     1.0  0.41048  0.98008  0.95537  1.0000
  C   C2091     1.0  0.31884  0.94922  0.97477  1.0000
  C   C2092     1.0  0.11364  0.73326  0.97355  1.0000
  H   H1662     1.0  0.08186  0.97418  0.75462  1.0000
  C   C2093     1.0  0.44924  0.93361  0.73075  1.0000
  H   H1663     1.0  0.23205  0.95360  0.85720  1.0000
  C   C2094     1.0  0.17387  0.65170  0.94546  1.0000
  H   H1664     1.0  0.20614  0.93744  0.74983  1.0000
  H   H1665     1.0  0.45576  0.94209  0.89814  1.0000
  H   H1666     1.0  0.22480  0.70243  0.88287  1.0000
  S   S287      1.0  0.14584  0.97364  0.86392  1.0000
  H   H1667     1.0  0.13964  0.77746  0.91312  1.0000
  C   C2095     1.0  0.25819  0.96083  0.93406  1.0000
  C   C2096     1.0  0.03094  0.73420  0.93559  1.0000
  H   H1668     1.0  0.37153  0.95965  0.87036  1.0000
  H   H1669     1.0  0.27022  0.79955  0.96227  1.0000
  C   C2097     1.0  0.22940  0.93879  0.86387  1.0000
  H   H1670     1.0  0.30444  0.87065  0.85677  1.0000
  C   C2098     1.0  0.17560  0.92940  0.92046  1.0000
  C   C2099     1.0  0.11062  0.93771  0.73758  1.0000
  C   C2100     1.0  0.27497  0.81340  0.96408  1.0000
  H   H1671     1.0  0.18327  0.96735  0.88356  1.0000
  C   C2101     1.0  0.14002  0.75592  0.89326  1.0000
  C   C2102     1.0  0.46970  0.89889  0.87809  1.0000
  H   H1672     1.0  0.38123  0.92252  0.97176  1.0000
  C   C2103     1.0  0.23784  0.65589  0.94118  1.0000
  C   C2104     1.0  0.04786  0.91440  0.75883  1.0000
  C   C2105     1.0  0.13664  0.66712  0.88941  1.0000
  C   C2106     1.0  0.20279  0.95618  0.90559  1.0000
  C   C2107     1.0  0.21221  0.69233  0.85995  1.0000
  H   H1673     1.0  0.39044  0.96359  0.80771  1.0000
  H   H1674     1.0  0.19345  0.70397  0.90595  1.0000
  H   H1675     1.0  0.33501  0.90404  0.88762  1.0000
  H   H1676     1.0  0.19808  0.69210  0.94134  1.0000
  H   H1677     1.0  0.42733  0.87015  0.85635  1.0000
  C   C2108     1.0  0.25854  0.96505  0.89842  1.0000
  H   H1678     1.0  0.10425  0.70681  0.96641  1.0000
  C   C2109     1.0  0.22403  0.88405  0.93492  1.0000
  H   H1679     1.0  0.13132  0.67032  0.97243  1.0000
  H   H1680     1.0  0.34487  0.95214  0.95320  1.0000
  C   C2110     1.0  0.14170  0.68164  0.94235  1.0000
  H   H1681     1.0  0.19233  0.90971  0.87179  1.0000
  H   H1682     1.0  0.43021  0.85688  0.89166  1.0000
  C   C2111     1.0  0.40797  0.93194  0.92709  1.0000
  C   C2112     1.0  0.40097  0.91375  0.92792  1.0000
  C   C2113     1.0  0.38203  0.91306  0.92284  1.0000
  C   C2114     1.0  0.37070  0.93074  0.91583  1.0000
  P   P71       1.0  0.37304  0.88953  0.92405  1.0000
  C   C2115     1.0  0.34641  0.89182  0.93157  1.0000
  C   C2116     1.0  0.37813  0.88134  0.89977  1.0000
  C   C2117     1.0  0.38024  0.89522  0.88262  1.0000
  C   C2118     1.0  0.38270  0.88915  0.86383  1.0000
  C   C2119     1.0  0.38306  0.86920  0.86192  1.0000
  C   C2120     1.0  0.38111  0.85525  0.87885  1.0000
  C   C2121     1.0  0.37863  0.86126  0.89770  1.0000
  C   C2122     1.0  0.33683  0.90638  0.94332  1.0000
  C   C2123     1.0  0.31615  0.90851  0.94833  1.0000
  C   C2124     1.0  0.30492  0.89600  0.94191  1.0000
  C   C2125     1.0  0.31435  0.88122  0.93061  1.0000
  C   C2126     1.0  0.33499  0.87900  0.92563  1.0000
  C   C2127     1.0  0.38497  0.87289  0.94299  1.0000
  C   C2128     1.0  0.40139  0.85886  0.93805  1.0000
  C   C2129     1.0  0.41078  0.84661  0.95298  1.0000
  C   C2130     1.0  0.15640  0.92414  0.96792  1.0000
  C   C2131     1.0  0.10335  0.67174  0.88030  1.0000
  C   C2132     1.0  0.37880  0.87506  0.96303  1.0000
  H   H1683     1.0  0.41646  0.67528  0.93018  1.0000
  H   H1684     1.0  0.41039  0.90026  0.93244  1.0000
  H   H1685     1.0  0.35635  0.93061  0.91111  1.0000
  H   H1686     1.0  0.37993  0.91081  0.88350  1.0000
  H   H1687     1.0  0.38454  0.89995  0.85071  1.0000
  H   H1688     1.0  0.38556  0.86444  0.84730  1.0000
  H   H1689     1.0  0.38211  0.83967  0.87732  1.0000
  H   H1690     1.0  0.37704  0.85021  0.91062  1.0000
  H   H1691     1.0  0.34525  0.91601  0.94876  1.0000
  H   H1692     1.0  0.09130  0.66571  0.87569  1.0000
  H   H1693     1.0  0.28898  0.89749  0.94614  1.0000
  H   H1694     1.0  0.30578  0.87125  0.92587  1.0000
  H   H1695     1.0  0.34189  0.86720  0.91721  1.0000
  H   H1696     1.0  0.40696  0.85716  0.92276  1.0000
  H   H1697     1.0  0.42284  0.83522  0.94909  1.0000
  C   C2133     1.0  0.20422  0.88829  0.94341  1.0000
  C   C2134     1.0  0.45080  0.96824  0.84017  1.0000
  H   H1698     1.0  0.25644  0.97482  0.88482  1.0000
  H   H1699     1.0  0.13552  0.76689  0.88120  1.0000
  H   H1700     1.0  0.27506  0.89620  0.85869  1.0000
  C   C2135     1.0  0.23913  0.90762  0.88362  1.0000
  C   C2136     1.0  0.99914  0.91986  0.86262  1.0000
  H   H1701     1.0  0.15943  0.94321  0.89648  1.0000
  Fe  Fe145     1.0  0.16663  0.97805  0.83555  1.0000
  C   C2137     1.0  0.32141  0.88544  0.87254  1.0000
  C   C2138     1.0  0.00873  0.65944  0.89449  1.0000
  H   H1702     1.0  0.12877  0.69270  0.94102  1.0000
  C   C2139     1.0  0.18575  0.95677  0.89657  1.0000
  C   C2140     1.0  0.27043  0.83025  0.95065  1.0000
  C   C2141     1.0  0.37003  0.96680  0.85546  1.0000
  H   H1703     1.0  0.30558  0.92924  0.89046  1.0000
  H   H1704     1.0  0.21974  0.94176  0.92855  1.0000
  C   C2142     1.0  0.03474  0.75130  0.96280  1.0000
  H   H1705     1.0  0.32291  0.73581  0.96394  1.0000
  C   C2143     1.0  0.19505  0.68743  0.85424  1.0000
  H   H1706     1.0  0.38461  0.80618  0.96374  1.0000
  C   C2144     1.0  0.21743  0.85210  0.92865  1.0000
  C   C2145     1.0  0.26326  0.94041  0.93409  1.0000
  C   C2146     1.0  0.10071  0.69126  0.88451  1.0000
  H   H1707     1.0  0.15013  0.75250  0.94062  1.0000
  H   H1708     1.0  0.24585  0.86278  0.92092  1.0000
  H   H1709     1.0  0.22248  0.83798  0.92325  1.0000
  C   C2147     1.0  0.30443  0.88324  0.86451  1.0000
  C   C2148     1.0  0.28775  0.91413  0.87559  1.0000
  H   H1710     1.0  0.29232  0.86303  0.96968  1.0000
  H   H1711     1.0  0.21684  0.88764  0.89062  1.0000
  C   C2149     1.0  0.32167  0.90201  0.88192  1.0000
  H   H1712     1.0  0.04657  0.91029  0.74452  1.0000
  C   C2150     1.0  0.36120  0.82946  0.97066  1.0000
  H   H1713     1.0  0.03582  0.76472  0.93236  1.0000
  H   H1714     1.0  0.16514  0.91882  0.92567  1.0000
  H   H1715     1.0  0.20517  0.94967  0.96119  1.0000
  C   C2151     1.0  0.27701  0.96283  0.81878  1.0000
  C   C2152     1.0  0.39367  0.66404  0.95236  1.0000
  C   C2153     1.0  0.23061  0.86599  0.92756  1.0000
  H   H1716     1.0  0.02595  0.70377  0.94338  1.0000
  H   H1717     1.0  0.03670  0.76493  0.96780  1.0000
  C   C2154     1.0  0.03391  0.75138  0.94261  1.0000
  C   C2155     1.0  0.19758  0.85644  0.93669  1.0000
  C   C2156     1.0  0.46244  0.69833  0.95478  1.0000
  H   H1718     1.0  0.21344  0.96639  0.89953  1.0000
  C   C2157     1.0  0.19705  0.95713  0.77186  1.0000
  H   H1719     1.0  0.18732  0.84568  0.93769  1.0000
  C   C2158     1.0  0.38777  0.70215  0.96390  1.0000
  H   H1720     1.0  0.16408  0.68492  0.86224  1.0000
  H   H1721     1.0  0.15634  0.93666  0.95637  1.0000
  C   C2159     1.0  0.45951  0.66110  0.97724  1.0000
  C   C2160     1.0  0.11406  0.75379  0.96853  1.0000
  H   H1722     1.0  0.18371  0.66197  0.91511  1.0000
  C   C2161     1.0  0.46745  0.69478  0.97403  1.0000
  C   C2162     1.0  0.01768  0.91536  0.86945  1.0000
  C   C2163     1.0  0.46757  0.96908  0.84914  1.0000
  C   C2164     1.0  0.17251  0.66438  0.92766  1.0000
  C   C2165     1.0  0.47314  0.86003  0.90920  1.0000
  H   H1723     1.0  0.01303  0.66374  0.92380  1.0000
  H   H1724     1.0  0.41679  0.90818  0.96651  1.0000
  C   C2166     1.0  0.47097  0.91485  0.88819  1.0000
  C   C2167     1.0  0.21316  0.91784  0.96683  1.0000
  H   H1725     1.0  0.47102  0.83514  0.83226  1.0000
  C   C2168     1.0  0.23624  0.64891  0.96152  1.0000
  C   C2169     1.0  0.37486  0.81280  0.97544  1.0000
  H   H1726     1.0  0.47440  0.84577  0.86386  1.0000
  C   C2170     1.0  0.15933  0.65418  0.96175  1.0000
  C   C2171     1.0  0.38839  0.86296  0.97790  1.0000
  C   C2172     1.0  0.22063  0.65756  0.97444  1.0000
  C   C2173     1.0  0.46548  0.97920  0.75598  1.0000
  H   H1727     1.0  0.42162  0.95117  0.96926  1.0000
  C   C2174     1.0  0.17290  0.97943  0.74498  1.0000
  H   H1728     1.0  0.48175  0.85502  0.80054  1.0000
  H   H1729     1.0  0.18514  0.97909  0.79126  1.0000
  H   H1730     1.0  0.48217  0.79091  0.97279  1.0000
  H   H1731     1.0  0.48182  0.96327  0.79420  1.0000
  H   H1732     1.0  0.27472  0.97899  0.97289  1.0000
  C   C2175     1.0  0.47054  0.84326  0.92306  1.0000
  C   C2176     1.0  0.41154  0.96465  0.97109  1.0000
  C   C2177     1.0  0.34631  0.77227  0.97461  1.0000
  Fe  Fe146     1.0  0.12177  0.84398  0.97319  1.0000
  C   C2178     1.0  0.48022  0.85427  0.85026  1.0000
  H   H1733     1.0  0.23199  0.84175  0.97767  1.0000
  H   H1734     1.0  0.22251  0.88722  0.97782  1.0000
  H   H1735     1.0  0.19493  0.67972  0.97715  1.0000
  Fe  Fe147     1.0  0.86198  0.09195  0.99138  1.0000
  S   S288      1.0  0.83521  0.11174  0.00282  1.0000
  S   S289      1.0  0.87218  0.06173  0.00793  1.0000
  H   H1736     1.0  0.53063  0.07237  0.16750  1.0000
  H   H1737     1.0  0.93695  0.09196  0.98289  1.0000
  H   H1738     1.0  0.90383  0.11930  0.01318  1.0000
  Fe  Fe148     1.0  0.84574  0.00160  0.11529  1.0000
  C   C2179     1.0  0.72895  0.03832  0.98198  1.0000
  S   S290      1.0  0.84392  0.03326  0.09904  1.0000
  Fe  Fe149     1.0  0.85287  0.13710  0.99116  1.0000
  H   H1739     1.0  0.72583  0.02616  0.10494  1.0000
  S   S291      1.0  0.62047  0.27502  0.00022  1.0000
  Fe  Fe150     1.0  0.91184  0.24916  0.03231  1.0000
  S   S292      1.0  0.92685  0.26221  0.00305  1.0000
  S   S293      1.0  0.90636  0.21649  0.03583  1.0000
  Fe  Fe151     1.0  0.91571  0.28616  0.05223  1.0000
  S   S294      1.0  0.93090  0.30127  0.02408  1.0000
  H   H1740     1.0  0.90705  0.21825  0.98042  1.0000
  Fe  Fe152     1.0  0.90831  0.29080  0.00910  1.0000
  H   H1741     1.0  0.83165  0.06803  0.07285  1.0000
  Fe  Fe153     1.0  0.94822  0.27150  0.02016  1.0000
  H   H1742     1.0  0.65614  0.98340  0.13835  1.0000
  S   S295      1.0  0.89146  0.27749  0.03733  1.0000
  S   S296      1.0  0.93483  0.25670  0.04950  1.0000
  Fe  Fe154     1.0  0.56245  0.02807  0.15968  1.0000
  S   S297      1.0  0.55258  0.00076  0.15182  1.0000
  S   S298      1.0  0.57560  0.05163  0.13634  1.0000
  Fe  Fe155     1.0  0.55950  0.01215  0.20447  1.0000
  H   H1743     1.0  0.53588  0.06460  0.06279  1.0000
  C   C2180     1.0  0.49787  0.22006  0.04228  1.0000
  H   H1744     1.0  0.73617  0.16551  0.02435  1.0000
  Fe  Fe156     1.0  0.52990  0.00274  0.17888  1.0000
  C   C2181     1.0  0.54025  0.04245  0.08793  1.0000
  S   S299      1.0  0.58453  0.01095  0.17939  1.0000
  S   S300      1.0  0.53812  0.03139  0.18541  1.0000
  Fe  Fe157     1.0  0.55873  0.18654  0.03667  1.0000
  S   S301      1.0  0.57367  0.17767  0.00763  1.0000
  S   S302      1.0  0.55578  0.21889  0.04203  1.0000
  Fe  Fe158     1.0  0.55112  0.14339  0.05316  1.0000
  S   S303      1.0  0.56598  0.13185  0.02496  1.0000
  S   S304      1.0  0.53561  0.12278  0.07801  1.0000
  Fe  Fe159     1.0  0.58876  0.15181  0.02590  1.0000
  S   S305      1.0  0.62181  0.14307  0.02019  1.0000
  Fe  Fe160     1.0  0.54919  0.15882  0.00944  1.0000
  H   H1745     1.0  0.58437  0.01542  0.09699  1.0000
  S   S306      1.0  0.57527  0.16151  0.05528  1.0000
  S   S307      1.0  0.53280  0.16954  0.03735  1.0000
  H   H1746     1.0  0.59800  0.98986  0.13918  1.0000
  S   S308      1.0  0.67279  0.03226  0.99008  1.0000
  C   C2182     1.0  0.91500  0.98642  0.09080  1.0000
  H   H1747     1.0  0.65888  0.12432  0.00234  1.0000
  H   H1748     1.0  0.76275  0.99899  0.09219  1.0000
  H   H1749     1.0  0.48894  0.24374  0.08328  1.0000
  C   C2183     1.0  0.67958  0.26618  0.99220  1.0000
  C   C2184     1.0  0.55313  0.09316  0.18298  1.0000
  H   H1750     1.0  0.78079  0.04703  0.99236  1.0000
  C   C2185     1.0  0.77022  0.98183  0.99662  1.0000
  C   C2186     1.0  0.50905  0.28380  0.98349  1.0000
  C   C2187     1.0  0.54717  0.10248  0.09337  1.0000
  C   C2188     1.0  0.56775  0.09921  0.09375  1.0000
  C   C2189     1.0  0.57615  0.08366  0.10702  1.0000
  C   C2190     1.0  0.56419  0.07089  0.11976  1.0000
  C   C2191     1.0  0.54371  0.07389  0.11903  1.0000
  C   C2192     1.0  0.53522  0.08973  0.10611  1.0000
  H   H1751     1.0  0.57713  0.10895  0.08416  1.0000
  H   H1752     1.0  0.59201  0.08161  0.10749  1.0000
  H   H1753     1.0  0.53443  0.06391  0.12835  1.0000
  H   H1754     1.0  0.51930  0.09208  0.10597  1.0000
  C   C2193     1.0  0.50909  0.12738  0.19916  1.0000
  H   H1755     1.0  0.84232  0.07952  0.03742  1.0000
  C   C2194     1.0  0.50696  0.27266  0.01867  1.0000
  C   C2195     1.0  0.67835  0.00632  0.99451  1.0000
  C   C2196     1.0  0.57247  0.12843  0.15168  1.0000
  C   C2197     1.0  0.77635  0.14774  0.00591  1.0000
  C   C2198     1.0  0.80908  0.98498  0.03674  1.0000
  C   C2199     1.0  0.58041  0.03763  0.07152  1.0000
  C   C2200     1.0  0.60118  0.26066  0.01099  1.0000
  C   C2201     1.0  0.60162  0.24189  0.00515  1.0000
  C   C2202     1.0  0.58777  0.22910  0.01434  1.0000
  C   C2203     1.0  0.57346  0.23473  0.02989  1.0000
  C   C2204     1.0  0.57307  0.25350  0.03587  1.0000
  C   C2205     1.0  0.58666  0.26652  0.02630  1.0000
  H   H1756     1.0  0.55300  0.14594  0.10106  1.0000
  H   H1757     1.0  0.58854  0.21470  0.00968  1.0000
  H   H1758     1.0  0.56232  0.25796  0.04809  1.0000
  H   H1759     1.0  0.58634  0.28078  0.03120  1.0000
  H   H1760     1.0  0.51288  0.21779  0.06798  1.0000
  H   H1761     1.0  0.80099  0.04786  0.10990  1.0000
  C   C2206     1.0  0.88579  0.08432  0.05983  1.0000
  C   C2207     1.0  0.56640  0.05105  0.06168  1.0000
  C   C2208     1.0  0.88794  0.01229  0.20536  1.0000
  C   C2209     1.0  0.87713  0.00305  0.19420  1.0000
  C   C2210     1.0  0.62397  0.22455  0.04512  1.0000
  C   C2211     1.0  0.72360  0.19218  0.00757  1.0000
  H   H1762     1.0  0.89758  0.02290  0.19780  1.0000
  H   H1763     1.0  0.87841  0.00671  0.17826  1.0000
  C   C2212     1.0  0.86627  0.17982  0.01196  1.0000
  C   C2213     1.0  0.88641  0.17286  0.01293  1.0000
  C   C2214     1.0  0.89880  0.18469  0.01926  1.0000
  C   C2215     1.0  0.89145  0.20387  0.02404  1.0000
  C   C2216     1.0  0.87160  0.21120  0.02204  1.0000
  H   H1764     1.0  0.80387  0.04218  0.07515  1.0000
  H   H1765     1.0  0.89222  0.15806  0.00968  1.0000
  H   H1766     1.0  0.91403  0.17873  0.02100  1.0000
  H   H1767     1.0  0.86558  0.22572  0.02604  1.0000
  C   C2217     1.0  0.64284  0.02412  0.07559  1.0000
  C   C2218     1.0  0.86330  0.05359  0.03297  1.0000
  C   C2219     1.0  0.87151  0.03510  0.04203  1.0000
  C   C2220     1.0  0.86553  0.02854  0.06215  1.0000
  C   C2221     1.0  0.85112  0.04034  0.07339  1.0000
  C   C2222     1.0  0.84275  0.05873  0.06429  1.0000
  C   C2223     1.0  0.84874  0.06529  0.04418  1.0000
  H   H1768     1.0  0.88285  0.02597  0.03352  1.0000
  H   H1769     1.0  0.87240  0.01458  0.06911  1.0000
  H   H1770     1.0  0.59352  0.02686  0.02462  1.0000
  C   C2224     1.0  0.73551  0.00745  0.03343  1.0000
  C   C2225     1.0  0.50232  0.07496  0.15719  1.0000
  H   H1771     1.0  0.69246  0.30914  0.08234  1.0000
  C   C2226     1.0  0.57515  0.06018  0.20242  1.0000
  C   C2227     1.0  0.76488  0.00525  0.05004  1.0000
  C   C2228     1.0  0.75136  0.01605  0.03769  1.0000
  P   P72       1.0  0.78596  0.01587  0.05518  1.0000
  C   C2229     1.0  0.78323  0.02035  0.08077  1.0000
  C   C2230     1.0  0.80843  0.99909  0.04971  1.0000
  C   C2231     1.0  0.50251  0.21761  0.99295  1.0000
  H   H1772     1.0  0.84637  0.02066  0.99922  1.0000
  Fe  Fe161     1.0  0.57275  0.98415  0.17321  1.0000
  S   S309      1.0  0.49803  0.99617  0.18280  1.0000
  C   C2232     1.0  0.87890  0.10469  0.05848  1.0000
  C   C2233     1.0  0.79382  0.03428  0.08610  1.0000
  C   C2234     1.0  0.79214  0.03768  0.10584  1.0000
  C   C2235     1.0  0.77986  0.02726  0.12045  1.0000
  C   C2236     1.0  0.76909  0.01359  0.11528  1.0000
  C   C2237     1.0  0.77078  0.01009  0.09556  1.0000
  C   C2238     1.0  0.78850  0.03979  0.04068  1.0000
  C   C2239     1.0  0.77357  0.05583  0.04357  1.0000
  C   C2240     1.0  0.77582  0.07466  0.03331  1.0000
  C   C2241     1.0  0.79314  0.07769  0.02036  1.0000
  C   C2242     1.0  0.80826  0.06196  0.01772  1.0000
  C   C2243     1.0  0.80602  0.04310  0.02790  1.0000
  H   H1773     1.0  0.72516  0.01585  0.02383  1.0000
  H   H1774     1.0  0.60245  0.20710  0.06263  1.0000
  C   C2244     1.0  0.94005  0.00802  0.08942  1.0000
  C   C2245     1.0  0.89889  0.07665  0.04441  1.0000
  H   H1775     1.0  0.75302  0.03102  0.03112  1.0000
  H   H1776     1.0  0.82583  0.01136  0.06757  1.0000
  H   H1777     1.0  0.71949  0.01349  0.07489  1.0000
  H   H1778     1.0  0.65858  0.02779  0.11935  1.0000
  C   C2246     1.0  0.70629  0.20301  0.00109  1.0000
  C   C2247     1.0  0.82025  0.01697  0.98673  1.0000
  C   C2248     1.0  0.67320  0.00099  0.17553  1.0000
  H   H1779     1.0  0.79613  0.98368  0.03004  1.0000
  H   H1780     1.0  0.77917  0.02934  0.13585  1.0000
  H   H1781     1.0  0.72088  0.98124  0.03790  1.0000
  C   C2249     1.0  0.76642  0.04420  0.98959  1.0000
  H   H1782     1.0  0.76027  0.05377  0.05392  1.0000
  H   H1783     1.0  0.76422  0.08696  0.03543  1.0000
  H   H1784     1.0  0.79499  0.09228  0.01249  1.0000
  H   H1785     1.0  0.82189  0.06445  0.00798  1.0000
  H   H1786     1.0  0.81823  0.03138  0.02607  1.0000
  C   C2250     1.0  0.49946  0.14901  0.99196  1.0000
  H   H1787     1.0  0.65600  0.02200  0.19377  1.0000
  H   H1788     1.0  0.60220  0.15040  0.98489  1.0000
  H   H1789     1.0  0.50134  0.13181  0.15395  1.0000
  C   C2251     1.0  0.97849  0.98601  0.16572  1.0000
  H   H1790     1.0  0.71538  0.00897  0.13821  1.0000
  C   C2252     1.0  0.61616  0.03949  0.09769  1.0000
  C   C2253     1.0  0.56924  0.08237  0.17250  1.0000
  H   H1791     1.0  0.90131  0.98342  0.08643  1.0000
  H   H1792     1.0  0.50829  0.20840  0.03616  1.0000
  H   H1793     1.0  0.80782  0.11555  0.03844  1.0000
  H   H1794     1.0  0.72406  0.29102  0.09232  1.0000
  C   C2254     1.0  0.71271  0.00319  0.12519  1.0000
  H   H1795     1.0  0.91920  0.98344  0.21152  1.0000
  H   H1796     1.0  0.73765  0.19807  0.00365  1.0000
  H   H1797     1.0  0.50258  0.05906  0.15809  1.0000
  C   C2255     1.0  0.88653  0.00787  0.22619  1.0000
  C   C2256     1.0  0.67723  0.24646  0.99948  1.0000
  C   C2257     1.0  0.85214  0.17571  0.07160  1.0000
  H   H1798     1.0  0.87964  0.24525  0.98420  1.0000
  C   C2258     1.0  0.96033  0.21567  0.97990  1.0000
  H   H1799     1.0  0.67370  0.17042  0.02146  1.0000
  H   H1800     1.0  0.70736  0.21707  0.99192  1.0000
  H   H1801     1.0  0.55162  0.22305  0.98873  1.0000
  C   C2259     1.0  0.62984  0.13807  0.99583  1.0000
  C   C2260     1.0  0.54791  0.08702  0.20327  1.0000
  H   H1802     1.0  0.54875  0.15093  0.17751  1.0000
  C   C2261     1.0  0.53526  0.14788  0.18705  1.0000
  H   H1803     1.0  0.53447  0.26051  0.02963  1.0000
  C   C2262     1.0  0.60929  0.01237  0.04894  1.0000
  C   C2263     1.0  0.63655  0.19162  0.02504  1.0000
  H   H1804     1.0  0.84208  0.11919  0.04304  1.0000
  H   H1805     1.0  0.95709  0.28781  0.97817  1.0000
  H   H1806     1.0  0.64851  0.01885  0.06150  1.0000
  H   H1807     1.0  0.87976  0.13284  0.03944  1.0000
  H   H1808     1.0  0.63571  0.29248  0.11757  1.0000
  C   C2264     1.0  0.71501  0.00586  0.08945  1.0000
  C   C2265     1.0  0.62284  0.03216  0.07959  1.0000
  P   P73       1.0  0.53787  0.11301  0.16981  1.0000
  H   H1809     1.0  0.53199  0.12878  0.12816  1.0000
  C   C2266     1.0  0.68742  0.17686  0.01762  1.0000
  H   H1810     1.0  0.49837  0.27083  0.03317  1.0000
  H   H1811     1.0  0.50223  0.11421  0.19909  1.0000
  S   S310      1.0  0.54944  0.98403  0.19959  1.0000
  H   H1812     1.0  0.68131  0.24040  0.01398  1.0000
  C   C2267     1.0  0.85907  0.19915  0.01632  1.0000
  C   C2268     1.0  0.61693  0.14268  0.98141  1.0000
  H   H1813     1.0  0.57074  0.05966  0.04764  1.0000
  C   C2269     1.0  0.80327  0.10688  0.08871  1.0000
  C   C2270     1.0  0.87492  0.07935  0.13877  1.0000
  C   C2271     1.0  0.88527  0.11717  0.04131  1.0000
  H   H1814     1.0  0.93365  0.21425  0.00092  1.0000
  C   C2272     1.0  0.76496  0.15265  0.99017  1.0000
  H   H1815     1.0  0.79240  0.10351  0.10145  1.0000
  C   C2273     1.0  0.73076  0.05391  0.99214  1.0000
  C   C2274     1.0  0.74949  0.05688  0.99588  1.0000
  C   C2275     1.0  0.88040  0.09838  0.13351  1.0000
  H   H1816     1.0  0.78308  0.10731  0.06747  1.0000
  H   H1817     1.0  0.80264  0.15253  0.01744  1.0000
  C   C2276     1.0  0.84913  0.15576  0.07489  1.0000
  C   C2277     1.0  0.89879  0.10950  0.02618  1.0000
  C   C2278     1.0  0.70538  0.98906  0.09132  1.0000
  H   H1818     1.0  0.94581  0.02188  0.08381  1.0000
  C   C2279     1.0  0.68735  0.99517  0.97941  1.0000
  C   C2280     1.0  0.55894  0.07061  0.21293  1.0000
  H   H1819     1.0  0.50288  0.14663  0.00705  1.0000
  C   C2281     1.0  0.55394  0.02860  0.09745  1.0000
  H   H1820     1.0  0.91456  0.01518  0.07344  1.0000
  C   C2282     1.0  0.82577  0.00062  0.05762  1.0000
  P   P74       1.0  0.60628  0.03427  0.06111  1.0000
  C   C2283     1.0  0.64890  0.12801  0.99117  1.0000
  C   C2284     1.0  0.57393  0.02610  0.08927  1.0000
  C   C2285     1.0  0.79347  0.15660  0.00554  1.0000
  H   H1821     1.0  0.91515  0.08311  0.01550  1.0000
  H   H1822     1.0  0.71767  0.06393  0.99668  1.0000
  H   H1823     1.0  0.62344  0.04333  0.12607  1.0000
  H   H1824     1.0  0.90233  0.17023  0.07037  1.0000
  C   C2286     1.0  0.49769  0.28087  0.00206  1.0000
  H   H1825     1.0  0.62699  0.20459  0.98639  1.0000
  C   C2287     1.0  0.82259  0.10900  0.09145  1.0000
  C   C2288     1.0  0.55838  0.14121  0.11527  1.0000
  H   H1826     1.0  0.97382  0.99177  0.17974  1.0000
  C   C2289     1.0  0.86326  0.98473  0.22450  1.0000
  H   H1827     1.0  0.87368  0.19632  0.06712  1.0000
  S   S311      1.0  0.90610  0.30246  0.07970  1.0000
  H   H1828     1.0  0.88755  0.10473  0.14362  1.0000
  H   H1829     1.0  0.61852  0.23763  0.05233  1.0000
  H   H1830     1.0  0.83970  0.18722  0.06970  1.0000
  C   C2290     1.0  0.67349  0.99670  0.01370  1.0000
  C   C2291     1.0  0.62122  0.19093  0.04086  1.0000
  H   H1831     1.0  0.84353  0.20469  0.01576  1.0000
  C   C2292     1.0  0.86536  0.14078  0.07665  1.0000
  H   H1832     1.0  0.59242  0.05761  0.17386  1.0000
  H   H1833     1.0  0.57300  0.08620  0.15667  1.0000
  H   H1834     1.0  0.81619  0.00541  0.99840  1.0000
  P   P75       1.0  0.86215  0.11492  0.07845  1.0000
  S   S312      1.0  0.82253  0.99626  0.14172  1.0000
  C   C2293     1.0  0.63903  0.01491  0.17251  1.0000
  C   C2294     1.0  0.72280  0.17378  0.01917  1.0000
  C   C2295     1.0  0.58449  0.13792  0.13598  1.0000
  C   C2296     1.0  0.88747  0.16610  0.07198  1.0000
  C   C2297     1.0  0.52974  0.27837  0.98142  1.0000
  C   C2298     1.0  0.86734  0.10111  0.10210  1.0000
  H   H1835     1.0  0.64073  0.17883  0.01718  1.0000
  H   H1836     1.0  0.55494  0.26605  0.99706  1.0000
  C   C2299     1.0  0.52748  0.26706  0.01669  1.0000
  C   C2300     1.0  0.51819  0.08257  0.16266  1.0000
  H   H1837     1.0  0.64533  0.23914  0.02466  1.0000
  H   H1838     1.0  0.58674  0.15153  0.10551  1.0000
  H   H1839     1.0  0.66636  0.00523  0.02540  1.0000
  C   C2301     1.0  0.71856  0.01300  0.10638  1.0000
  H   H1840     1.0  0.94770  0.31015  0.07648  1.0000
  C   C2302     1.0  0.70349  0.98600  0.12715  1.0000
  C   C2303     1.0  0.68793  0.19565  0.00642  1.0000
  C   C2304     1.0  0.95009  0.99400  0.10268  1.0000
  C   C2305     1.0  0.86556  0.07120  0.12583  1.0000
  S   S313      1.0  0.84903  0.16450  0.00740  1.0000
  C   C2306     1.0  0.62243  0.08684  0.01483  1.0000
  H   H1841     1.0  0.57815  0.12361  0.16572  1.0000
  H   H1842     1.0  0.52487  0.04472  0.09458  1.0000
  H   H1843     1.0  0.61401  0.17769  0.04504  1.0000
  H   H1844     1.0  0.53518  0.09457  0.21163  1.0000
  C   C2307     1.0  0.66913  0.23486  0.98836  1.0000
  C   C2308     1.0  0.64868  0.02924  0.10820  1.0000
  H   H1845     1.0  0.89734  0.13485  0.07611  1.0000
  C   C2309     1.0  0.58028  0.06606  0.18221  1.0000
  C   C2310     1.0  0.62645  0.05171  0.02621  1.0000
  H   H1846     1.0  0.62576  0.09907  0.00369  1.0000
  C   C2311     1.0  0.48632  0.08780  0.15030  1.0000
  H   H1847     1.0  0.82625  0.10751  0.10640  1.0000
  C   C2312     1.0  0.51805  0.10310  0.16155  1.0000
  C   C2313     1.0  0.62896  0.03790  0.11201  1.0000
  C   C2314     1.0  0.73309  0.98793  0.04134  1.0000
  C   C2315     1.0  0.87661  0.10926  0.11527  1.0000
  H   H1848     1.0  0.52027  0.23117  0.00945  1.0000
  H   H1849     1.0  0.83422  0.15216  0.07552  1.0000
  H   H1850     1.0  0.50214  0.16842  0.22274  1.0000
  H   H1851     1.0  0.59574  0.07731  0.06014  1.0000
  C   C2316     1.0  0.95887  0.21510  0.01550  1.0000
  H   H1852     1.0  0.87784  0.07094  0.15290  1.0000
  C   C2317     1.0  0.60530  0.07439  0.04657  1.0000
  C   C2318     1.0  0.61486  0.20740  0.05087  1.0000
  C   C2319     1.0  0.65561  0.02243  0.08996  1.0000
  C   C2320     1.0  0.78720  0.98793  0.98454  1.0000
  C   C2321     1.0  0.83141  0.11560  0.05589  1.0000
  H   H1853     1.0  0.74472  0.30689  0.11043  1.0000
  H   H1854     1.0  0.61312  0.23706  0.99373  1.0000
  S   S314      1.0  0.53774  0.15896  0.98022  1.0000
  C   C2322     1.0  0.92247  0.00426  0.08354  1.0000
  C   C2323     1.0  0.70475  0.16604  0.02401  1.0000
  P   P76       1.0  0.66539  0.20956  0.99817  1.0000
  C   C2324     1.0  0.60492  0.99666  0.02081  1.0000
  C   C2325     1.0  0.90538  0.08921  0.02759  1.0000
  H   H1855     1.0  0.59932  0.14023  0.13789  1.0000
  H   H1856     1.0  0.60105  0.04646  0.10077  1.0000
  C   C2326     1.0  0.86171  0.08203  0.10765  1.0000
  C   C2327     1.0  0.97925  0.21616  0.01329  1.0000
  C   C2328     1.0  0.83728  0.02566  0.98735  1.0000
  C   C2329     1.0  0.63934  0.22531  0.02928  1.0000
  C   C2330     1.0  0.55329  0.12514  0.14925  1.0000
  H   H1857     1.0  0.88086  0.07413  0.07246  1.0000
  C   C2331     1.0  0.57743  0.14432  0.11778  1.0000
  C   C2332     1.0  0.61278  0.05490  0.04314  1.0000
  C   C2333     1.0  0.61919  0.99441  0.05715  1.0000
  H   H1858     1.0  0.86429  0.30545  0.01328  1.0000
  H   H1859     1.0  0.68635  0.00052  0.18258  1.0000
  C   C2334     1.0  0.63098  0.06762  0.01194  1.0000
  H   H1860     1.0  0.60402  0.10533  0.03483  1.0000
  C   C2335     1.0  0.64584  0.20880  0.01908  1.0000
  H   H1861     1.0  0.62285  0.99484  0.10948  1.0000
  C   C2336     1.0  0.94948  0.21479  0.99890  1.0000
  C   C2337     1.0  0.54647  0.05366  0.07004  1.0000
  H   H1862     1.0  0.64133  0.06510  0.99874  1.0000
  H   H1863     1.0  0.62435  0.99306  0.07143  1.0000
  C   C2338     1.0  0.50180  0.11592  0.15482  1.0000
  H   H1864     1.0  0.77234  0.13651  0.01801  1.0000
  H   H1865     1.0  0.63375  0.03699  0.02404  1.0000
  C   C2339     1.0  0.50038  0.22518  0.06054  1.0000
  C   C2340     1.0  0.53895  0.26994  0.99814  1.0000
  H   H1866     1.0  0.75236  0.14490  0.99036  1.0000
  H   H1867     1.0  0.58340  0.04724  0.20987  1.0000
  H   H1868     1.0  0.67081  0.01561  0.08701  1.0000
  H   H1869     1.0  0.95020  0.21507  0.03003  1.0000
  C   C2341     1.0  0.60996  0.09029  0.03231  1.0000
  H   H1870     1.0  0.75235  0.10517  0.97893  1.0000
  H   H1871     1.0  0.90358  0.06084  0.04525  1.0000
  H   H1872     1.0  0.68526  0.27530  0.00103  1.0000
  C   C2342     1.0  0.60166  0.01324  0.03095  1.0000
  H   H1873     1.0  0.86121  0.05644  0.12985  1.0000
  H   H1874     1.0  0.76014  0.00496  0.12672  1.0000
  H   H1875     1.0  0.50518  0.00934  0.22205  1.0000
  H   H1876     1.0  0.75099  0.06934  0.00320  1.0000
  H   H1877     1.0  0.85422  0.07546  0.09799  1.0000
  C   C2343     1.0  0.83696  0.11287  0.07502  1.0000
  C   C2344     1.0  0.54640  0.13150  0.13084  1.0000
  S   S315      1.0  0.89777  0.31095  0.98275  1.0000
  C   C2345     1.0  0.52009  0.22354  0.99693  1.0000
  H   H1878     1.0  0.53312  0.17461  0.20045  1.0000
  C   C2346     1.0  0.79801  0.10906  0.06959  1.0000
  C   C2347     1.0  0.81200  0.11363  0.05322  1.0000
  C   C2348     1.0  0.63619  0.30538  0.10645  1.0000
  C   C2349     1.0  0.76230  0.98560  0.05791  1.0000
  C   C2350     1.0  0.87128  0.18087  0.07012  1.0000
  H   H1879     1.0  0.88084  0.12400  0.11167  1.0000
  C   C2351     1.0  0.53801  0.21937  0.98481  1.0000
  H   H1880     1.0  0.70215  0.98374  0.07826  1.0000
  H   H1881     1.0  0.54912  0.02011  0.11142  1.0000
  H   H1882     1.0  0.81282  0.17680  0.98893  1.0000
  C   C2352     1.0  0.50895  0.15794  0.21263  1.0000
  H   H1883     1.0  0.97176  0.09653  0.98511  1.0000
  C   C2353     1.0  0.88455  0.14614  0.07526  1.0000
  S   S316      1.0  0.87075  0.98527  0.13162  1.0000
  C   C2354     1.0  0.52665  0.13074  0.18647  1.0000
  H   H1884     1.0  0.95378  0.98547  0.21607  1.0000
  H   H1885     1.0  0.70412  0.15166  0.03282  1.0000
  S   S317      1.0  0.88062  0.11704  0.98185  1.0000
  S   S318      1.0  0.98093  0.26746  0.00835  1.0000
  H   H1886     1.0  0.59929  0.99750  0.00678  1.0000
  C   C2355     1.0  0.79925  0.17032  0.98943  1.0000
  C   C2356     1.0  0.71916  0.30590  0.09599  1.0000
  H   H1887     1.0  0.62574  0.02452  0.17737  1.0000
  C   C2357     1.0  0.67325  0.98958  0.16021  1.0000
  H   H1888     1.0  0.63186  0.02438  0.99431  1.0000
  C   C2358     1.0  0.50030  0.14093  0.21217  1.0000
  C   C2359     1.0  0.84337  0.98823  0.05269  1.0000
  C   C2360     1.0  0.52641  0.16141  0.20008  1.0000
  H   H1889     1.0  0.60919  0.30164  0.09567  1.0000
  C   C2361     1.0  0.86464  0.98918  0.20368  1.0000
  H   H1890     1.0  0.62599  0.00537  0.14961  1.0000
  H   H1891     1.0  0.96351  0.99734  0.10719  1.0000
  C   C2362     1.0  0.63915  0.00406  0.15690  1.0000
  Fe  Fe162     1.0  0.62120  0.30857  0.99607  1.0000
  C   C2363     1.0  0.48695  0.23982  0.06909  1.0000
  C   C2364     1.0  0.65607  0.01344  0.18176  1.0000
  C   C2365     1.0  0.65623  0.99155  0.15065  1.0000
  H   H1892     1.0  0.48678  0.13820  0.22194  1.0000
  C   C2366     1.0  0.62710  0.02215  0.98062  1.0000
  H   H1893     1.0  0.85665  0.98937  0.05896  1.0000
  C   C2367     1.0  0.76468  0.02842  0.97945  1.0000
  C   C2368     1.0  0.62120  0.31056  0.09418  1.0000
  H   H1894     1.0  0.71448  0.03622  0.97877  1.0000
  H   H1895     1.0  0.93983  0.14628  0.98371  1.0000
  H   H1896     1.0  0.66301  0.31291  0.11427  1.0000
  H   H1897     1.0  0.95564  0.17669  0.98089  1.0000
  C   C2369     1.0  0.65886  0.19709  0.97920  1.0000
  H   H1898     1.0  0.75640  0.99164  0.99808  1.0000
  H   H1899     1.0  0.64293  0.99300  0.98108  1.0000
  H   H1900     1.0  0.72035  0.16402  0.97865  1.0000
  H   H1901     1.0  0.96801  0.31386  0.00148  1.0000
  H   H1902     1.0  0.57914  0.99646  0.30270  1.0000
  S   S319      1.0  0.61634  0.27682  0.43647  1.0000
  H   H1903     1.0  0.82899  0.00604  0.42099  1.0000
  Fe  Fe163     1.0  0.56017  0.27617  0.45504  1.0000
  S   S320      1.0  0.57256  0.27454  0.42296  1.0000
  H   H1904     1.0  0.77217  0.02422  0.43417  1.0000
  Fe  Fe164     1.0  0.59731  0.25301  0.43548  1.0000
  S   S321      1.0  0.61232  0.22402  0.42486  1.0000
  Fe  Fe165     1.0  0.59053  0.29846  0.42642  1.0000
  H   H1905     1.0  0.84884  0.21746  0.47161  1.0000
  C   C2370     1.0  0.68212  0.29485  0.46558  1.0000
  C   C2371     1.0  0.97570  0.04463  0.41318  1.0000
  P   P77       1.0  0.95657  0.99964  0.37877  1.0000
  H   H1906     1.0  0.51142  0.02327  0.27943  1.0000
  S   S322      1.0  0.63786  0.09876  0.46324  1.0000
  S   S323      1.0  0.63316  0.04765  0.44445  1.0000
  Fe  Fe166     1.0  0.60816  0.11208  0.47714  1.0000
  H   H1907     1.0  0.66346  0.06582  0.45387  1.0000
  C   C2372     1.0  0.51493  0.98467  0.24307  1.0000
  C   C2373     1.0  0.68430  0.99893  0.37352  1.0000
  C   C2374     1.0  0.88313  0.03377  0.45081  1.0000
  H   H1908     1.0  0.67723  0.01347  0.43560  1.0000
  C   C2375     1.0  0.90025  0.98975  0.37480  1.0000
  H   H1909     1.0  0.97978  0.05538  0.42134  1.0000
  H   H1910     1.0  0.65180  0.99209  0.45146  1.0000
  Fe  Fe167     1.0  0.93853  0.12290  0.46307  1.0000
  S   S324      1.0  0.94682  0.13313  0.43052  1.0000
  H   H1911     1.0  0.57513  0.02970  0.41920  1.0000
  Fe  Fe168     1.0  0.89418  0.13503  0.46010  1.0000
  S   S325      1.0  0.89896  0.14602  0.42769  1.0000
  S   S326      1.0  0.58335  0.25294  0.46697  1.0000
  Fe  Fe169     1.0  0.92108  0.11833  0.42464  1.0000
  S   S327      1.0  0.91993  0.09323  0.40565  1.0000
  Fe  Fe170     1.0  0.92375  0.15984  0.43614  1.0000
  S   S328      1.0  0.92688  0.19260  0.42689  1.0000
  S   S329      1.0  0.91436  0.10669  0.45712  1.0000
  C   C2376     1.0  0.95581  0.18534  0.46814  1.0000
  Fe  Fe171     1.0  0.90084  0.01877  0.27313  1.0000
  S   S330      1.0  0.90171  0.01894  0.23939  1.0000
  Fe  Fe172     1.0  0.90792  0.04017  0.30850  1.0000
  S   S331      1.0  0.89882  0.01504  0.33073  1.0000
  S   S332      1.0  0.91543  0.06785  0.31980  1.0000
  C   C2377     1.0  0.96317  0.05095  0.39861  1.0000
  H   H1912     1.0  0.75838  0.29499  0.47626  1.0000
  Fe  Fe173     1.0  0.87437  0.01504  0.31270  1.0000
  S   S333      1.0  0.84348  0.01321  0.32864  1.0000
  S   S334      1.0  0.92791  0.01994  0.28826  1.0000
  S   S335      1.0  0.88208  0.04142  0.29113  1.0000
  H   H1913     1.0  0.92975  0.98148  0.36063  1.0000
  C   C2378     1.0  0.95999  0.02787  0.32188  1.0000
  H   H1914     1.0  0.68305  0.09408  0.46437  1.0000
  C   C2379     1.0  0.60736  0.98594  0.25966  1.0000
  C   C2380     1.0  0.88851  0.00076  0.38873  1.0000
  H   H1915     1.0  0.87267  0.99050  0.25158  1.0000
  H   H1916     1.0  0.78013  0.01095  0.40187  1.0000
  S   S336      1.0  0.91753  0.15021  0.46871  1.0000
  C   C2381     1.0  0.90284  0.20552  0.45998  1.0000
  C   C2382     1.0  0.91557  0.21057  0.44268  1.0000
  C   C2383     1.0  0.91968  0.23030  0.43799  1.0000
  C   C2384     1.0  0.91154  0.24465  0.45068  1.0000
  H   H1917     1.0  0.85837  0.01697  0.45847  1.0000
  H   H1918     1.0  0.62957  0.24002  0.47308  1.0000
  H   H1919     1.0  0.92945  0.23441  0.42463  1.0000
  H   H1920     1.0  0.91508  0.25966  0.44705  1.0000
  C   C2385     1.0  0.66284  0.29810  0.40389  1.0000
  H   H1921     1.0  0.66577  0.06686  0.41770  1.0000
  C   C2386     1.0  0.69659  0.30773  0.45952  1.0000
  C   C2387     1.0  0.91794  0.08688  0.38162  1.0000
  C   C2388     1.0  0.91329  0.06790  0.38012  1.0000
  C   C2389     1.0  0.91189  0.06198  0.36157  1.0000
  C   C2390     1.0  0.91556  0.07483  0.34398  1.0000
  C   C2391     1.0  0.91997  0.09387  0.34549  1.0000
  C   C2392     1.0  0.92099  0.09992  0.36409  1.0000
  H   H1922     1.0  0.91092  0.05755  0.39341  1.0000
  H   H1923     1.0  0.90819  0.04740  0.36088  1.0000
  H   H1924     1.0  0.92278  0.10404  0.33210  1.0000
  H   H1925     1.0  0.92454  0.11456  0.36478  1.0000
  H   H1926     1.0  0.87257  0.00087  0.39089  1.0000
  C   C2393     1.0  0.62066  0.03462  0.43071  1.0000
  C   C2394     1.0  0.59999  0.03740  0.43108  1.0000
  C   C2395     1.0  0.59109  0.02725  0.41906  1.0000
  C   C2396     1.0  0.60270  0.01406  0.40679  1.0000
  C   C2397     1.0  0.62331  0.01100  0.40676  1.0000
  C   C2398     1.0  0.63216  0.02120  0.41868  1.0000
  H   H1927     1.0  0.59092  0.04761  0.44031  1.0000
  C   C2399     1.0  0.51825  0.99242  0.27550  1.0000
  C   C2400     1.0  0.67720  0.06007  0.44569  1.0000
  H   H1928     1.0  0.64806  0.01871  0.41853  1.0000
  C   C2401     1.0  0.98308  0.02456  0.41700  1.0000
  H   H1929     1.0  0.80636  0.99368  0.45355  1.0000
  C   C2402     1.0  0.74448  0.29643  0.39160  1.0000
  C   C2403     1.0  0.84985  0.98101  0.43052  1.0000
  C   C2404     1.0  0.57607  0.00569  0.25276  1.0000
  C   C2405     1.0  0.57065  0.00594  0.27329  1.0000
  C   C2406     1.0  0.89736  0.01168  0.39973  1.0000
  H   H1930     1.0  0.64498  0.21206  0.45470  1.0000
  C   C2407     1.0  0.85970  0.10367  0.46576  1.0000
  C   C2408     1.0  0.58347  0.99614  0.28696  1.0000
  C   C2409     1.0  0.60592  0.20122  0.43812  1.0000
  C   C2410     1.0  0.58879  0.20047  0.45192  1.0000
  C   C2411     1.0  0.63360  0.18980  0.47722  1.0000
  C   C2412     1.0  0.59637  0.16445  0.45891  1.0000
  C   C2413     1.0  0.61363  0.16515  0.44527  1.0000
  C   C2414     1.0  0.61824  0.18346  0.43473  1.0000
  H   H1931     1.0  0.57903  0.21395  0.45445  1.0000
  H   H1932     1.0  0.59884  0.99522  0.23030  1.0000
  H   H1933     1.0  0.62320  0.15159  0.44255  1.0000
  H   H1934     1.0  0.63147  0.18391  0.42401  1.0000
  C   C2415     1.0  0.68147  0.00012  0.44536  1.0000
  C   C2416     1.0  0.92082  0.98991  0.37161  1.0000
  C   C2417     1.0  0.50863  0.00463  0.23705  1.0000
  H   H1935     1.0  0.85055  0.98638  0.44432  1.0000
  H   H1936     1.0  0.71219  0.00408  0.44129  1.0000
  C   C2418     1.0  0.97971  0.02225  0.31421  1.0000
  H   H1937     1.0  0.84194  0.98617  0.28954  1.0000
  H   H1938     1.0  0.64048  0.17760  0.46923  1.0000
  C   C2419     1.0  0.89471  0.21981  0.47261  1.0000
  C   C2420     1.0  0.96448  0.01694  0.39231  1.0000
  S   S337      1.0  0.58908  0.14189  0.47179  1.0000
  H   H1939     1.0  0.96159  0.20690  0.44268  1.0000
  C   C2421     1.0  0.76344  0.98639  0.41146  1.0000
  H   H1940     1.0  0.89165  0.02508  0.46183  1.0000
  C   C2422     1.0  0.81484  0.30748  0.43614  1.0000
  C   C2423     1.0  0.86439  0.02922  0.44887  1.0000
  C   C2424     1.0  0.87402  0.99403  0.23565  1.0000
  C   C2425     1.0  0.89069  0.04985  0.43878  1.0000
  C   C2426     1.0  0.87929  0.06171  0.42520  1.0000
  C   C2427     1.0  0.86019  0.05771  0.42356  1.0000
  C   C2428     1.0  0.85304  0.04098  0.43511  1.0000
  P   P78       1.0  0.84516  0.07413  0.40688  1.0000
  C   C2429     1.0  0.84966  0.09929  0.40755  1.0000
  C   C2430     1.0  0.85205  0.06675  0.38250  1.0000
  C   C2431     1.0  0.85275  0.08088  0.36549  1.0000
  C   C2432     1.0  0.85758  0.07480  0.34669  1.0000
  C   C2433     1.0  0.86096  0.05466  0.34475  1.0000
  C   C2434     1.0  0.85974  0.04055  0.36156  1.0000
  C   C2435     1.0  0.85537  0.04654  0.38039  1.0000
  C   C2436     1.0  0.83712  0.11153  0.42013  1.0000
  C   C2437     1.0  0.84112  0.13068  0.42096  1.0000
  C   C2438     1.0  0.85760  0.13784  0.40923  1.0000
  C   C2439     1.0  0.87033  0.12571  0.39691  1.0000
  C   C2440     1.0  0.86642  0.10654  0.39612  1.0000
  C   C2441     1.0  0.81916  0.07176  0.41457  1.0000
  C   C2442     1.0  0.81139  0.07147  0.43461  1.0000
  C   C2443     1.0  0.79145  0.06936  0.44089  1.0000
  C   C2444     1.0  0.77895  0.06755  0.42717  1.0000
  C   C2445     1.0  0.78652  0.06784  0.40711  1.0000
  C   C2446     1.0  0.80655  0.06998  0.40079  1.0000
  C   C2447     1.0  0.82098  0.98390  0.34528  1.0000
  C   C2448     1.0  0.59444  0.99547  0.24603  1.0000
  H   H1941     1.0  0.90514  0.05363  0.44025  1.0000
  H   H1942     1.0  0.88517  0.07445  0.41659  1.0000
  H   H1943     1.0  0.83848  0.03734  0.43407  1.0000
  H   H1944     1.0  0.84948  0.09656  0.36659  1.0000
  H   H1945     1.0  0.85866  0.08565  0.33356  1.0000
  H   H1946     1.0  0.86428  0.04998  0.33017  1.0000
  H   H1947     1.0  0.86198  0.02495  0.35988  1.0000
  H   H1948     1.0  0.85421  0.03543  0.39324  1.0000
  H   H1949     1.0  0.82445  0.10637  0.42963  1.0000
  H   H1950     1.0  0.83167  0.13984  0.43106  1.0000
  H   H1951     1.0  0.86077  0.15262  0.41003  1.0000
  H   H1952     1.0  0.88354  0.13096  0.38830  1.0000
  H   H1953     1.0  0.87672  0.09728  0.38677  1.0000
  H   H1954     1.0  0.82083  0.07298  0.44539  1.0000
  C   C2449     1.0  0.67857  0.06064  0.42513  1.0000
  H   H1955     1.0  0.76344  0.06600  0.43210  1.0000
  H   H1956     1.0  0.77688  0.06650  0.39640  1.0000
  H   H1957     1.0  0.81209  0.07027  0.38517  1.0000
  C   C2450     1.0  0.83590  0.98547  0.39954  1.0000
  H   H1958     1.0  0.98389  0.99539  0.40935  1.0000
  H   H1959     1.0  0.87014  0.10797  0.45298  1.0000
  C   C2451     1.0  0.97763  0.01074  0.40650  1.0000
  H   H1960     1.0  0.68014  0.98916  0.34637  1.0000
  H   H1961     1.0  0.88821  0.02031  0.41043  1.0000
  C   C2452     1.0  0.58393  0.18216  0.46204  1.0000
  C   C2453     1.0  0.63631  0.20920  0.46911  1.0000
  C   C2454     1.0  0.72369  0.30483  0.42180  1.0000
  H   H1962     1.0  0.72593  0.03799  0.41600  1.0000
  C   C2455     1.0  0.95268  0.02039  0.34117  1.0000
  H   H1963     1.0  0.66308  0.02757  0.47257  1.0000
  C   C2456     1.0  0.69324  0.05161  0.45575  1.0000
  C   C2457     1.0  0.90551  0.98278  0.46938  1.0000
  C   C2458     1.0  0.60178  0.02588  0.33729  1.0000
  C   C2459     1.0  0.59907  0.03538  0.31830  1.0000
  C   C2460     1.0  0.60929  0.05141  0.31012  1.0000
  C   C2461     1.0  0.62233  0.05786  0.32087  1.0000
  C   C2462     1.0  0.62534  0.04816  0.33987  1.0000
  C   C2463     1.0  0.61497  0.03213  0.34795  1.0000
  P   P79       1.0  0.64286  0.05542  0.35372  1.0000
  C   C2464     1.0  0.63022  0.06737  0.37468  1.0000
  C   C2465     1.0  0.65915  0.03340  0.36162  1.0000
  C   C2466     1.0  0.66423  0.01820  0.34953  1.0000
  H   H1964     1.0  0.89340  0.98134  0.36616  1.0000
  H   H1965     1.0  0.73525  0.29139  0.44897  1.0000
  C   C2467     1.0  0.67965  0.01412  0.38548  1.0000
  C   C2468     1.0  0.66710  0.03131  0.37958  1.0000
  C   C2469     1.0  0.64041  0.07900  0.38382  1.0000
  C   C2470     1.0  0.63074  0.08864  0.39979  1.0000
  C   C2471     1.0  0.61081  0.08685  0.40670  1.0000
  C   C2472     1.0  0.60051  0.07552  0.39756  1.0000
  C   C2473     1.0  0.61017  0.06569  0.38173  1.0000
  C   C2474     1.0  0.65754  0.07277  0.33797  1.0000
  C   C2475     1.0  0.64982  0.09291  0.33489  1.0000
  C   C2476     1.0  0.66104  0.10651  0.32277  1.0000
  C   C2477     1.0  0.68001  0.10010  0.31357  1.0000
  C   C2478     1.0  0.68774  0.08007  0.31644  1.0000
  C   C2479     1.0  0.67656  0.06642  0.32856  1.0000
  H   H1966     1.0  0.59385  0.01348  0.34373  1.0000
  H   H1967     1.0  0.58915  0.03023  0.30990  1.0000
  H   H1968     1.0  0.60720  0.05870  0.29536  1.0000
  H   H1969     1.0  0.63016  0.07019  0.31415  1.0000
  H   H1970     1.0  0.61720  0.02434  0.36250  1.0000
  H   H1971     1.0  0.65834  0.01940  0.33559  1.0000
  H   H1972     1.0  0.75134  0.00720  0.46183  1.0000
  C   C2480     1.0  0.76627  0.01105  0.43214  1.0000
  H   H1973     1.0  0.57037  0.18169  0.47226  1.0000
  H   H1974     1.0  0.66327  0.04262  0.38932  1.0000
  H   H1975     1.0  0.65587  0.08055  0.37866  1.0000
  S   S338      1.0  0.57617  0.30136  0.45767  1.0000
  C   C2481     1.0  0.74782  0.98346  0.44571  1.0000
  H   H1976     1.0  0.58513  0.07389  0.40311  1.0000
  H   H1977     1.0  0.60187  0.05671  0.37528  1.0000
  H   H1978     1.0  0.63509  0.09809  0.34183  1.0000
  H   H1979     1.0  0.65502  0.12204  0.32052  1.0000
  H   H1980     1.0  0.68870  0.11066  0.30418  1.0000
  H   H1981     1.0  0.70242  0.07509  0.30924  1.0000
  H   H1982     1.0  0.68284  0.05098  0.33050  1.0000
  H   H1983     1.0  0.82610  0.99393  0.38944  1.0000
  H   H1984     1.0  0.95035  0.03825  0.31293  1.0000
  H   H1985     1.0  0.61979  0.30968  0.46245  1.0000
  H   H1986     1.0  0.89919  0.19059  0.46363  1.0000
  H   H1987     1.0  0.78586  0.06922  0.45645  1.0000
  H   H1988     1.0  0.96350  0.98771  0.30058  1.0000
  C   C2482     1.0  0.96518  0.00734  0.35307  1.0000
  C   C2483     1.0  0.83946  0.25015  0.43014  1.0000
  Fe  Fe174     1.0  0.91686  0.99496  0.31007  1.0000
  H   H1989     1.0  0.87153  0.27720  0.44383  1.0000
  H   H1990     1.0  0.69713  0.05316  0.39848  1.0000
  H   H1991     1.0  0.80882  0.99563  0.34751  1.0000
  H   H1992     1.0  0.53008  0.13511  0.46968  1.0000
  H   H1993     1.0  0.95408  0.17409  0.45930  1.0000
  H   H1994     1.0  0.93845  0.30179  0.30332  1.0000
  H   H1995     1.0  0.86518  0.26301  0.41466  1.0000
  H   H1996     1.0  0.69198  0.28813  0.41194  1.0000
  C   C2484     1.0  0.91798  0.01163  0.39677  1.0000
  C   C2485     1.0  0.84674  0.26609  0.46299  1.0000
  C   C2486     1.0  0.60203  0.98628  0.28017  1.0000
  H   H1997     1.0  0.94830  0.04240  0.37661  1.0000
  C   C2487     1.0  0.71088  0.04361  0.44484  1.0000
  H   H1998     1.0  0.91958  0.98869  0.46685  1.0000
  C   C2488     1.0  0.83986  0.98854  0.33685  1.0000
  H   H1999     1.0  0.92448  0.02005  0.40560  1.0000
  H   H2000     1.0  0.53589  0.03820  0.47242  1.0000
  C   C2489     1.0  0.83127  0.25447  0.46499  1.0000
  C   C2490     1.0  0.92984  0.00087  0.38249  1.0000
  C   C2491     1.0  0.96191  0.21863  0.46996  1.0000
  C   C2492     1.0  0.85131  0.08619  0.46702  1.0000
  H   H2001     1.0  0.81700  0.29166  0.43561  1.0000
  H   H2002     1.0  0.74709  0.29771  0.37555  1.0000
  C   C2493     1.0  0.75823  0.28457  0.40285  1.0000
  C   C2494     1.0  0.75481  0.28285  0.42354  1.0000
  C   C2495     1.0  0.73763  0.29295  0.43298  1.0000
  H   H2003     1.0  0.83690  0.24368  0.41748  1.0000
  Fe  Fe175     1.0  0.60045  0.27800  0.46727  1.0000
  H   H2004     1.0  0.63868  0.09737  0.40700  1.0000
  C   C2496     1.0  0.89913  0.23939  0.46815  1.0000
  C   C2497     1.0  0.85894  0.26908  0.44491  1.0000
  H   H2005     1.0  0.71718  0.08222  0.47268  1.0000
  H   H2006     1.0  0.96489  0.23312  0.46260  1.0000
  C   C2498     1.0  0.62594  0.31314  0.47490  1.0000
  C   C2499     1.0  0.82742  0.24686  0.44831  1.0000
  H   H2007     1.0  0.72354  0.03668  0.45213  1.0000
  S   S339      1.0  0.59095  0.00216  0.39136  1.0000
  H   H2008     1.0  0.69351  0.98531  0.37830  1.0000
  C   C2500     1.0  0.96009  0.20389  0.45872  1.0000
  C   C2501     1.0  0.85538  0.26106  0.42851  1.0000
  C   C2502     1.0  0.67967  0.29996  0.41234  1.0000
  H   H2009     1.0  0.67319  0.29135  0.45521  1.0000
  C   C2503     1.0  0.67672  0.00107  0.35550  1.0000
  C   C2504     1.0  0.50728  0.01852  0.25019  1.0000
  H   H2010     1.0  0.77149  0.27664  0.39552  1.0000
  H   H2011     1.0  0.76541  0.27358  0.43229  1.0000
  H   H2012     1.0  0.63317  0.31100  0.39879  1.0000
  H   H2013     1.0  0.68543  0.01232  0.39951  1.0000
  C   C2505     1.0  0.71232  0.04428  0.42425  1.0000
  C   C2506     1.0  0.69613  0.05278  0.41439  1.0000
  C   C2507     1.0  0.77070  0.00364  0.41394  1.0000
  H   H2014     1.0  0.95759  0.06655  0.39545  1.0000
  H   H2015     1.0  0.84994  0.27236  0.47546  1.0000
  C   C2508     1.0  0.51206  0.01243  0.26941  1.0000
  Fe  Fe176     1.0  0.62400  0.07041  0.46644  1.0000
  H   H2016     1.0  0.85537  0.07706  0.45535  1.0000
  H   H2017     1.0  0.63245  0.00090  0.39744  1.0000
  C   C2509     1.0  0.83762  0.99230  0.41726  1.0000
  C   C2510     1.0  0.72729  0.30656  0.40102  1.0000
  H   H2018     1.0  0.93740  0.02519  0.34680  1.0000
  S   S340      1.0  0.52833  0.27360  0.46815  1.0000
  S   S341      1.0  0.89138  0.99264  0.29388  1.0000
  H   H2019     1.0  0.66234  0.28516  0.39685  1.0000
  H   H2020     1.0  0.60342  0.09402  0.41931  1.0000
  H   H2021     1.0  0.55645  0.01377  0.27864  1.0000
  C   C2511     1.0  0.70122  0.99499  0.44897  1.0000
  H   H2022     1.0  0.59667  0.30638  0.37525  1.0000
  S   S342      1.0  0.63305  0.98141  0.34945  1.0000
  H   H2023     1.0  0.81567  0.23767  0.44959  1.0000
  C   C2512     1.0  0.95778  0.03720  0.38807  1.0000
  H   H2024     1.0  0.52224  0.98812  0.29031  1.0000
  H   H2025     1.0  0.50292  0.03406  0.24533  1.0000
  H   H2026     1.0  0.78304  0.31042  0.43688  1.0000
  C   C2513     1.0  0.75470  0.00114  0.44791  1.0000
  H   H2027     1.0  0.97622  0.14304  0.46994  1.0000
  C   C2514     1.0  0.66709  0.98815  0.45446  1.0000
  H   H2028     1.0  0.75257  0.08270  0.47468  1.0000
  S   S343      1.0  0.91342  0.30820  0.47154  1.0000
  S   S344      1.0  0.86475  0.31245  0.47269  1.0000
  H   H2029     1.0  0.84607  0.30938  0.43526  1.0000
  C   C2515     1.0  0.64634  0.31265  0.40503  1.0000
  H   H2030     1.0  0.79440  0.28488  0.47729  1.0000
  C   C2516     1.0  0.70758  0.31212  0.47361  1.0000
  S   S345      1.0  0.59374  0.08467  0.47779  1.0000
  H   H2031     1.0  0.98520  0.02790  0.29915  1.0000
  S   S346      1.0  0.55976  0.01867  0.23603  1.0000
  C   C2517     1.0  0.98522  0.00240  0.34553  1.0000
  H   H2032     1.0  0.55469  0.06557  0.22848  1.0000
  H   H2033     1.0  0.88497  0.21558  0.48593  1.0000
  S   S347      1.0  0.51098  0.06261  0.64794  1.0000
  C   C2518     1.0  0.48802  0.02147  0.56196  1.0000
  Fe  Fe177     1.0  0.51986  0.09056  0.62982  1.0000
  S   S348      1.0  0.55178  0.09298  0.61596  1.0000
  S   S349      1.0  0.50603  0.10981  0.65340  1.0000
  Fe  Fe178     1.0  0.60348  0.07633  0.50795  1.0000
  S   S350      1.0  0.61621  0.10415  0.50789  1.0000
  S   S351      1.0  0.57996  0.06440  0.53164  1.0000
  C   C2519     1.0  0.68951  0.29120  0.49937  1.0000
  S   S352      1.0  0.69335  0.09389  0.50998  1.0000
  C   C2520     1.0  0.81553  0.01265  0.63823  1.0000
  Fe  Fe179     1.0  0.78848  0.03246  0.54791  1.0000
  S   S353      1.0  0.79506  0.02353  0.51745  1.0000
  S   S354      1.0  0.75592  0.03775  0.56073  1.0000
  Fe  Fe180     1.0  0.83261  0.02682  0.55437  1.0000
  S   S355      1.0  0.84208  0.01739  0.52400  1.0000
  S   S356      1.0  0.86056  0.02691  0.56905  1.0000
  Fe  Fe181     1.0  0.81962  0.04224  0.51377  1.0000
  H   H2034     1.0  0.51283  0.26027  0.66868  1.0000
  Fe  Fe182     1.0  0.81688  0.99934  0.53001  1.0000
  S   S357      1.0  0.81165  0.05341  0.54328  1.0000
  S   S358      1.0  0.80874  0.00653  0.56127  1.0000
  Fe  Fe183     1.0  0.94087  0.05372  0.68768  1.0000
  S   S359      1.0  0.96829  0.03993  0.66976  1.0000
  Fe  Fe184     1.0  0.91308  0.04174  0.66040  1.0000
  S   S360      1.0  0.93864  0.02632  0.64203  1.0000
  S   S361      1.0  0.88161  0.04294  0.65246  1.0000
  Fe  Fe185     1.0  0.95125  0.01462  0.67025  1.0000
  C   C2521     1.0  0.90016  0.23942  0.60508  1.0000
  Fe  Fe186     1.0  0.95319  0.05294  0.64314  1.0000
  C   C2522     1.0  0.61555  0.22137  0.49751  1.0000
  S   S362      1.0  0.92425  0.02741  0.68914  1.0000
  S   S363      1.0  0.92715  0.06936  0.66051  1.0000
  H   H2035     1.0  0.86003  0.21412  0.61472  1.0000
  H   H2036     1.0  0.50260  0.18893  0.59450  1.0000
  H   H2037     1.0  0.96031  0.25905  0.65948  1.0000
  C   C2523     1.0  0.86587  0.03110  0.59253  1.0000
  C   C2524     1.0  0.85095  0.03583  0.60793  1.0000
  C   C2525     1.0  0.85599  0.03950  0.62610  1.0000
  C   C2526     1.0  0.87598  0.03840  0.62916  1.0000
  C   C2527     1.0  0.89088  0.03376  0.61369  1.0000
  C   C2528     1.0  0.88585  0.03021  0.59551  1.0000
  H   H2038     1.0  0.83556  0.03679  0.60574  1.0000
  H   H2039     1.0  0.84435  0.04327  0.63787  1.0000
  H   H2040     1.0  0.90631  0.03292  0.61570  1.0000
  H   H2041     1.0  0.89753  0.02683  0.58364  1.0000
  C   C2529     1.0  0.96637  0.24357  0.66240  1.0000
  H   H2042     1.0  0.49076  0.23191  0.51877  1.0000
  C   C2530     1.0  0.96099  0.22954  0.65221  1.0000
  P   P80       1.0  0.81771  0.24727  0.48895  1.0000
  H   H2043     1.0  0.81411  0.99722  0.48679  1.0000
  C   C2531     1.0  0.78843  0.01547  0.61103  1.0000
  H   H2044     1.0  0.90300  0.05799  0.48343  1.0000
  H   H2045     1.0  0.88512  0.15836  0.50345  1.0000
  C   C2532     1.0  0.71020  0.07802  0.52471  1.0000
  C   C2533     1.0  0.73011  0.08165  0.52224  1.0000
  C   C2534     1.0  0.74436  0.06906  0.53265  1.0000
  C   C2535     1.0  0.73867  0.05315  0.54640  1.0000
  C   C2536     1.0  0.71862  0.04998  0.54957  1.0000
  C   C2537     1.0  0.70449  0.06223  0.53873  1.0000
  C   C2538     1.0  0.82463  0.25963  0.50785  1.0000
  H   H2046     1.0  0.75968  0.07190  0.53028  1.0000
  H   H2047     1.0  0.71398  0.03802  0.56054  1.0000
  H   H2048     1.0  0.68917  0.05971  0.54180  1.0000
  C   C2539     1.0  0.55914  0.08741  0.59147  1.0000
  C   C2540     1.0  0.54550  0.08239  0.58054  1.0000
  C   C2541     1.0  0.55197  0.07617  0.56186  1.0000
  C   C2542     1.0  0.57205  0.07524  0.55372  1.0000
  C   C2543     1.0  0.58555  0.08136  0.56414  1.0000
  C   C2544     1.0  0.57910  0.08736  0.58302  1.0000
  H   H2049     1.0  0.53006  0.08258  0.58676  1.0000
  H   H2050     1.0  0.54136  0.07164  0.55399  1.0000
  H   H2051     1.0  0.60108  0.08066  0.55805  1.0000
  H   H2052     1.0  0.58973  0.09135  0.59136  1.0000
  C   C2545     1.0  0.68503  0.02198  0.51467  1.0000
  C   C2546     1.0  0.98310  0.04195  0.56581  1.0000
  C   C2547     1.0  0.52959  0.06955  0.71445  1.0000
  C   C2548     1.0  0.51865  0.28462  0.48974  1.0000
  H   H2053     1.0  0.94434  0.24772  0.59025  1.0000
  C   C2549     1.0  0.56767  0.22646  0.51746  1.0000
  C   C2550     1.0  0.98529  0.08661  0.63357  1.0000
  H   H2054     1.0  0.53376  0.07694  0.69973  1.0000
  H   H2055     1.0  0.94863  0.10356  0.70840  1.0000
  C   C2551     1.0  0.50153  0.27840  0.50134  1.0000
  H   H2056     1.0  0.86282  0.98271  0.50185  1.0000
  C   C2552     1.0  0.50149  0.30266  0.52358  1.0000
  H   H2057     1.0  0.71347  0.98550  0.53516  1.0000
  H   H2058     1.0  0.53513  0.04253  0.61431  1.0000
  H   H2059     1.0  0.97186  0.14727  0.69038  1.0000
  H   H2060     1.0  0.60810  0.27624  0.57819  1.0000
  C   C2553     1.0  0.79169  0.25382  0.48606  1.0000
  C   C2554     1.0  0.96320  0.99939  0.60416  1.0000
  H   H2061     1.0  0.97488  0.15034  0.61758  1.0000
  H   H2062     1.0  0.55383  0.05264  0.49441  1.0000
  C   C2555     1.0  0.94127  0.13433  0.54386  1.0000
  C   C2556     1.0  0.51451  0.18452  0.52186  1.0000
  S   S364      1.0  0.94517  0.06088  0.71829  1.0000
  C   C2557     1.0  0.59939  0.28445  0.63575  1.0000
  C   C2558     1.0  0.95399  0.16617  0.53764  1.0000
  C   C2559     1.0  0.94069  0.15376  0.53424  1.0000
  P   P81       1.0  0.95129  0.19202  0.52707  1.0000
  C   C2560     1.0  0.92613  0.20174  0.53576  1.0000
  C   C2561     1.0  0.87581  0.29927  0.59124  1.0000
  C   C2562     1.0  0.96290  0.21963  0.54795  1.0000
  C   C2563     1.0  0.80246  0.99861  0.61344  1.0000
  C   C2564     1.0  0.87597  0.25294  0.58268  1.0000
  C   C2565     1.0  0.67496  0.00686  0.52564  1.0000
  H   H2063     1.0  0.80833  0.12320  0.54908  1.0000
  C   C2566     1.0  0.91319  0.21174  0.52247  1.0000
  C   C2567     1.0  0.89353  0.21857  0.52945  1.0000
  C   C2568     1.0  0.88658  0.21531  0.54963  1.0000
  C   C2569     1.0  0.89935  0.20527  0.56294  1.0000
  C   C2570     1.0  0.91904  0.19845  0.55604  1.0000
  C   C2571     1.0  0.95539  0.19605  0.50028  1.0000
  H   H2064     1.0  0.73520  0.26961  0.48305  1.0000
  H   H2065     1.0  0.94416  0.98078  0.59582  1.0000
  C   C2572     1.0  0.52855  0.99297  0.67222  1.0000
  H   H2066     1.0  0.60160  0.04931  0.70142  1.0000
  H   H2067     1.0  0.66700  0.27722  0.49010  1.0000
  H   H2068     1.0  0.93126  0.12477  0.54073  1.0000
  H   H2069     1.0  0.82596  0.01206  0.64867  1.0000
  H   H2070     1.0  0.77571  0.98145  0.51373  1.0000
  C   C2573     1.0  0.51483  0.25547  0.65415  1.0000
  H   H2071     1.0  0.92976  0.15912  0.52422  1.0000
  H   H2072     1.0  0.94733  0.22418  0.55252  1.0000
  H   H2073     1.0  0.95022  0.16688  0.49560  1.0000
  H   H2074     1.0  0.56815  0.02582  0.60168  1.0000
  H   H2075     1.0  0.54927  0.10385  0.48311  1.0000
  C   C2574     1.0  0.58775  0.29448  0.62146  1.0000
  H   H2076     1.0  0.91811  0.21434  0.50669  1.0000
  H   H2077     1.0  0.88372  0.22633  0.51908  1.0000
  H   H2078     1.0  0.87128  0.22050  0.55488  1.0000
  H   H2079     1.0  0.89399  0.20259  0.57858  1.0000
  H   H2080     1.0  0.92876  0.19050  0.56646  1.0000
  H   H2081     1.0  0.53849  0.22680  0.57026  1.0000
  H   H2082     1.0  0.92315  0.06907  0.61662  1.0000
  C   C2575     1.0  0.54165  0.11421  0.49302  1.0000
  H   H2083     1.0  0.54248  0.17554  0.50418  1.0000
  H   H2084     1.0  0.51020  0.99846  0.57326  1.0000
  C   C2576     1.0  0.57104  0.27069  0.54855  1.0000
  C   C2577     1.0  0.55445  0.28459  0.54526  1.0000
  C   C2578     1.0  0.53940  0.28811  0.56087  1.0000
  C   C2579     1.0  0.54076  0.27763  0.57976  1.0000
  C   C2580     1.0  0.55711  0.26321  0.58312  1.0000
  C   C2581     1.0  0.57241  0.26012  0.56744  1.0000
  P   P82       1.0  0.55974  0.25069  0.60784  1.0000
  C   C2582     1.0  0.57548  0.26384  0.61857  1.0000
  C   C2583     1.0  0.53581  0.25071  0.62303  1.0000
  C   C2584     1.0  0.53338  0.25540  0.64251  1.0000
  H   H2085     1.0  0.68640  0.28527  0.51484  1.0000
  H   H2086     1.0  0.54057  0.05343  0.52941  1.0000
  H   H2087     1.0  0.65291  0.98755  0.52594  1.0000
  C   C2585     1.0  0.51950  0.24563  0.61563  1.0000
  C   C2586     1.0  0.58705  0.25388  0.63313  1.0000
  C   C2587     1.0  0.59902  0.26416  0.64162  1.0000
  H   H2088     1.0  0.79640  0.09455  0.57166  1.0000
  C   C2588     1.0  0.89178  0.98700  0.48589  1.0000
  C   C2589     1.0  0.57572  0.28429  0.61299  1.0000
  C   C2590     1.0  0.57100  0.22524  0.60672  1.0000
  C   C2591     1.0  0.59162  0.22091  0.60144  1.0000
  C   C2592     1.0  0.60053  0.20126  0.60131  1.0000
  C   C2593     1.0  0.58899  0.18575  0.60652  1.0000
  C   C2594     1.0  0.56852  0.18988  0.61191  1.0000
  C   C2595     1.0  0.55952  0.20949  0.61188  1.0000
  H   H2089     1.0  0.58275  0.26814  0.53637  1.0000
  H   H2090     1.0  0.55324  0.29263  0.53059  1.0000
  H   H2091     1.0  0.80247  0.98676  0.60472  1.0000
  H   H2092     1.0  0.52906  0.28099  0.59167  1.0000
  H   H2093     1.0  0.58542  0.24962  0.56973  1.0000
  H   H2094     1.0  0.54546  0.25980  0.64856  1.0000
  H   H2095     1.0  0.58786  0.07573  0.67650  1.0000
  H   H2096     1.0  0.95411  0.12525  0.67659  1.0000
  C   C2596     1.0  0.95483  0.12722  0.55734  1.0000
  H   H2097     1.0  0.52087  0.24199  0.60066  1.0000
  H   H2098     1.0  0.58656  0.23829  0.63821  1.0000
  H   H2099     1.0  0.60774  0.25652  0.65302  1.0000
  C   C2597     1.0  0.98603  0.06143  0.55823  1.0000
  P   P83       1.0  0.51167  0.15997  0.53462  1.0000
  H   H2100     1.0  0.48861  0.24126  0.62172  1.0000
  H   H2101     1.0  0.60089  0.23269  0.59777  1.0000
  H   H2102     1.0  0.61646  0.19800  0.59752  1.0000
  H   H2103     1.0  0.59595  0.17052  0.60670  1.0000
  H   H2104     1.0  0.55957  0.17787  0.61639  1.0000
  H   H2105     1.0  0.54366  0.21207  0.61628  1.0000
  C   C2598     1.0  0.92697  0.27619  0.59406  1.0000
  C   C2599     1.0  0.50184  0.21946  0.51545  1.0000
  C   C2600     1.0  0.89496  0.08264  0.60772  1.0000
  C   C2601     1.0  0.91485  0.07448  0.60426  1.0000
  C   C2602     1.0  0.92397  0.07306  0.58489  1.0000
  C   C2603     1.0  0.91318  0.07969  0.56892  1.0000
  C   C2604     1.0  0.89310  0.08781  0.57223  1.0000
  C   C2605     1.0  0.88417  0.08948  0.59179  1.0000
  P   P84       1.0  0.87954  0.09803  0.55159  1.0000
  C   C2606     1.0  0.88754  0.08413  0.53081  1.0000
  C   C2607     1.0  0.85315  0.09755  0.55868  1.0000
  C   C2608     1.0  0.83933  0.11273  0.55081  1.0000
  C   C2609     1.0  0.90569  0.08669  0.51884  1.0000
  C   C2610     1.0  0.91143  0.07692  0.50211  1.0000
  C   C2611     1.0  0.89889  0.06491  0.49684  1.0000
  C   C2612     1.0  0.88086  0.06219  0.50867  1.0000
  C   C2613     1.0  0.87526  0.07159  0.52568  1.0000
  C   C2614     1.0  0.88389  0.12345  0.54420  1.0000
  C   C2615     1.0  0.88664  0.13523  0.55830  1.0000
  C   C2616     1.0  0.88884  0.15524  0.55261  1.0000
  C   C2617     1.0  0.88818  0.16361  0.53287  1.0000
  C   C2618     1.0  0.88559  0.15195  0.51879  1.0000
  C   C2619     1.0  0.88343  0.13196  0.52442  1.0000
  H   H2106     1.0  0.63347  0.29466  0.52226  1.0000
  C   C2620     1.0  0.54685  0.22686  0.55559  1.0000
  H   H2107     1.0  0.93942  0.06675  0.58238  1.0000
  H   H2108     1.0  0.92060  0.07844  0.55409  1.0000
  H   H2109     1.0  0.86886  0.09602  0.59484  1.0000
  H   H2110     1.0  0.84423  0.12515  0.54065  1.0000
  H   H2111     1.0  0.91527  0.09662  0.52209  1.0000
  H   H2112     1.0  0.92540  0.07916  0.49291  1.0000
  C   C2621     1.0  0.52187  0.04044  0.58839  1.0000
  H   H2113     1.0  0.56016  0.07024  0.65945  1.0000
  H   H2114     1.0  0.86115  0.06924  0.53445  1.0000
  H   H2115     1.0  0.88693  0.12905  0.57368  1.0000
  H   H2116     1.0  0.89107  0.16424  0.56350  1.0000
  H   H2117     1.0  0.88984  0.17905  0.52836  1.0000
  C   C2622     1.0  0.54412  0.16624  0.57815  1.0000
  C   C2623     1.0  0.96899  0.20482  0.53548  1.0000
  C   C2624     1.0  0.92640  0.29416  0.60158  1.0000
  Fe  Fe187     1.0  0.49512  0.08200  0.67039  1.0000
  C   C2625     1.0  0.53373  0.12374  0.52606  1.0000
  H   H2118     1.0  0.52449  0.29154  0.70329  1.0000
  H   H2119     1.0  0.85669  0.06927  0.57697  1.0000
  H   H2120     1.0  0.82073  0.06767  0.58565  1.0000
  H   H2121     1.0  0.72288  0.02068  0.49765  1.0000
  C   C2626     1.0  0.50114  0.24519  0.62754  1.0000
  H   H2122     1.0  0.60904  0.23384  0.50528  1.0000
  C   C2627     1.0  0.53579  0.16918  0.56043  1.0000
  C   C2628     1.0  0.66101  0.99899  0.51733  1.0000
  C   C2629     1.0  0.51022  0.06483  0.71995  1.0000
  H   H2123     1.0  0.73467  0.09405  0.51184  1.0000
  H   H2124     1.0  0.55373  0.17640  0.58069  1.0000
  H   H2125     1.0  0.54588  0.03900  0.66745  1.0000
  C   C2630     1.0  0.51471  0.03929  0.52810  1.0000
  H   H2126     1.0  0.89245  0.21454  0.62636  1.0000
  C   C2631     1.0  0.53737  0.03712  0.60005  1.0000
  H   H2127     1.0  0.97868  0.13393  0.57125  1.0000
  C   C2632     1.0  0.81892  0.11169  0.55556  1.0000
  H   H2128     1.0  0.97822  0.07882  0.64696  1.0000
  S   S365      1.0  0.96566  0.98318  0.67710  1.0000
  C   C2633     1.0  0.75758  0.05217  0.48752  1.0000
  H   H2129     1.0  0.96561  0.27701  0.52520  1.0000
  H   H2130     1.0  0.63121  0.17198  0.54707  1.0000
  C   C2634     1.0  0.84373  0.25445  0.51348  1.0000
  C   C2635     1.0  0.51220  0.03089  0.49553  1.0000
  C   C2636     1.0  0.86964  0.22496  0.60752  1.0000
  C   C2637     1.0  0.51899  0.14018  0.57165  1.0000
  C   C2638     1.0  0.95130  0.27179  0.52985  1.0000
  S   S366      1.0  0.96775  0.06442  0.61315  1.0000
  C   C2639     1.0  0.62159  0.18615  0.49531  1.0000
  C   C2640     1.0  0.66554  0.11102  0.48820  1.0000
  H   H2131     1.0  0.53961  0.98083  0.66816  1.0000
  C   C2641     1.0  0.58138  0.02907  0.69866  1.0000
  C   C2642     1.0  0.81540  0.21126  0.51341  1.0000
  H   H2132     1.0  0.91463  0.30627  0.59916  1.0000
  H   H2133     1.0  0.50875  0.98772  0.65250  1.0000
  H   H2134     1.0  0.51860  0.23657  0.49171  1.0000
  C   C2643     1.0  0.51760  0.22214  0.50032  1.0000
  C   C2644     1.0  0.80142  0.02947  0.63585  1.0000
  H   H2135     1.0  0.49898  0.29475  0.61715  1.0000
  P   P85       1.0  0.90887  0.27318  0.57857  1.0000
  C   C2645     1.0  0.50459  0.03124  0.51555  1.0000
  C   C2646     1.0  0.81219  0.09556  0.56827  1.0000
  C   C2647     1.0  0.50992  0.23541  0.71463  1.0000
  C   C2648     1.0  0.97240  0.14857  0.67449  1.0000
  C   C2649     1.0  0.97370  0.15024  0.63347  1.0000
  H   H2136     1.0  0.96993  0.28495  0.62121  1.0000
  C   C2650     1.0  0.98145  0.00017  0.61049  1.0000
  S   S367      1.0  0.82734  0.05865  0.48378  1.0000
  C   C2651     1.0  0.65698  0.00641  0.49812  1.0000
  C   C2652     1.0  0.95344  0.18139  0.48883  1.0000
  C   C2653     1.0  0.84604  0.19015  0.49034  1.0000
  C   C2654     1.0  0.49497  0.23629  0.70267  1.0000
  H   H2137     1.0  0.77306  0.05256  0.48884  1.0000
  H   H2138     1.0  0.95530  0.11217  0.56480  1.0000
  H   H2139     1.0  0.51886  0.02979  0.70174  1.0000
  C   C2655     1.0  0.52139  0.14541  0.49819  1.0000
  C   C2656     1.0  0.56604  0.05878  0.67051  1.0000
  C   C2657     1.0  0.95960  0.21474  0.49065  1.0000
  H   H2140     1.0  0.58935  0.31169  0.52875  1.0000
  H   H2141     1.0  0.94963  0.26275  0.50161  1.0000
  H   H2142     1.0  0.84254  0.28860  0.54483  1.0000
  H   H2143     1.0  0.54590  0.01846  0.54865  1.0000
  C   C2658     1.0  0.49943  0.02404  0.68228  1.0000
  C   C2659     1.0  0.52482  0.03426  0.56951  1.0000
  P   P86       1.0  0.50502  0.03969  0.55406  1.0000
  C   C2660     1.0  0.78796  0.03093  0.62217  1.0000
  C   C2661     1.0  0.67546  0.07237  0.49148  1.0000
  H   H2144     1.0  0.95244  0.01261  0.60284  1.0000
  C   C2662     1.0  0.54000  0.04674  0.50022  1.0000
  H   H2145     1.0  0.96765  0.17922  0.70693  1.0000
  C   C2663     1.0  0.83243  0.09235  0.49858  1.0000
  H   H2146     1.0  0.87092  0.26382  0.57078  1.0000
  H   H2147     1.0  0.77801  0.01667  0.60035  1.0000
  C   C2664     1.0  0.81637  0.99719  0.62683  1.0000
  H   H2148     1.0  0.95539  0.12668  0.64027  1.0000
  C   C2665     1.0  0.95784  0.28237  0.61395  1.0000
  C   C2666     1.0  0.94172  0.29713  0.61161  1.0000
  C   C2667     1.0  0.51676  0.02028  0.69123  1.0000
  C   C2668     1.0  0.84053  0.21035  0.48467  1.0000
  C   C2669     1.0  0.86369  0.23881  0.59181  1.0000
  C   C2670     1.0  0.96765  0.15882  0.55115  1.0000
  C   C2671     1.0  0.55595  0.02765  0.59295  1.0000
  H   H2149     1.0  0.52661  0.29900  0.55834  1.0000
  C   C2672     1.0  0.72887  0.03448  0.49315  1.0000
  H   H2150     1.0  0.77720  0.04406  0.62011  1.0000
  C   C2673     1.0  0.49538  0.26738  0.72473  1.0000
  C   C2674     1.0  0.55887  0.02090  0.57444  1.0000
  C   C2675     1.0  0.58562  0.14285  0.55762  1.0000
  C   C2676     1.0  0.57827  0.13518  0.54291  1.0000
  C   C2677     1.0  0.57692  0.14639  0.52438  1.0000
  C   C2678     1.0  0.58307  0.16519  0.52045  1.0000
  C   C2679     1.0  0.59109  0.17278  0.53490  1.0000
  C   C2680     1.0  0.59176  0.16171  0.55375  1.0000
  P   P87       1.0  0.59819  0.19745  0.52974  1.0000
  C   C2681     1.0  0.61545  0.20178  0.54544  1.0000
  C   C2682     1.0  0.61209  0.20198  0.50542  1.0000
  C   C2683     1.0  0.50027  0.20073  0.52621  1.0000
  C   C2684     1.0  0.48970  0.09999  0.54995  1.0000
  C   C2685     1.0  0.56493  0.21455  0.55257  1.0000
  C   C2686     1.0  0.57546  0.21425  0.53345  1.0000
  H   H2151     1.0  0.55837  0.06893  0.72387  1.0000
  C   C2687     1.0  0.63049  0.18671  0.55110  1.0000
  C   C2688     1.0  0.64530  0.19080  0.56126  1.0000
  C   C2689     1.0  0.64546  0.21005  0.56540  1.0000
  C   C2690     1.0  0.63078  0.22521  0.55940  1.0000
  C   C2691     1.0  0.61590  0.22111  0.54938  1.0000
  C   C2692     1.0  0.54293  0.11010  0.51330  1.0000
  H   H2152     1.0  0.58625  0.13419  0.57209  1.0000
  H   H2153     1.0  0.57350  0.12059  0.54588  1.0000
  H   H2154     1.0  0.57128  0.14043  0.51293  1.0000
  H   H2155     1.0  0.58180  0.17367  0.50601  1.0000
  H   H2156     1.0  0.59685  0.16763  0.56549  1.0000
  H   H2157     1.0  0.61993  0.17096  0.50128  1.0000
  H   H2158     1.0  0.84040  0.16468  0.51153  1.0000
  H   H2159     1.0  0.64280  0.28269  0.57813  1.0000
  C   C2693     1.0  0.51019  0.25091  0.72557  1.0000
  C   C2694     1.0  0.56514  0.02615  0.68972  1.0000
  C   C2695     1.0  0.87491  0.98933  0.66199  1.0000
  H   H2160     1.0  0.65699  0.17915  0.56542  1.0000
  H   H2161     1.0  0.65720  0.21329  0.57287  1.0000
  H   H2162     1.0  0.63128  0.24028  0.56195  1.0000
  H   H2163     1.0  0.60529  0.23319  0.54385  1.0000
  H   H2164     1.0  0.57494  0.22588  0.50248  1.0000
  S   S368      1.0  0.63294  0.06021  0.49676  1.0000
  C   C2696     1.0  0.94229  0.26383  0.51656  1.0000
  C   C2697     1.0  0.92345  0.25798  0.52229  1.0000
  C   C2698     1.0  0.61217  0.29090  0.57311  1.0000
  H   H2165     1.0  0.87096  0.05310  0.50448  1.0000
  C   C2699     1.0  0.52735  0.29974  0.49528  1.0000
  H   H2166     1.0  0.91638  0.25230  0.51173  1.0000
  C   C2700     1.0  0.96283  0.13683  0.64626  1.0000
  C   C2701     1.0  0.85760  0.98473  0.65628  1.0000
  H   H2167     1.0  0.67757  0.00164  0.54080  1.0000
  C   C2702     1.0  0.74901  0.03484  0.49417  1.0000
  C   C2703     1.0  0.52992  0.03859  0.48788  1.0000
  C   C2704     1.0  0.83781  0.08041  0.48338  1.0000
  C   C2705     1.0  0.63168  0.29450  0.57309  1.0000
  H   H2168     1.0  0.83588  0.11980  0.50846  1.0000
  C   C2706     1.0  0.55918  0.30505  0.72710  1.0000
  C   C2707     1.0  0.53178  0.00525  0.68569  1.0000
  H   H2169     1.0  0.54042  0.30476  0.48640  1.0000
  C   C2708     1.0  0.53082  0.13182  0.48547  1.0000
  C   C2709     1.0  0.53953  0.23944  0.53967  1.0000
  C   C2710     1.0  0.77858  0.23949  0.48935  1.0000
  H   H2170     1.0  0.79651  0.27857  0.51347  1.0000
  C   C2711     1.0  0.81797  0.28458  0.53039  1.0000
  C   C2712     1.0  0.83737  0.28000  0.53511  1.0000
  C   C2713     1.0  0.85018  0.26475  0.52684  1.0000
  H   H2171     1.0  0.54441  0.24920  0.50830  1.0000
  C   C2714     1.0  0.89196  0.98660  0.62894  1.0000
  H   H2172     1.0  0.55145  0.09648  0.51906  1.0000
  C   C2715     1.0  0.58170  0.06184  0.68004  1.0000
  C   C2716     1.0  0.50118  0.29982  0.63060  1.0000
  H   H2173     1.0  0.60833  0.29254  0.64258  1.0000
  H   H2174     1.0  0.85391  0.24299  0.50680  1.0000
  C   C2717     1.0  0.95862  0.26450  0.60647  1.0000
  H   H2175     1.0  0.50438  0.02458  0.48595  1.0000
  H   H2176     1.0  0.52564  0.24920  0.54201  1.0000
  H   H2177     1.0  0.80115  0.04150  0.64442  1.0000
  H   H2178     1.0  0.96555  0.19933  0.64678  1.0000
  H   H2179     1.0  0.58771  0.01760  0.70937  1.0000
  C   C2718     1.0  0.54329  0.02390  0.56288  1.0000
  H   H2180     1.0  0.96866  0.03880  0.57333  1.0000
  C   C2719     1.0  0.52317  0.15612  0.55706  1.0000
  C   C2720     1.0  0.49885  0.08112  0.54621  1.0000
  H   H2181     1.0  0.57125  0.00167  0.65406  1.0000
  H   H2182     1.0  0.97384  0.07330  0.55987  1.0000
  H   H2183     1.0  0.88784  0.08332  0.62282  1.0000
  C   C2721     1.0  0.88791  0.22519  0.61406  1.0000
  C   C2722     1.0  0.92229  0.26845  0.55466  1.0000
  C   C2723     1.0  0.89425  0.25350  0.58935  1.0000
  H   H2184     1.0  0.95046  0.23412  0.64163  1.0000
  H   H2185     1.0  0.86536  0.26141  0.53010  1.0000
  C   C2724     1.0  0.62573  0.30006  0.49250  1.0000
  H   H2186     1.0  0.94826  0.28138  0.55833  1.0000
  C   C2725     1.0  0.66565  0.07086  0.51297  1.0000
  C   C2726     1.0  0.65601  0.08928  0.52201  1.0000
  C   C2727     1.0  0.65628  0.10946  0.50961  1.0000
  H   H2187     1.0  0.84942  0.23880  0.58685  1.0000
  C   C2728     1.0  0.82587  0.08044  0.57618  1.0000
  H   H2188     1.0  0.49532  0.15613  0.61253  1.0000
  C   C2729     1.0  0.97455  0.12106  0.49559  1.0000
  H   H2189     1.0  0.66584  0.05678  0.52221  1.0000
  H   H2190     1.0  0.64971  0.08813  0.53745  1.0000
  H   H2191     1.0  0.65027  0.12274  0.51624  1.0000
  H   H2192     1.0  0.50902  0.13009  0.56958  1.0000
  H   H2193     1.0  0.53535  0.12023  0.54161  1.0000
  H   H2194     1.0  0.52430  0.12486  0.60037  1.0000
  C   C2730     1.0  0.52310  0.14170  0.51855  1.0000
  S   S369      1.0  0.54758  0.31015  0.65542  1.0000
  H   H2195     1.0  0.54671  0.14762  0.60614  1.0000
  P   P88       1.0  0.55508  0.00281  0.69546  1.0000
  S   S370      1.0  0.61514  0.27809  0.49446  1.0000
  C   C2731     1.0  0.52760  0.13716  0.58916  1.0000
  C   C2732     1.0  0.94323  0.26138  0.59657  1.0000
  H   H2196     1.0  0.53916  0.18167  0.54952  1.0000
  H   H2197     1.0  0.84446  0.98406  0.66711  1.0000
  C   C2733     1.0  0.57355  0.98549  0.68331  1.0000
  H   H2198     1.0  0.48788  0.19900  0.53780  1.0000
  C   C2734     1.0  0.84625  0.08136  0.57128  1.0000
  H   H2199     1.0  0.80807  0.29649  0.53675  1.0000
  C   C2735     1.0  0.55021  0.30060  0.71168  1.0000
  C   C2736     1.0  0.55009  0.23943  0.52067  1.0000
  H   H2200     1.0  0.91389  0.23961  0.61088  1.0000
  H   H2201     1.0  0.89865  0.25614  0.54509  1.0000
  S   S371      1.0  0.88445  0.30077  0.51365  1.0000
  C   C2737     1.0  0.54018  0.15013  0.59244  1.0000
  C   C2738     1.0  0.71694  0.05170  0.48599  1.0000
  H   H2202     1.0  0.96090  0.22639  0.49912  1.0000
  C   C2739     1.0  0.91345  0.26022  0.54126  1.0000
  H   H2203     1.0  0.69506  0.02858  0.52171  1.0000
  Fe  Fe188     1.0  0.64785  0.08904  0.49495  1.0000
  C   C2740     1.0  0.94131  0.27425  0.54874  1.0000
  H   H2204     1.0  0.88110  0.12322  0.51335  1.0000
  H   H2205     1.0  0.48860  0.03657  0.68562  1.0000
  H   H2206     1.0  0.57061  0.20513  0.56508  1.0000
  C   C2741     1.0  0.96224  0.13595  0.66674  1.0000
  C   C2742     1.0  0.53091  0.18761  0.50737  1.0000
  H   H2207     1.0  0.56638  0.29253  0.60240  1.0000
  C   C2743     1.0  0.96800  0.13947  0.56098  1.0000
  C   C2744     1.0  0.58943  0.04695  0.69404  1.0000
  H   H2208     1.0  0.97683  0.10099  0.52262  1.0000
  C   C2745     1.0  0.67860  0.28667  0.48544  1.0000
  C   C2746     1.0  0.55783  0.04101  0.67526  1.0000
  C   C2747     1.0  0.51101  0.99669  0.66342  1.0000
  S   S372      1.0  0.88899  0.25635  0.48527  1.0000
  C   C2748     1.0  0.63375  0.30469  0.50856  1.0000
  H   H2209     1.0  0.97145  0.25332  0.60801  1.0000
  H   H2210     1.0  0.90533  0.99431  0.65269  1.0000
  C   C2749     1.0  0.49244  0.06415  0.55791  1.0000
  C   C2750     1.0  0.66710  0.02145  0.48708  1.0000
  C   C2751     1.0  0.54978  0.99468  0.72168  1.0000
  C   C2752     1.0  0.49663  0.01250  0.66818  1.0000
  S   S373      1.0  0.49341  0.09569  0.61310  1.0000
  C   C2753     1.0  0.53229  0.20632  0.49649  1.0000
  C   C2754     1.0  0.82097  0.19101  0.51904  1.0000
  C   C2755     1.0  0.49483  0.00239  0.57076  1.0000
  C   C2756     1.0  0.53241  0.04715  0.52017  1.0000
  S   S374      1.0  0.95760  0.10812  0.48716  1.0000
  Fe  Fe189     1.0  0.88901  0.28974  0.48392  1.0000
  H   H2211     1.0  0.49480  0.22431  0.69414  1.0000
  C   C2757     1.0  0.83617  0.18042  0.50741  1.0000
  C   C2758     1.0  0.81155  0.27445  0.51686  1.0000
  H   H2212     1.0  0.84525  0.99287  0.58895  1.0000
  C   C2759     1.0  0.82476  0.22099  0.49587  1.0000
  H   H2213     1.0  0.97803  0.16791  0.55431  1.0000
  C   C2760     1.0  0.59785  0.30630  0.56680  1.0000
  C   C2761     1.0  0.89132  0.29547  0.57593  1.0000
  C   C2762     1.0  0.48800  0.31072  0.66234  1.0000
  H   H2214     1.0  0.85795  0.18194  0.48142  1.0000
  C   C2763     1.0  0.98332  0.16220  0.66172  1.0000
  H   H2215     1.0  0.71254  0.30732  0.50422  1.0000
  H   H2216     1.0  0.87474  0.28935  0.60503  1.0000
  C   C2764     1.0  0.89259  0.30880  0.55845  1.0000
  H   H2217     1.0  0.51314  0.15903  0.49201  1.0000
  H   H2218     1.0  0.75798  0.02172  0.50028  1.0000
  H   H2219     1.0  0.50776  0.04821  0.59404  1.0000
  H   H2220     1.0  0.97249  0.24025  0.56413  1.0000
  H   H2221     1.0  0.89512  0.99615  0.49616  1.0000
  H   H2222     1.0  0.54467  0.20862  0.48498  1.0000
  H   H2223     1.0  0.82183  0.08806  0.51120  1.0000
  C   C2765     1.0  0.68135  0.02926  0.49519  1.0000
  H   H2224     1.0  0.49088  0.02517  0.52111  1.0000
  C   C2766     1.0  0.84036  0.11027  0.49704  1.0000
  H   H2225     1.0  0.87496  0.99264  0.67688  1.0000
  C   C2767     1.0  0.72547  0.98322  0.52327  1.0000
  H   H2226     1.0  0.55783  0.30210  0.69664  1.0000
  C   C2768     1.0  0.49871  0.25042  0.64665  1.0000
  C   C2769     1.0  0.81249  0.98278  0.48335  1.0000
  H   H2227     1.0  0.49454  0.26694  0.49702  1.0000
  C   C2770     1.0  0.75101  0.26517  0.48342  1.0000
  C   C2771     1.0  0.70411  0.30375  0.49340  1.0000
  H   H2228     1.0  0.81348  0.18348  0.53239  1.0000
  H   H2229     1.0  0.74801  0.98738  0.54050  1.0000
  C   C2772     1.0  0.52041  0.30167  0.63391  1.0000
  C   C2773     1.0  0.74607  0.06911  0.47952  1.0000
  C   C2774     1.0  0.48772  0.18717  0.60169  1.0000
  C   C2775     1.0  0.95254  0.09873  0.72315  1.0000
  H   H2230     1.0  0.80375  0.21933  0.52266  1.0000
  C   C2776     1.0  0.74495  0.98417  0.52637  1.0000
  C   C2777     1.0  0.97708  0.22889  0.55450  1.0000
  C   C2778     1.0  0.53125  0.29467  0.71554  1.0000
  S   S375      1.0  0.49171  0.07074  0.70367  1.0000
  C   C2779     1.0  0.87459  0.98232  0.62307  1.0000
  C   C2780     1.0  0.96962  0.20976  0.65522  1.0000
  H   H2231     1.0  0.57334  0.01375  0.56882  1.0000
  H   H2232     1.0  0.53291  0.29793  0.62298  1.0000
  H   H2233     1.0  0.57362  0.31027  0.72404  1.0000
  H   H2234     1.0  0.52134  0.22271  0.71539  1.0000
  C   C2781     1.0  0.49318  0.28715  0.51838  1.0000
  H   H2235     1.0  0.51105  0.07993  0.53436  1.0000
  C   C2782     1.0  0.98135  0.13781  0.48415  1.0000
  H   H2236     1.0  0.90460  0.30639  0.54665  1.0000
  H   H2237     1.0  0.58278  0.30332  0.56691  1.0000
  C   C2783     1.0  0.98183  0.11409  0.51378  1.0000
  C   C2784     1.0  0.57858  0.98889  0.66265  1.0000
  P   P89       1.0  0.69145  0.05115  0.48235  1.0000
  H   H2238     1.0  0.64557  0.00094  0.49192  1.0000
  C   C2785     1.0  0.89209  0.99024  0.64834  1.0000
  H   H2239     1.0  0.90516  0.98779  0.61826  1.0000
  C   C2786     1.0  0.76057  0.98095  0.51123  1.0000
  H   H2240     1.0  0.49481  0.11297  0.54097  1.0000
  H   H2241     1.0  0.98465  0.01396  0.61437  1.0000
  H   H2242     1.0  0.74817  0.23413  0.49092  1.0000
  H   H2243     1.0  0.94142  0.31121  0.61697  1.0000
  C   C2787     1.0  0.75831  0.24519  0.48804  1.0000
  C   C2788     1.0  0.51860  0.30894  0.51198  1.0000
  C   C2789     1.0  0.98237  0.08251  0.61500  1.0000
  C   C2790     1.0  0.52344  0.30829  0.65129  1.0000
  C   C2791     1.0  0.98398  0.16280  0.64114  1.0000
  C   C2792     1.0  0.98199  0.17275  0.71134  1.0000
  H   H2244     1.0  0.78385  0.22395  0.49300  1.0000
  H   H2245     1.0  0.96599  0.30966  0.54198  1.0000
  C   C2793     1.0  0.85411  0.11582  0.48068  1.0000
  C   C2794     1.0  0.98002  0.23777  0.67599  1.0000
  C   C2795     1.0  0.85721  0.98137  0.63670  1.0000
  H   H2246     1.0  0.58763  0.31032  0.61741  1.0000
  H   H2247     1.0  0.58089  0.30932  0.49606  1.0000
  C   C2796     1.0  0.62745  0.22496  0.47935  1.0000
  C   C2797     1.0  0.78439  0.27370  0.48032  1.0000
  C   C2798     1.0  0.76407  0.27942  0.47946  1.0000
  S   S376      1.0  0.86428  0.13794  0.47875  1.0000
  C   C2799     1.0  0.98365  0.20386  0.66860  1.0000
  C   C2800     1.0  0.95858  0.98145  0.60013  1.0000
  H   H2248     1.0  0.98448  0.24882  0.68350  1.0000
  H   H2249     1.0  0.95836  0.12760  0.72776  1.0000
  C   C2801     1.0  0.67527  0.09255  0.47927  1.0000
  H   H2250     1.0  0.66614  0.12544  0.47954  1.0000
  C   C2802     1.0  0.72589  0.06886  0.47869  1.0000
  C   C2803     1.0  0.50720  0.31321  0.66532  1.0000
  C   C2804     1.0  0.63687  0.31348  0.56668  1.0000
  Fe  Fe190     1.0  0.86878  0.11974  0.95267  1.0000
  S   S377      1.0  0.84156  0.14093  0.96163  1.0000
  S   S378      1.0  0.88728  0.13142  0.92411  1.0000
  C   C2805     1.0  0.90885  0.23274  0.97226  1.0000
  C   C2806     1.0  0.58733  0.07999  0.80190  1.0000
  H   H2251     1.0  0.69673  0.00470  0.91267  1.0000
  H   H2252     1.0  0.69656  0.04218  0.85048  1.0000
  S   S379      1.0  0.95808  0.08794  0.86827  1.0000
  C   C2807     1.0  0.93668  0.19373  0.96019  1.0000
  C   C2808     1.0  0.49420  0.10354  0.87015  1.0000
  Fe  Fe191     1.0  0.52241  0.03199  0.83471  1.0000
  S   S380      1.0  0.54722  0.05012  0.82268  1.0000
  S   S381      1.0  0.49318  0.04265  0.85213  1.0000
  Fe  Fe192     1.0  0.54556  0.99471  0.82074  1.0000
  S   S382      1.0  0.57270  0.00974  0.80832  1.0000
  C   C2809     1.0  0.78259  0.00872  0.90457  1.0000
  Fe  Fe193     1.0  0.56741  0.02435  0.83635  1.0000
  S   S383      1.0  0.58636  0.03044  0.85934  1.0000
  Fe  Fe194     1.0  0.55029  0.03426  0.79586  1.0000
  S   S384      1.0  0.54208  0.00714  0.84956  1.0000
  S   S385      1.0  0.52376  0.01822  0.80681  1.0000
  Fe  Fe195     1.0  0.71031  0.06771  0.92970  1.0000
  S   S386      1.0  0.69049  0.07738  0.95637  1.0000
  S   S387      1.0  0.74308  0.07218  0.92262  1.0000
  Fe  Fe196     1.0  0.67624  0.05097  0.91474  1.0000
  S   S388      1.0  0.65422  0.05961  0.94055  1.0000
  S   S389      1.0  0.66934  0.03538  0.88976  1.0000
  Fe  Fe197     1.0  0.66777  0.08795  0.93558  1.0000
  S   S390      1.0  0.64793  0.11717  0.93506  1.0000
  Fe  Fe198     1.0  0.67893  0.04812  0.95903  1.0000
  S   S391      1.0  0.68823  0.08034  0.90837  1.0000
  S   S392      1.0  0.70039  0.03741  0.93374  1.0000
  H   H2253     1.0  0.57213  0.14566  0.91457  1.0000
  H   H2254     1.0  0.51469  0.04354  0.76766  1.0000
  C   C2810     1.0  0.60962  0.03086  0.86793  1.0000
  C   C2811     1.0  0.60977  0.03888  0.88557  1.0000
  C   C2812     1.0  0.62783  0.04036  0.89249  1.0000
  C   C2813     1.0  0.64603  0.03360  0.88196  1.0000
  C   C2814     1.0  0.64586  0.02502  0.86466  1.0000
  C   C2815     1.0  0.62783  0.02374  0.85762  1.0000
  H   H2255     1.0  0.59584  0.04427  0.89381  1.0000
  H   H2256     1.0  0.62767  0.04690  0.90585  1.0000
  H   H2257     1.0  0.65979  0.01949  0.85650  1.0000
  H   H2258     1.0  0.76775  0.03869  0.90398  1.0000
  S   S393      1.0  0.55626  0.05032  0.76440  1.0000
  C   C2816     1.0  0.94792  0.16230  0.90956  1.0000
  C   C2817     1.0  0.49377  0.06544  0.86051  1.0000
  C   C2818     1.0  0.51175  0.07305  0.85920  1.0000
  C   C2819     1.0  0.53025  0.29757  0.75035  1.0000
  C   C2820     1.0  0.94354  0.17666  0.97246  1.0000
  H   H2259     1.0  0.52555  0.06422  0.85482  1.0000
  H   H2260     1.0  0.96904  0.02322  0.72992  1.0000
  C   C2821     1.0  0.69049  0.99163  0.92026  1.0000
  C   C2822     1.0  0.64154  0.12583  0.95821  1.0000
  C   C2823     1.0  0.62298  0.13700  0.96246  1.0000
  H   H2261     1.0  0.48971  0.24835  0.76304  1.0000
  C   C2824     1.0  0.67822  0.04559  0.80663  1.0000
  H   H2262     1.0  0.61295  0.14057  0.95134  1.0000
  H   H2263     1.0  0.94242  0.25909  0.94192  1.0000
  C   C2825     1.0  0.61866  0.08682  0.86590  1.0000
  H   H2264     1.0  0.58889  0.30810  0.90361  1.0000
  H   H2265     1.0  0.68021  0.03836  0.79341  1.0000
  H   H2266     1.0  0.80471  0.04498  0.94528  1.0000
  H   H2267     1.0  0.91155  0.14585  0.96517  1.0000
  H   H2268     1.0  0.66131  0.00744  0.92633  1.0000
  H   H2269     1.0  0.61036  0.05114  0.97646  1.0000
  C   C2826     1.0  0.95677  0.07298  0.75069  1.0000
  C   C2827     1.0  0.96235  0.08650  0.76170  1.0000
  C   C2828     1.0  0.61371  0.08921  0.88591  1.0000
  C   C2829     1.0  0.66377  0.24324  0.96970  1.0000
  H   H2270     1.0  0.95597  0.05782  0.75735  1.0000
  C   C2830     1.0  0.77987  0.09985  0.95966  1.0000
  H   H2271     1.0  0.98232  0.26665  0.85831  1.0000
  C   C2831     1.0  0.74821  0.08994  0.95495  1.0000
  C   C2832     1.0  0.75702  0.08237  0.93752  1.0000
  C   C2833     1.0  0.77744  0.08320  0.93146  1.0000
  C   C2834     1.0  0.78886  0.09178  0.94252  1.0000
  H   H2272     1.0  0.61258  0.11790  0.80513  1.0000
  H   H2273     1.0  0.73256  0.08937  0.95983  1.0000
  H   H2274     1.0  0.78444  0.07737  0.91800  1.0000
  H   H2275     1.0  0.80449  0.09251  0.93756  1.0000
  C   C2835     1.0  0.90655  0.11870  0.90867  1.0000
  C   C2836     1.0  0.91571  0.12945  0.89163  1.0000
  C   C2837     1.0  0.93147  0.12026  0.87917  1.0000
  C   C2838     1.0  0.93825  0.10013  0.88358  1.0000
  C   C2839     1.0  0.92909  0.08933  0.90062  1.0000
  C   C2840     1.0  0.91330  0.09854  0.91312  1.0000
  H   H2276     1.0  0.91051  0.14500  0.88799  1.0000
  H   H2277     1.0  0.93824  0.12867  0.86603  1.0000
  H   H2278     1.0  0.93421  0.07373  0.90415  1.0000
  H   H2279     1.0  0.90639  0.09005  0.92615  1.0000
  H   H2280     1.0  0.60104  0.08290  0.89429  1.0000
  H   H2281     1.0  0.48747  0.15675  0.93780  1.0000
  C   C2841     1.0  0.80545  0.15617  0.91366  1.0000
  C   C2842     1.0  0.80326  0.17028  0.89702  1.0000
  C   C2843     1.0  0.78691  0.18510  0.89723  1.0000
  C   C2844     1.0  0.77279  0.18592  0.91413  1.0000
  C   C2845     1.0  0.77506  0.17194  0.93100  1.0000
  C   C2846     1.0  0.79135  0.15690  0.93053  1.0000
  H   H2282     1.0  0.97929  0.15257  0.95667  1.0000
  H   H2283     1.0  0.57486  0.07698  0.79530  1.0000
  C   C2847     1.0  0.74287  0.19692  0.95287  1.0000
  P   P90       1.0  0.75688  0.17240  0.95286  1.0000
  H   H2284     1.0  0.71990  0.19044  0.93722  1.0000
  H   H2285     1.0  0.61653  0.28832  0.95239  1.0000
  C   C2848     1.0  0.77589  0.02689  0.93284  1.0000
  H   H2286     1.0  0.57674  0.12777  0.97611  1.0000
  H   H2287     1.0  0.62853  0.13380  0.83256  1.0000
  C   C2849     1.0  0.52092  0.29347  0.73486  1.0000
  C   C2850     1.0  0.61006  0.25841  0.95452  1.0000
  H   H2288     1.0  0.52608  0.11317  0.96061  1.0000
  H   H2289     1.0  0.89931  0.17569  0.94354  1.0000
  H   H2290     1.0  0.96586  0.08165  0.77661  1.0000
  H   H2291     1.0  0.62804  0.01736  0.84415  1.0000
  H   H2292     1.0  0.51227  0.13992  0.90605  1.0000
  H   H2293     1.0  0.54242  0.28008  0.88770  1.0000
  C   C2851     1.0  0.59365  0.10276  0.96318  1.0000
  C   C2852     1.0  0.95197  0.07890  0.73131  1.0000
  H   H2294     1.0  0.81809  0.14462  0.91353  1.0000
  H   H2295     1.0  0.81423  0.16966  0.88396  1.0000
  H   H2296     1.0  0.78519  0.19596  0.88427  1.0000
  H   H2297     1.0  0.76021  0.19745  0.91396  1.0000
  H   H2298     1.0  0.49029  0.05119  0.74339  1.0000
  C   C2853     1.0  0.91297  0.27087  0.95295  1.0000
  C   C2854     1.0  0.97349  0.26931  0.76613  1.0000
  C   C2855     1.0  0.54252  0.14012  0.91152  1.0000
  C   C2856     1.0  0.93735  0.30198  0.90230  1.0000
  H   H2299     1.0  0.69097  0.00245  0.96453  1.0000
  C   C2857     1.0  0.96524  0.28443  0.83661  1.0000
  C   C2858     1.0  0.52412  0.14879  0.90564  1.0000
  C   C2859     1.0  0.63515  0.09470  0.85475  1.0000
  H   H2300     1.0  0.94041  0.12503  0.92498  1.0000
  H   H2301     1.0  0.50183  0.29085  0.97079  1.0000
  C   C2860     1.0  0.91173  0.17602  0.95152  1.0000
  C   C2861     1.0  0.57523  0.25446  0.95823  1.0000
  C   C2862     1.0  0.95806  0.11231  0.73419  1.0000
  C   C2863     1.0  0.72725  0.13133  0.93630  1.0000
  C   C2864     1.0  0.96503  0.15046  0.90206  1.0000
  C   C2865     1.0  0.59518  0.09054  0.94842  1.0000
  H   H2302     1.0  0.61850  0.18675  0.96100  1.0000
  H   H2303     1.0  0.52190  0.25005  0.73475  1.0000
  C   C2866     1.0  0.56392  0.12136  0.95147  1.0000
  C   C2867     1.0  0.56515  0.10905  0.93675  1.0000
  C   C2868     1.0  0.58072  0.09333  0.93555  1.0000
  P   P91       1.0  0.54687  0.11381  0.91961  1.0000
  C   C2869     1.0  0.55554  0.10104  0.89817  1.0000
  C   C2870     1.0  0.52360  0.10572  0.93160  1.0000
  C   C2871     1.0  0.51111  0.09880  0.92050  1.0000
  C   C2872     1.0  0.65457  0.12151  0.97253  1.0000
  P   P92       1.0  0.98099  0.13612  0.91901  1.0000
  C   C2873     1.0  0.97194  0.19528  0.79230  1.0000
  C   C2874     1.0  0.51719  0.10733  0.95173  1.0000
  C   C2875     1.0  0.56255  0.11136  0.87986  1.0000
  C   C2876     1.0  0.56822  0.10145  0.86317  1.0000
  C   C2877     1.0  0.56687  0.08123  0.86461  1.0000
  C   C2878     1.0  0.56003  0.07087  0.88277  1.0000
  C   C2879     1.0  0.55455  0.08065  0.89952  1.0000
  H   H2304     1.0  0.95570  0.19641  0.92270  1.0000
  H   H2305     1.0  0.60781  0.07917  0.94679  1.0000
  H   H2306     1.0  0.97869  0.16694  0.78149  1.0000
  H   H2307     1.0  0.76326  0.20901  0.96762  1.0000
  H   H2308     1.0  0.55216  0.13364  0.95252  1.0000
  H   H2309     1.0  0.55021  0.00905  0.76688  1.0000
  H   H2310     1.0  0.51525  0.09813  0.90479  1.0000
  S   S394      1.0  0.79299  0.11197  0.97362  1.0000
  H   H2311     1.0  0.52128  0.19753  0.95055  1.0000
  C   C2880     1.0  0.97965  0.21176  0.79620  1.0000
  C   C2881     1.0  0.53579  0.18091  0.89845  1.0000
  H   H2312     1.0  0.56331  0.12710  0.87830  1.0000
  H   H2313     1.0  0.57330  0.10949  0.84900  1.0000
  H   H2314     1.0  0.57091  0.07358  0.85162  1.0000
  H   H2315     1.0  0.55868  0.05526  0.88375  1.0000
  H   H2316     1.0  0.54904  0.07241  0.91342  1.0000
  H   H2317     1.0  0.68046  0.17027  0.94189  1.0000
  S   S395      1.0  0.85245  0.09293  0.96119  1.0000
  C   C2882     1.0  0.53740  0.27431  0.90288  1.0000
  C   C2883     1.0  0.71042  0.13111  0.95048  1.0000
  C   C2884     1.0  0.52084  0.20505  0.96337  1.0000
  H   H2318     1.0  0.90175  0.28915  0.87879  1.0000
  C   C2885     1.0  0.51904  0.25175  0.92649  1.0000
  C   C2886     1.0  0.93651  0.10873  0.95393  1.0000
  C   C2887     1.0  0.94551  0.26816  0.89485  1.0000
  C   C2888     1.0  0.92806  0.27004  0.88620  1.0000
  C   C2889     1.0  0.91524  0.28788  0.88557  1.0000
  H   H2319     1.0  0.66895  0.11309  0.96933  1.0000
  C   C2890     1.0  0.55422  0.17239  0.90415  1.0000
  H   H2320     1.0  0.67532  0.28993  0.96840  1.0000
  C   C2891     1.0  0.50511  0.05517  0.73914  1.0000
  C   C2892     1.0  0.96557  0.23522  0.75248  1.0000
  H   H2321     1.0  0.95546  0.25437  0.89532  1.0000
  H   H2322     1.0  0.92447  0.25767  0.87997  1.0000
  C   C2893     1.0  0.67385  0.18770  0.96623  1.0000
  C   C2894     1.0  0.60982  0.03464  0.95230  1.0000
  C   C2895     1.0  0.61642  0.01690  0.94441  1.0000
  H   H2323     1.0  0.62169  0.10087  0.91066  1.0000
  H   H2324     1.0  0.60973  0.07857  0.85933  1.0000
  C   C2896     1.0  0.87724  0.30616  0.92097  1.0000
  C   C2897     1.0  0.95015  0.28411  0.90285  1.0000
  H   H2325     1.0  0.66142  0.26962  0.94836  1.0000
  P   P93       1.0  0.94737  0.21650  0.95864  1.0000
  C   C2898     1.0  0.51380  0.15501  0.97642  1.0000
  C   C2899     1.0  0.59149  0.98340  0.90988  1.0000
  C   C2900     1.0  0.59253  0.09916  0.79926  1.0000
  H   H2326     1.0  0.88710  0.29273  0.91848  1.0000
  H   H2327     1.0  0.98353  0.00528  0.81267  1.0000
  C   C2901     1.0  0.78800  0.17517  0.97366  1.0000
  H   H2328     1.0  0.68933  0.18779  0.96753  1.0000
  C   C2902     1.0  0.49053  0.15475  0.95290  1.0000
  C   C2903     1.0  0.95435  0.26359  0.77019  1.0000
  H   H2329     1.0  0.65113  0.11434  0.89136  1.0000
  H   H2330     1.0  0.97573  0.24518  0.94356  1.0000
  H   H2331     1.0  0.56590  0.18153  0.90355  1.0000
  H   H2332     1.0  0.95625  0.19405  0.79628  1.0000
  C   C2904     1.0  0.57793  0.11810  0.96479  1.0000
  C   C2905     1.0  0.48675  0.25971  0.77275  1.0000
  H   H2333     1.0  0.97404  0.10340  0.90001  1.0000
  H   H2334     1.0  0.53316  0.19664  0.89337  1.0000
  C   C2906     1.0  0.58505  0.28720  0.95532  1.0000
  C   C2907     1.0  0.66613  0.26299  0.96248  1.0000
  C   C2908     1.0  0.60211  0.98242  0.89101  1.0000
  C   C2909     1.0  0.61509  0.03726  0.97047  1.0000
  C   C2910     1.0  0.51194  0.09216  0.86372  1.0000
  P   P94       1.0  0.49584  0.28713  0.73921  1.0000
  H   H2335     1.0  0.74413  0.01392  0.96736  1.0000
  H   H2336     1.0  0.75484  0.14275  0.92640  1.0000
  H   H2337     1.0  0.70050  0.22360  0.93748  1.0000
  H   H2338     1.0  0.50600  0.00387  0.74533  1.0000
  C   C2911     1.0  0.97914  0.28308  0.80209  1.0000
  C   C2912     1.0  0.86050  0.30498  0.93528  1.0000
  H   H2339     1.0  0.58163  0.30308  0.95446  1.0000
  C   C2913     1.0  0.96489  0.20811  0.92079  1.0000
  H   H2340     1.0  0.85756  0.29082  0.94353  1.0000
  H   H2341     1.0  0.96990  0.22339  0.80309  1.0000
  C   C2914     1.0  0.54197  0.98133  0.76229  1.0000
  H   H2342     1.0  0.48859  0.02064  0.77323  1.0000
  H   H2343     1.0  0.55624  0.30694  0.75834  1.0000
  C   C2915     1.0  0.61443  0.06846  0.82133  1.0000
  C   C2916     1.0  0.96411  0.29041  0.81641  1.0000
  C   C2917     1.0  0.70814  0.14268  0.96591  1.0000
  P   P95       1.0  0.97848  0.29075  0.77582  1.0000
  S   S396      1.0  0.49485  0.12754  0.87532  1.0000
  C   C2918     1.0  0.57000  0.27503  0.95761  1.0000
  H   H2344     1.0  0.76989  0.04045  0.93895  1.0000
  C   C2919     1.0  0.74185  0.14309  0.93747  1.0000
  C   C2920     1.0  0.89316  0.24805  0.97446  1.0000
  C   C2921     1.0  0.48640  0.09515  0.94936  1.0000
  H   H2345     1.0  0.66914  0.16311  0.78832  1.0000
  H   H2346     1.0  0.65428  0.06702  0.79716  1.0000
  C   C2922     1.0  0.80856  0.02343  0.97131  1.0000
  C   C2923     1.0  0.98114  0.27083  0.84266  1.0000
  C   C2924     1.0  0.97617  0.23544  0.93244  1.0000
  H   H2347     1.0  0.59410  0.04983  0.81529  1.0000
  C   C2925     1.0  0.69024  0.03859  0.82155  1.0000
  C   C2926     1.0  0.64688  0.10464  0.86405  1.0000
  C   C2927     1.0  0.64896  0.17750  0.94979  1.0000
  C   C2928     1.0  0.63339  0.00423  0.97299  1.0000
  H   H2348     1.0  0.64052  0.16460  0.81501  1.0000
  C   C2929     1.0  0.54291  0.28222  0.91847  1.0000
  H   H2349     1.0  0.92198  0.18252  0.90271  1.0000
  H   H2350     1.0  0.70151  0.02591  0.81996  1.0000
  C   C2930     1.0  0.55767  0.15204  0.91050  1.0000
  C   C2931     1.0  0.49275  0.09330  0.92939  1.0000
  C   C2932     1.0  0.66349  0.06180  0.80885  1.0000
  C   C2933     1.0  0.73862  0.23067  0.96090  1.0000
  C   C2934     1.0  0.92079  0.19323  0.94960  1.0000
  H   H2351     1.0  0.52035  0.16210  0.94480  1.0000
  H   H2352     1.0  0.95404  0.29076  0.84759  1.0000
  C   C2935     1.0  0.77474  0.02595  0.91291  1.0000
  H   H2353     1.0  0.67408  0.09970  0.79651  1.0000
  H   H2354     1.0  0.94249  0.27226  0.77866  1.0000
  C   C2936     1.0  0.62776  0.00124  0.95500  1.0000
  P   P96       1.0  0.78645  0.01240  0.97037  1.0000
  H   H2355     1.0  0.50985  0.23990  0.92951  1.0000
  C   C2937     1.0  0.62533  0.09920  0.89507  1.0000
  H   H2356     1.0  0.60486  0.10062  0.97313  1.0000
  H   H2357     1.0  0.58192  0.08341  0.92459  1.0000
  C   C2938     1.0  0.78470  0.01055  0.94473  1.0000
  H   H2358     1.0  0.95153  0.30081  0.81222  1.0000
  H   H2359     1.0  0.94413  0.16232  0.92537  1.0000
  C   C2939     1.0  0.92676  0.23629  0.96020  1.0000
  H   H2360     1.0  0.58397  0.11101  0.79068  1.0000
  H   H2361     1.0  0.91475  0.28586  0.94616  1.0000
  S   S397      1.0  0.96669  0.13241  0.82402  1.0000
  C   C2940     1.0  0.66393  0.14955  0.79600  1.0000
  C   C2941     1.0  0.96671  0.12285  0.93961  1.0000
  H   H2362     1.0  0.56386  0.24488  0.95954  1.0000
  C   C2942     1.0  0.75951  0.09885  0.96579  1.0000
  C   C2943     1.0  0.72089  0.23488  0.95251  1.0000
  C   C2944     1.0  0.66063  0.07110  0.82608  1.0000
  C   C2945     1.0  0.53822  0.05577  0.74756  1.0000
  H   H2363     1.0  0.52584  0.09817  0.86220  1.0000
  C   C2946     1.0  0.53608  0.27537  0.93815  1.0000
  H   H2364     1.0  0.55252  0.29373  0.91521  1.0000
  H   H2365     1.0  0.78173  0.00806  0.88909  1.0000
  C   C2947     1.0  0.66660  0.11370  0.80076  1.0000
  C   C2948     1.0  0.51896  0.05072  0.75289  1.0000
  C   C2949     1.0  0.96297  0.10631  0.75355  1.0000
  C   C2950     1.0  0.83068  0.04800  0.95777  1.0000
  H   H2366     1.0  0.55627  0.02127  0.73149  1.0000
  H   H2367     1.0  0.65997  0.11045  0.85588  1.0000
  H   H2368     1.0  0.59430  0.98496  0.87808  1.0000
  C   C2951     1.0  0.73953  0.15507  0.95271  1.0000
  H   H2369     1.0  0.60090  0.04644  0.94408  1.0000
  Fe  Fe199     1.0  0.48999  0.30316  0.87506  1.0000
  H   H2370     1.0  0.96553  0.29652  0.94192  1.0000
  Fe  Fe200     1.0  0.97674  0.10364  0.84202  1.0000
  H   H2371     1.0  0.69924  0.12186  0.94949  1.0000
  C   C2952     1.0  0.68756  0.04782  0.83867  1.0000
  C   C2953     1.0  0.92872  0.25557  0.95068  1.0000
  H   H2372     1.0  0.93053  0.18270  0.86631  1.0000
  C   C2954     1.0  0.52080  0.16909  0.89909  1.0000
  H   H2373     1.0  0.71240  0.24952  0.95242  1.0000
  C   C2955     1.0  0.95040  0.24667  0.76327  1.0000
  C   C2956     1.0  0.94725  0.11960  0.93826  1.0000
  H   H2374     1.0  0.62266  0.05641  0.82994  1.0000
  C   C2957     1.0  0.63396  0.18727  0.96229  1.0000
  H   H2375     1.0  0.95221  0.30111  0.74456  1.0000
  C   C2958     1.0  0.94523  0.10064  0.97092  1.0000
  H   H2376     1.0  0.65744  0.23473  0.96084  1.0000
  C   C2959     1.0  0.64782  0.15039  0.81105  1.0000
  C   C2960     1.0  0.66890  0.17787  0.95164  1.0000
  P   P97       1.0  0.64146  0.09198  0.82879  1.0000
  H   H2377     1.0  0.79316  0.18535  0.96101  1.0000
  C   C2961     1.0  0.96992  0.15083  0.88149  1.0000
  H   H2378     1.0  0.61281  0.01573  0.92990  1.0000
  H   H2379     1.0  0.52285  0.29685  0.76540  1.0000
  H   H2380     1.0  0.50660  0.17557  0.89438  1.0000
  C   C2962     1.0  0.95747  0.16252  0.86871  1.0000
  H   H2381     1.0  0.55234  0.20655  0.95878  1.0000
  C   C2963     1.0  0.60500  0.27888  0.95383  1.0000
  C   C2964     1.0  0.84250  0.04116  0.97288  1.0000
  H   H2382     1.0  0.48858  0.25161  0.97296  1.0000
  C   C2965     1.0  0.52456  0.25970  0.94210  1.0000
  S   S398      1.0  0.96958  0.12407  0.76699  1.0000
  H   H2383     1.0  0.74391  0.24211  0.96721  1.0000
  Fe  Fe201     1.0  0.98116  0.11776  0.79726  1.0000
  C   C2966     1.0  0.65055  0.11441  0.81603  1.0000
  C   C2967     1.0  0.72518  0.20142  0.94416  1.0000
  H   H2384     1.0  0.96252  0.22205  0.74725  1.0000
  C   C2968     1.0  0.96481  0.10326  0.97216  1.0000
  C   C2969     1.0  0.67280  0.06398  0.84098  1.0000
  C   C2970     1.0  0.77061  0.16655  0.97396  1.0000
  H   H2385     1.0  0.91520  0.20624  0.94011  1.0000
  C   C2971     1.0  0.74959  0.21180  0.96109  1.0000
  H   H2386     1.0  0.96106  0.16252  0.85286  1.0000
  H   H2387     1.0  0.68577  0.13059  0.77916  1.0000
  C   C2972     1.0  0.67329  0.13123  0.79085  1.0000
  C   C2973     1.0  0.50926  0.15772  0.95692  1.0000
  P   P98       1.0  0.54416  0.28519  0.95799  1.0000
  C   C2974     1.0  0.59823  0.06468  0.81303  1.0000
  C   C2975     1.0  0.94026  0.17398  0.87630  1.0000
  C   C2976     1.0  0.64110  0.13290  0.82099  1.0000
  C   C2977     1.0  0.60879  0.10299  0.80752  1.0000
  H   H2388     1.0  0.72921  0.12197  0.92460  1.0000
  C   C2978     1.0  0.71417  0.22026  0.94415  1.0000
  C   C2979     1.0  0.54349  0.06506  0.72821  1.0000
  H   H2389     1.0  0.67081  0.07048  0.85462  1.0000
  C   C2980     1.0  0.96375  0.22048  0.93553  1.0000
  C   C2981     1.0  0.59518  0.24617  0.95672  1.0000
  C   C2982     1.0  0.67395  0.27447  0.97376  1.0000
  H   H2390     1.0  0.49182  0.98549  0.84989  1.0000
  H   H2391     1.0  0.64514  0.16942  0.93882  1.0000
  C   C2983     1.0  0.64196  0.10685  0.88414  1.0000
  C   C2984     1.0  0.61997  0.08759  0.81853  1.0000
  H   H2392     1.0  0.93556  0.24238  0.76635  1.0000
  C   C2985     1.0  0.89522  0.26710  0.96482  1.0000
  C   C2986     1.0  0.97669  0.28811  0.95050  1.0000
  H   H2393     1.0  0.79321  0.14572  0.94322  1.0000
  C   C2987     1.0  0.93549  0.17390  0.89676  1.0000
  C   C2988     1.0  0.67036  0.99312  0.92798  1.0000
  C   C2989     1.0  0.94959  0.31284  0.75386  1.0000
  C   C2990     1.0  0.49174  0.99984  0.75249  1.0000
  C   C2991     1.0  0.93459  0.15940  0.97415  1.0000
  S   S399      1.0  0.51791  0.30399  0.85334  1.0000
  Fe  Fe202     1.0  0.82621  0.11387  0.97239  1.0000
  H   H2394     1.0  0.92150  0.10633  0.95268  1.0000
  H   H2395     1.0  0.52088  0.25325  0.89473  1.0000
  H   H2396     1.0  0.49352  0.10405  0.97587  1.0000
  C   C2992     1.0  0.52539  0.25914  0.90687  1.0000
  C   C2993     1.0  0.72255  0.15474  0.96693  1.0000
  C   C2994     1.0  0.54823  0.99987  0.75603  1.0000
  H   H2397     1.0  0.59912  0.23028  0.95738  1.0000
  H   H2398     1.0  0.62549  0.25208  0.95363  1.0000
  H   H2399     1.0  0.83456  0.06023  0.94668  1.0000
  C   C2995     1.0  0.97560  0.11413  0.95646  1.0000
  C   C2996     1.0  0.49864  0.10211  0.96052  1.0000
  C   C2997     1.0  0.48849  0.27962  0.76534  1.0000
  C   C2998     1.0  0.81376  0.03922  0.95698  1.0000
  C   C2999     1.0  0.54933  0.30323  0.74645  1.0000
  H   H2400     1.0  0.48978  0.20361  0.97251  1.0000
  H   H2401     1.0  0.97953  0.20058  0.89236  1.0000
  C   C3000     1.0  0.97843  0.21043  0.90351  1.0000
  H   H2402     1.0  0.69503  0.14245  0.97688  1.0000
  C   C3001     1.0  0.91975  0.30396  0.89369  1.0000
  H   H2403     1.0  0.96373  0.28262  0.90946  1.0000
  C   C3002     1.0  0.55191  0.00665  0.73583  1.0000
  H   H2404     1.0  0.96996  0.16547  0.74198  1.0000
  C   C3003     1.0  0.53839  0.21018  0.96799  1.0000
  H   H2405     1.0  0.98325  0.14217  0.87524  1.0000
  C   C3004     1.0  0.97187  0.28319  0.97105  1.0000
  C   C3005     1.0  0.91863  0.15912  0.96377  1.0000
  H   H2406     1.0  0.85560  0.04799  0.97354  1.0000
  C   C3006     1.0  0.96007  0.31174  0.77013  1.0000
  C   C3007     1.0  0.63886  0.19722  0.97680  1.0000
  H   H2407     1.0  0.52021  0.25338  0.95716  1.0000
  C   C3008     1.0  0.74581  0.02569  0.97557  1.0000
  H   H2408     1.0  0.88335  0.27914  0.96719  1.0000
  C   C3009     1.0  0.79164  0.99242  0.91617  1.0000
  C   C3010     1.0  0.79276  0.99332  0.93616  1.0000
  C   C3011     1.0  0.53984  0.31193  0.95522  1.0000
  C   C3012     1.0  0.98460  0.18001  0.78392  1.0000
  C   C3013     1.0  0.98324  0.16516  0.73119  1.0000
  C   C3014     1.0  0.50303  0.20841  0.97597  1.0000
  C   C3015     1.0  0.98515  0.02030  0.72833  1.0000
  C   C3016     1.0  0.98476  0.24060  0.74874  1.0000
  H   H2409     1.0  0.57542  0.98661  0.91149  1.0000
  C   C3017     1.0  0.98101  0.21587  0.97793  1.0000
  H   H2410     1.0  0.59316  0.98276  0.94084  1.0000
  C   C3018     1.0  0.60160  0.98104  0.92646  1.0000
  Fe  Fe203     1.0  0.65413  0.45556  0.12574  1.0000
  S   S400      1.0  0.62681  0.45563  0.11136  1.0000
  S   S401      1.0  0.66152  0.43608  0.15416  1.0000
  Fe  Fe204     1.0  0.67231  0.48501  0.09218  1.0000
  S   S402      1.0  0.64555  0.48789  0.07578  1.0000
  S   S403      1.0  0.69954  0.49847  0.07508  1.0000
  Fe  Fe205     1.0  0.62704  0.48881  0.10560  1.0000
  S   S404      1.0  0.59786  0.50733  0.11585  1.0000
  Fe  Fe206     1.0  0.64731  0.45465  0.08258  1.0000
  S   S405      1.0  0.65082  0.43598  0.05704  1.0000
  S   S406      1.0  0.65354  0.48867  0.12160  1.0000
  S   S407      1.0  0.67477  0.45189  0.09750  1.0000
  C   C3019     1.0  0.79184  0.38714  0.10407  1.0000
  H   H2411     1.0  0.82501  0.40723  0.99673  1.0000
  C   C3020     1.0  0.98175  0.45637  0.15191  1.0000
  H   H2412     1.0  0.55359  0.62773  0.07396  1.0000
  Fe  Fe207     1.0  0.51987  0.59627  0.08993  1.0000
  S   S408      1.0  0.54628  0.58075  0.07170  1.0000
  S   S409      1.0  0.52399  0.61463  0.11292  1.0000
  Fe  Fe208     1.0  0.61763  0.34982  0.01013  1.0000
  S   S410      1.0  0.64117  0.32328  0.01080  1.0000
  S   S411      1.0  0.60779  0.36651  0.03707  1.0000
  S   S412      1.0  0.59640  0.33388  0.99800  1.0000
  Fe  Fe209     1.0  0.92806  0.39562  0.18645  1.0000
  S   S413      1.0  0.92177  0.42712  0.17253  1.0000
  Fe  Fe210     1.0  0.93770  0.37985  0.14535  1.0000
  S   S414      1.0  0.93200  0.41062  0.12933  1.0000
  S   S415      1.0  0.94907  0.35548  0.12527  1.0000
  Fe  Fe211     1.0  0.94908  0.42027  0.15097  1.0000
  Fe  Fe212     1.0  0.90552  0.41463  0.15241  1.0000
  S   S416      1.0  0.87477  0.42847  0.14633  1.0000
  S   S417      1.0  0.95667  0.38915  0.16589  1.0000
  S   S418      1.0  0.90996  0.38337  0.16731  1.0000
  Fe  Fe213     1.0  0.80850  0.53177  0.07133  1.0000
  S   S419      1.0  0.83038  0.50464  0.06610  1.0000
  S   S420      1.0  0.77930  0.52747  0.09165  1.0000
  Fe  Fe214     1.0  0.83886  0.56039  0.05155  1.0000
  S   S421      1.0  0.86171  0.53495  0.04402  1.0000
  S   S422      1.0  0.84969  0.59101  0.04313  1.0000
  Fe  Fe215     1.0  0.83745  0.52059  0.03553  1.0000
  S   S423      1.0  0.84719  0.50257  0.00965  1.0000
  Fe  Fe216     1.0  0.85274  0.52113  0.07483  1.0000
  S   S424      1.0  0.87915  0.50952  0.09086  1.0000
  S   S425      1.0  0.81468  0.54747  0.04008  1.0000
  S   S426      1.0  0.83070  0.54696  0.08291  1.0000
  H   H2413     1.0  0.97907  0.53087  0.17894  1.0000
  Fe  Fe217     1.0  0.50081  0.63722  0.09992  1.0000
  H   H2414     1.0  0.70249  0.35958  0.10816  1.0000
  H   H2415     1.0  0.79199  0.43730  0.12321  1.0000
  C   C3021     1.0  0.86469  0.60264  0.05596  1.0000
  C   C3022     1.0  0.86731  0.59634  0.07581  1.0000
  C   C3023     1.0  0.87877  0.60634  0.08555  1.0000
  C   C3024     1.0  0.90430  0.56613  0.05329  1.0000
  C   C3025     1.0  0.65403  0.37972  0.13472  1.0000
  C   C3026     1.0  0.87400  0.61891  0.04597  1.0000
  H   H2416     1.0  0.86031  0.58389  0.08371  1.0000
  H   H2417     1.0  0.88045  0.60145  0.10093  1.0000
  H   H2418     1.0  0.91165  0.41631  0.03480  1.0000
  H   H2419     1.0  0.87204  0.62402  0.03066  1.0000
  H   H2420     1.0  0.50050  0.48229  0.08183  1.0000
  C   C3027     1.0  0.81146  0.48896  0.00792  1.0000
  C   C3028     1.0  0.83167  0.48848  0.00071  1.0000
  S   S427      1.0  0.63010  0.36410  0.98025  1.0000
  H   H2421     1.0  0.80502  0.49787  0.01955  1.0000
  C   C3029     1.0  0.52759  0.52905  0.08098  1.0000
  C   C3030     1.0  0.50777  0.49772  0.19695  1.0000
  H   H2422     1.0  0.74268  0.33952  0.06386  1.0000
  C   C3031     1.0  0.96800  0.54504  0.03043  1.0000
  C   C3032     1.0  0.95077  0.59230  0.12979  1.0000
  C   C3033     1.0  0.94157  0.56356  0.15214  1.0000
  C   C3034     1.0  0.87739  0.48711  0.10623  1.0000
  C   C3035     1.0  0.85895  0.48131  0.11453  1.0000
  C   C3036     1.0  0.85813  0.46334  0.12718  1.0000
  C   C3037     1.0  0.87572  0.45118  0.13119  1.0000
  C   C3038     1.0  0.89407  0.45716  0.12297  1.0000
  C   C3039     1.0  0.89489  0.47512  0.11055  1.0000
  H   H2423     1.0  0.84540  0.49070  0.11128  1.0000
  H   H2424     1.0  0.84390  0.45879  0.13369  1.0000
  H   H2425     1.0  0.90768  0.44796  0.12615  1.0000
  H   H2426     1.0  0.90912  0.47962  0.10403  1.0000
  C   C3040     1.0  0.93662  0.34153  0.11217  1.0000
  H   H2427     1.0  0.93870  0.46564  0.18007  1.0000
  C   C3041     1.0  0.91606  0.34109  0.11579  1.0000
  H   H2428     1.0  0.49840  0.54278  0.09139  1.0000
  H   H2429     1.0  0.90727  0.34940  0.12693  1.0000
  H   H2430     1.0  0.68540  0.40250  0.13533  1.0000
  C   C3042     1.0  0.50866  0.51819  0.11229  1.0000
  H   H2431     1.0  0.95638  0.59190  0.99165  1.0000
  C   C3043     1.0  0.97239  0.53249  0.19402  1.0000
  H   H2432     1.0  0.72088  0.50688  0.00160  1.0000
  C   C3044     1.0  0.72199  0.50549  0.08034  1.0000
  C   C3045     1.0  0.72506  0.50766  0.09949  1.0000
  C   C3046     1.0  0.74267  0.51438  0.10263  1.0000
  C   C3047     1.0  0.75756  0.51873  0.08676  1.0000
  C   C3048     1.0  0.75475  0.51597  0.06769  1.0000
  C   C3049     1.0  0.73700  0.50958  0.06450  1.0000
  H   H2433     1.0  0.71368  0.50463  0.11181  1.0000
  H   H2434     1.0  0.74471  0.51638  0.11745  1.0000
  H   H2435     1.0  0.76607  0.51916  0.05534  1.0000
  H   H2436     1.0  0.73483  0.50799  0.04961  1.0000
  C   C3050     1.0  0.63741  0.41791  0.05108  1.0000
  C   C3051     1.0  0.61977  0.41272  0.06238  1.0000
  C   C3052     1.0  0.61081  0.39706  0.05783  1.0000
  C   C3053     1.0  0.61916  0.38663  0.04181  1.0000
  C   C3054     1.0  0.63655  0.39209  0.03034  1.0000
  C   C3055     1.0  0.64552  0.40767  0.03494  1.0000
  H   H2437     1.0  0.61319  0.42053  0.07475  1.0000
  H   H2438     1.0  0.59734  0.39296  0.06680  1.0000
  H   H2439     1.0  0.64322  0.38418  0.01805  1.0000
  H   H2440     1.0  0.65902  0.41168  0.02604  1.0000
  C   C3056     1.0  0.58420  0.52791  0.10306  1.0000
  C   C3057     1.0  0.56640  0.53663  0.11303  1.0000
  C   C3058     1.0  0.55486  0.55296  0.10365  1.0000
  C   C3059     1.0  0.56085  0.56056  0.08402  1.0000
  C   C3060     1.0  0.57858  0.55181  0.07396  1.0000
  C   C3061     1.0  0.59031  0.53559  0.08347  1.0000
  H   H2441     1.0  0.56127  0.53046  0.12796  1.0000
  H   H2442     1.0  0.54112  0.55941  0.11148  1.0000
  H   H2443     1.0  0.58325  0.55758  0.05875  1.0000
  H   H2444     1.0  0.60395  0.52896  0.07562  1.0000
  C   C3062     1.0  0.51474  0.51983  0.15959  1.0000
  C   C3063     1.0  0.60928  0.43744  0.19126  1.0000
  C   C3064     1.0  0.62357  0.44105  0.17463  1.0000
  C   C3065     1.0  0.64354  0.43356  0.17546  1.0000
  C   C3066     1.0  0.64925  0.42319  0.19336  1.0000
  C   C3067     1.0  0.54299  0.51388  0.08496  1.0000
  H   H2445     1.0  0.59379  0.44280  0.19029  1.0000
  H   H2446     1.0  0.61919  0.44934  0.16104  1.0000
  H   H2447     1.0  0.66470  0.41740  0.19417  1.0000
  C   C3068     1.0  0.97494  0.57492  0.07525  1.0000
  H   H2448     1.0  0.90226  0.46544  0.18384  1.0000
  C   C3069     1.0  0.86075  0.39321  0.11594  1.0000
  C   C3070     1.0  0.86750  0.37512  0.10884  1.0000
  C   C3071     1.0  0.86739  0.37348  0.08889  1.0000
  C   C3072     1.0  0.86042  0.38993  0.07603  1.0000
  C   C3073     1.0  0.85306  0.40812  0.08314  1.0000
  C   C3074     1.0  0.85362  0.40964  0.10318  1.0000
  P   P99       1.0  0.84629  0.42995  0.06598  1.0000
  C   C3075     1.0  0.86633  0.44499  0.06132  1.0000
  C   C3076     1.0  0.84058  0.42228  0.04373  1.0000
  C   C3077     1.0  0.84844  0.43061  0.02485  1.0000
  H   H2449     1.0  0.54122  0.42795  0.21539  1.0000
  H   H2450     1.0  0.68644  0.38543  0.06542  1.0000
  C   C3078     1.0  0.82164  0.40304  0.02840  1.0000
  C   C3079     1.0  0.82724  0.40834  0.04539  1.0000
  C   C3080     1.0  0.86343  0.46408  0.05082  1.0000
  C   C3081     1.0  0.87778  0.47685  0.04911  1.0000
  C   C3082     1.0  0.89503  0.47080  0.05808  1.0000
  C   C3083     1.0  0.89823  0.45171  0.06828  1.0000
  C   C3084     1.0  0.88400  0.43879  0.06985  1.0000
  C   C3085     1.0  0.82461  0.44560  0.07610  1.0000
  C   C3086     1.0  0.82614  0.45630  0.09150  1.0000
  C   C3087     1.0  0.81001  0.46931  0.09884  1.0000
  C   C3088     1.0  0.79234  0.47226  0.09045  1.0000
  C   C3089     1.0  0.79082  0.46231  0.07462  1.0000
  C   C3090     1.0  0.80682  0.44900  0.06747  1.0000
  H   H2451     1.0  0.86155  0.39468  0.13127  1.0000
  H   H2452     1.0  0.87323  0.36248  0.11873  1.0000
  H   H2453     1.0  0.87321  0.35953  0.08332  1.0000
  H   H2454     1.0  0.86131  0.38843  0.06049  1.0000
  H   H2455     1.0  0.84923  0.42356  0.10903  1.0000
  H   H2456     1.0  0.85838  0.44168  0.02306  1.0000
  C   C3091     1.0  0.92509  0.56351  0.14228  1.0000
  C   C3092     1.0  0.64534  0.39798  0.12601  1.0000
  H   H2457     1.0  0.81138  0.39231  0.02943  1.0000
  H   H2458     1.0  0.82097  0.40192  0.05988  1.0000
  H   H2459     1.0  0.84981  0.46934  0.04436  1.0000
  H   H2460     1.0  0.87520  0.49169  0.04129  1.0000
  H   H2461     1.0  0.90563  0.48112  0.05754  1.0000
  H   H2462     1.0  0.91139  0.44717  0.07564  1.0000
  H   H2463     1.0  0.88665  0.42432  0.07833  1.0000
  H   H2464     1.0  0.84012  0.45528  0.09721  1.0000
  H   H2465     1.0  0.81145  0.47782  0.11047  1.0000
  H   H2466     1.0  0.78005  0.48274  0.09582  1.0000
  H   H2467     1.0  0.77737  0.46532  0.06761  1.0000
  H   H2468     1.0  0.80527  0.44210  0.05480  1.0000
  C   C3093     1.0  0.96586  0.55132  0.19967  1.0000
  C   C3094     1.0  0.88564  0.62880  0.05566  1.0000
  S   S428      1.0  0.81311  0.36070  0.99714  1.0000
  Fe  Fe218     1.0  0.65273  0.33677  0.98018  1.0000
  H   H2469     1.0  0.51772  0.45968  0.11162  1.0000
  H   H2470     1.0  0.92159  0.38245  0.08757  1.0000
  P   P100      1.0  0.59646  0.62923  0.07171  1.0000
  C   C3095     1.0  0.57717  0.64440  0.05898  1.0000
  C   C3096     1.0  0.60596  0.60788  0.05904  1.0000
  C   C3097     1.0  0.60240  0.60752  0.03953  1.0000
  C   C3098     1.0  0.60947  0.59077  0.03002  1.0000
  C   C3099     1.0  0.62015  0.57428  0.03989  1.0000
  C   C3100     1.0  0.62379  0.57452  0.05927  1.0000
  C   C3101     1.0  0.61677  0.59125  0.06881  1.0000
  C   C3102     1.0  0.70676  0.34446  0.10502  1.0000
  C   C3103     1.0  0.58579  0.62115  0.09675  1.0000
  C   C3104     1.0  0.57865  0.60271  0.10142  1.0000
  C   C3105     1.0  0.57035  0.59647  0.12073  1.0000
  H   H2471     1.0  0.57354  0.63703  0.14219  1.0000
  C   C3106     1.0  0.93853  0.47302  0.20940  1.0000
  C   C3107     1.0  0.97661  0.55853  0.03882  1.0000
  H   H2472     1.0  0.93281  0.61015  0.06210  1.0000
  H   H2473     1.0  0.97321  0.52118  0.01255  1.0000
  C   C3108     1.0  0.72464  0.33414  0.11062  1.0000
  C   C3109     1.0  0.55147  0.45453  0.19899  1.0000
  H   H2474     1.0  0.59404  0.62005  0.03167  1.0000
  H   H2475     1.0  0.60651  0.59048  0.01505  1.0000
  H   H2476     1.0  0.62543  0.56122  0.03260  1.0000
  H   H2477     1.0  0.63183  0.56162  0.06701  1.0000
  H   H2478     1.0  0.61960  0.59111  0.08390  1.0000
  C   C3110     1.0  0.97134  0.60635  0.02461  1.0000
  H   H2479     1.0  0.52839  0.63119  0.00044  1.0000
  H   H2480     1.0  0.73712  0.40027  0.04637  1.0000
  C   C3111     1.0  0.93713  0.56786  0.06171  1.0000
  C   C3112     1.0  0.88794  0.62271  0.07563  1.0000
  C   C3113     1.0  0.94787  0.33031  0.09782  1.0000
  H   H2481     1.0  0.97442  0.32212  0.03353  1.0000
  C   C3114     1.0  0.68059  0.41605  0.98366  1.0000
  H   H2482     1.0  0.66674  0.63948  0.07040  1.0000
  C   C3115     1.0  0.71730  0.39713  0.13349  1.0000
  H   H2483     1.0  0.49096  0.44059  0.10812  1.0000
  C   C3116     1.0  0.69471  0.33536  0.09527  1.0000
  H   H2484     1.0  0.68227  0.34100  0.01608  1.0000
  H   H2485     1.0  0.92625  0.58140  0.03414  1.0000
  H   H2486     1.0  0.96740  0.56428  0.18879  1.0000
  Fe  Fe219     1.0  0.49857  0.60038  0.13132  1.0000
  C   C3117     1.0  0.76437  0.37847  0.07234  1.0000
  C   C3118     1.0  0.93711  0.48597  0.12895  1.0000
  C   C3119     1.0  0.95780  0.55341  0.21936  1.0000
  H   H2487     1.0  0.52918  0.53944  0.06752  1.0000
  C   C3120     1.0  0.63008  0.50383  0.22078  1.0000
  C   C3121     1.0  0.90702  0.32926  0.10555  1.0000
  H   H2488     1.0  0.87897  0.32544  0.05772  1.0000
  C   C3122     1.0  0.87441  0.37306  0.01985  1.0000
  C   C3123     1.0  0.78756  0.35657  0.05241  1.0000
  C   C3124     1.0  0.56877  0.51704  0.19819  1.0000
  C   C3125     1.0  0.58265  0.51487  0.18119  1.0000
  C   C3126     1.0  0.58131  0.52858  0.16414  1.0000
  C   C3127     1.0  0.56607  0.54450  0.16386  1.0000
  C   C3128     1.0  0.55209  0.54669  0.18060  1.0000
  C   C3129     1.0  0.55335  0.53300  0.19773  1.0000
  H   H2489     1.0  0.92558  0.51705  0.21727  1.0000
  C   C3130     1.0  0.50587  0.51837  0.19519  1.0000
  H   H2490     1.0  0.95210  0.54464  0.03288  1.0000
  H   H2491     1.0  0.83075  0.32477  0.01835  1.0000
  H   H2492     1.0  0.56306  0.48150  0.18648  1.0000
  H   H2493     1.0  0.51396  0.47212  0.18158  1.0000
  H   H2494     1.0  0.56466  0.58236  0.12404  1.0000
  H   H2495     1.0  0.67281  0.33020  0.05154  1.0000
  C   C3131     1.0  0.65136  0.64625  0.07184  1.0000
  H   H2496     1.0  0.50523  0.48915  0.21147  1.0000
  C   C3132     1.0  0.63624  0.63500  0.07085  1.0000
  H   H2497     1.0  0.63684  0.35214  0.06725  1.0000
  H   H2498     1.0  0.50581  0.50470  0.05037  1.0000
  H   H2499     1.0  0.83554  0.46192  0.20258  1.0000
  H   H2500     1.0  0.59452  0.50253  0.18107  1.0000
  H   H2501     1.0  0.59207  0.52680  0.15105  1.0000
  H   H2502     1.0  0.56499  0.55503  0.15058  1.0000
  H   H2503     1.0  0.54015  0.55895  0.18014  1.0000
  H   H2504     1.0  0.54224  0.53492  0.21043  1.0000
  H   H2505     1.0  0.52541  0.60594  0.03022  1.0000
  H   H2506     1.0  0.84676  0.33834  0.04582  1.0000
  C   C3133     1.0  0.85652  0.41490  0.19687  1.0000
  C   C3134     1.0  0.49725  0.63451  0.99705  1.0000
  C   C3135     1.0  0.66221  0.36483  0.12297  1.0000
  C   C3136     1.0  0.96318  0.51759  0.22763  1.0000
  P   P101      1.0  0.75875  0.40106  0.08390  1.0000
  C   C3137     1.0  0.73552  0.40053  0.10028  1.0000
  C   C3138     1.0  0.77791  0.40342  0.09847  1.0000
  C   C3139     1.0  0.77805  0.42149  0.10553  1.0000
  C   C3140     1.0  0.79208  0.42334  0.11770  1.0000
  C   C3141     1.0  0.51406  0.62644  0.00628  1.0000
  C   C3142     1.0  0.68315  0.35062  0.02695  1.0000
  C   C3143     1.0  0.61627  0.64367  0.07254  1.0000
  C   C3144     1.0  0.90022  0.40918  0.99001  1.0000
  C   C3145     1.0  0.57524  0.62732  0.13088  1.0000
  H   H2507     1.0  0.96379  0.33041  0.09493  1.0000
  C   C3146     1.0  0.75660  0.42283  0.06544  1.0000
  C   C3147     1.0  0.74297  0.43960  0.06951  1.0000
  C   C3148     1.0  0.74075  0.45609  0.05507  1.0000
  C   C3149     1.0  0.75241  0.45626  0.03660  1.0000
  C   C3150     1.0  0.76635  0.43992  0.03254  1.0000
  C   C3151     1.0  0.76846  0.42329  0.04688  1.0000
  H   H2508     1.0  0.76715  0.43412  0.10189  1.0000
  C   C3152     1.0  0.98075  0.32122  0.00207  1.0000
  H   H2509     1.0  0.64029  0.61963  0.06865  1.0000
  H   H2510     1.0  0.49519  0.51997  0.12262  1.0000
  H   H2511     1.0  0.71715  0.39481  0.14944  1.0000
  H   H2512     1.0  0.73493  0.36942  0.08045  1.0000
  C   C3153     1.0  0.90660  0.40427  0.00882  1.0000
  C   C3154     1.0  0.54624  0.44193  0.21626  1.0000
  H   H2513     1.0  0.73391  0.44010  0.08379  1.0000
  H   H2514     1.0  0.72998  0.46883  0.05823  1.0000
  H   H2515     1.0  0.75067  0.46909  0.02545  1.0000
  H   H2516     1.0  0.77542  0.44012  0.01816  1.0000
  H   H2517     1.0  0.77910  0.41081  0.04314  1.0000
  C   C3155     1.0  0.93487  0.59187  0.11941  1.0000
  H   H2518     1.0  0.90876  0.62466  0.16560  1.0000
  C   C3156     1.0  0.68945  0.36914  0.02071  1.0000
  C   C3157     1.0  0.94569  0.50319  0.12168  1.0000
  C   C3158     1.0  0.68534  0.37557  0.05490  1.0000
  C   C3159     1.0  0.67829  0.35726  0.06123  1.0000
  C   C3160     1.0  0.67769  0.34463  0.04710  1.0000
  C   C3161     1.0  0.50169  0.47265  0.13712  1.0000
  H   H2519     1.0  0.69336  0.37383  0.00503  1.0000
  C   C3162     1.0  0.74975  0.36601  0.07293  1.0000
  H   H2520     1.0  0.84911  0.43141  0.99335  1.0000
  H   H2521     1.0  0.94665  0.39155  0.98848  1.0000
  H   H2522     1.0  0.92826  0.64420  0.04511  1.0000
  C   C3163     1.0  0.65238  0.33359  0.09000  1.0000
  C   C3164     1.0  0.54138  0.50098  0.10271  1.0000
  H   H2523     1.0  0.63328  0.45348  0.99394  1.0000
  C   C3165     1.0  0.89278  0.36595  0.02667  1.0000
  C   C3166     1.0  0.66524  0.44823  0.99212  1.0000
  C   C3167     1.0  0.98448  0.32575  0.02015  1.0000
  C   C3168     1.0  0.61490  0.42681  0.20909  1.0000
  H   H2524     1.0  0.92432  0.56815  0.19921  1.0000
  C   C3169     1.0  0.70463  0.46197  0.00398  1.0000
  C   C3170     1.0  0.72143  0.41998  0.00216  1.0000
  C   C3171     1.0  0.72969  0.40433  0.99138  1.0000
  C   C3172     1.0  0.74034  0.38733  0.00035  1.0000
  C   C3173     1.0  0.74318  0.38594  0.02013  1.0000
  C   C3174     1.0  0.73516  0.40148  0.03100  1.0000
  C   C3175     1.0  0.72454  0.41858  0.02206  1.0000
  C   C3176     1.0  0.69255  0.46193  0.02236  1.0000
  C   C3177     1.0  0.69078  0.47791  0.03311  1.0000
  C   C3178     1.0  0.70089  0.49413  0.02556  1.0000
  C   C3179     1.0  0.71296  0.49432  0.00735  1.0000
  H   H2525     1.0  0.94338  0.42019  0.22267  1.0000
  H   H2526     1.0  0.52551  0.61200  0.21057  1.0000
  C   C3180     1.0  0.92487  0.58393  0.19659  1.0000
  C   C3181     1.0  0.69938  0.40462  0.10502  1.0000
  H   H2527     1.0  0.89230  0.64148  0.04781  1.0000
  C   C3182     1.0  0.80608  0.38918  0.11596  1.0000
  H   H2528     1.0  0.63033  0.42040  0.98534  1.0000
  H   H2529     1.0  0.60991  0.33162  0.07061  1.0000
  H   H2530     1.0  0.94310  0.47224  0.12314  1.0000
  S   S429      1.0  0.90132  0.63526  0.08928  1.0000
  C   C3183     1.0  0.68244  0.43455  0.98898  1.0000
  C   C3184     1.0  0.83979  0.47691  0.98552  1.0000
  H   H2531     1.0  0.74677  0.37543  0.99177  1.0000
  H   H2532     1.0  0.75175  0.37288  0.02685  1.0000
  H   H2533     1.0  0.85778  0.51373  0.22078  1.0000
  S   S430      1.0  0.95701  0.64227  0.14931  1.0000
  H   H2534     1.0  0.68446  0.44954  0.02841  1.0000
  H   H2535     1.0  0.68158  0.47770  0.04736  1.0000
  H   H2536     1.0  0.69939  0.50658  0.03386  1.0000
  H   H2537     1.0  0.85536  0.47663  0.97974  1.0000
  H   H2538     1.0  0.92712  0.64051  0.18576  1.0000
  C   C3185     1.0  0.71481  0.47836  0.99654  1.0000
  C   C3186     1.0  0.51243  0.61214  0.02296  1.0000
  H   H2539     1.0  0.71867  0.43040  0.03084  1.0000
  C   C3187     1.0  0.55740  0.64044  0.06354  1.0000
  H   H2540     1.0  0.56158  0.60408  0.15028  1.0000
  H   H2541     1.0  0.97562  0.36532  0.05058  1.0000
  H   H2542     1.0  0.97234  0.60965  0.17697  1.0000
  C   C3188     1.0  0.88536  0.55066  0.20846  1.0000
  C   C3189     1.0  0.91501  0.52687  0.20903  1.0000
  C   C3190     1.0  0.91771  0.52879  0.18832  1.0000
  C   C3191     1.0  0.90416  0.54170  0.17744  1.0000
  C   C3192     1.0  0.88801  0.55271  0.18772  1.0000
  P   P102      1.0  0.90851  0.54507  0.15061  1.0000
  C   C3193     1.0  0.88525  0.55273  0.14045  1.0000
  C   C3194     1.0  0.87688  0.53967  0.13125  1.0000
  C   C3195     1.0  0.85908  0.54585  0.12327  1.0000
  C   C3196     1.0  0.84956  0.56516  0.12409  1.0000
  C   C3197     1.0  0.85785  0.57834  0.13297  1.0000
  C   C3198     1.0  0.87560  0.57219  0.14112  1.0000
  C   C3199     1.0  0.91223  0.50430  0.15044  1.0000
  H   H2543     1.0  0.77623  0.33131  0.04542  1.0000
  H   H2544     1.0  0.93047  0.52028  0.18087  1.0000
  H   H2545     1.0  0.88401  0.52475  0.12985  1.0000
  H   H2546     1.0  0.85282  0.53562  0.11621  1.0000
  H   H2547     1.0  0.83598  0.57002  0.11745  1.0000
  H   H2548     1.0  0.85075  0.59351  0.13307  1.0000
  H   H2549     1.0  0.88202  0.58280  0.14752  1.0000
  H   H2550     1.0  0.90084  0.45087  0.02194  1.0000
  H   H2551     1.0  0.89919  0.50450  0.16147  1.0000
  H   H2552     1.0  0.50811  0.54533  0.17512  1.0000
  C   C3200     1.0  0.56284  0.43699  0.14669  1.0000
  C   C3201     1.0  0.58011  0.44519  0.14729  1.0000
  C   C3202     1.0  0.57945  0.46572  0.14598  1.0000
  C   C3203     1.0  0.56159  0.47808  0.14375  1.0000
  H   H2553     1.0  0.88917  0.45921  0.98903  1.0000
  C   C3204     1.0  0.86030  0.31837  0.00297  1.0000
  H   H2554     1.0  0.56339  0.42104  0.14796  1.0000
  H   H2555     1.0  0.59401  0.43562  0.14879  1.0000
  H   H2556     1.0  0.59285  0.47215  0.14634  1.0000
  H   H2557     1.0  0.56145  0.49398  0.14252  1.0000
  C   C3205     1.0  0.95832  0.60038  0.04149  1.0000
  H   H2558     1.0  0.72409  0.47909  0.98240  1.0000
  H   H2559     1.0  0.78367  0.47946  0.00480  1.0000
  H   H2560     1.0  0.97604  0.50108  0.20362  1.0000
  H   H2561     1.0  0.95709  0.36732  0.02217  1.0000
  C   C3206     1.0  0.54491  0.44930  0.14455  1.0000
  H   H2562     1.0  0.96690  0.57824  0.15362  1.0000
  C   C3207     1.0  0.63502  0.42002  0.21019  1.0000
  C   C3208     1.0  0.80614  0.40725  0.12283  1.0000
  C   C3209     1.0  0.75409  0.34893  0.06350  1.0000
  H   H2563     1.0  0.63929  0.40964  0.13508  1.0000
  H   H2564     1.0  0.65447  0.37722  0.15060  1.0000
  C   C3210     1.0  0.64442  0.40116  0.10563  1.0000
  H   H2565     1.0  0.57912  0.59325  0.09011  1.0000
  H   H2566     1.0  0.97500  0.43835  0.17978  1.0000
  H   H2567     1.0  0.66613  0.46282  0.99567  1.0000
  H   H2568     1.0  0.93215  0.60288  0.10676  1.0000
  C   C3211     1.0  0.84855  0.52779  0.19300  1.0000
  C   C3212     1.0  0.84679  0.52548  0.17354  1.0000
  C   C3213     1.0  0.85290  0.50710  0.16679  1.0000
  C   C3214     1.0  0.86027  0.49089  0.17965  1.0000
  C   C3215     1.0  0.86122  0.49289  0.19952  1.0000
  C   C3216     1.0  0.85611  0.51164  0.20586  1.0000
  H   H2569     1.0  0.63971  0.51532  0.21731  1.0000
  S   S431      1.0  0.49579  0.58068  0.10873  1.0000
  C   C3217     1.0  0.87919  0.43238  0.20930  1.0000
  H   H2570     1.0  0.69348  0.40542  0.98046  1.0000
  C   C3218     1.0  0.82952  0.41138  0.00973  1.0000
  C   C3219     1.0  0.97938  0.62629  0.14827  1.0000
  C   C3220     1.0  0.92683  0.47725  0.22707  1.0000
  H   H2571     1.0  0.80209  0.35309  0.04407  1.0000
  C   C3221     1.0  0.87478  0.41516  0.20338  1.0000
  C   C3222     1.0  0.62158  0.32740  0.08008  1.0000
  C   C3223     1.0  0.90901  0.46887  0.19594  1.0000
  C   C3224     1.0  0.92959  0.46905  0.19375  1.0000
  H   H2572     1.0  0.60384  0.52364  0.21435  1.0000
  C   C3225     1.0  0.59730  0.49353  0.22314  1.0000
  C   C3226     1.0  0.94281  0.61422  0.04882  1.0000
  H   H2573     1.0  0.84406  0.54212  0.19811  1.0000
  H   H2574     1.0  0.84081  0.53797  0.16364  1.0000
  H   H2575     1.0  0.85189  0.50534  0.15156  1.0000
  H   H2576     1.0  0.86511  0.47682  0.17401  1.0000
  C   C3227     1.0  0.79940  0.47846  0.99957  1.0000
  C   C3228     1.0  0.77296  0.34428  0.05315  1.0000
  H   H2577     1.0  0.81701  0.40876  0.13226  1.0000
  H   H2578     1.0  0.66057  0.39661  0.97848  1.0000
  C   C3229     1.0  0.64653  0.44310  0.99088  1.0000
  C   C3230     1.0  0.80749  0.46704  0.98428  1.0000
  H   H2579     1.0  0.95454  0.47256  0.20788  1.0000
  C   C3231     1.0  0.92220  0.57742  0.12547  1.0000
  C   C3232     1.0  0.53452  0.58277  0.22433  1.0000
  H   H2580     1.0  0.63752  0.41521  0.09883  1.0000
  C   C3233     1.0  0.90074  0.43920  0.01303  1.0000
  H   H2581     1.0  0.89978  0.39769  0.98095  1.0000
  C   C3234     1.0  0.56080  0.47737  0.21855  1.0000
  H   H2582     1.0  0.81696  0.37667  0.12007  1.0000
  C   C3235     1.0  0.89883  0.53769  0.21912  1.0000
  H   H2583     1.0  0.95875  0.50258  0.11070  1.0000
  C   C3236     1.0  0.91347  0.55018  0.08498  1.0000
  C   C3237     1.0  0.92028  0.52184  0.14265  1.0000
  H   H2584     1.0  0.68542  0.40807  0.09889  1.0000
  C   C3238     1.0  0.92295  0.57264  0.04838  1.0000
  C   C3239     1.0  0.92598  0.34880  0.99320  1.0000
  P   P103      1.0  0.57120  0.49953  0.22032  1.0000
  C   C3240     1.0  0.64485  0.42450  0.98600  1.0000
  H   H2585     1.0  0.95799  0.37311  0.08318  1.0000
  H   H2586     1.0  0.79163  0.37278  0.09963  1.0000
  S   S432      1.0  0.92079  0.38812  0.22019  1.0000
  C   C3241     1.0  0.91578  0.61580  0.17769  1.0000
  C   C3242     1.0  0.54426  0.47001  0.14265  1.0000
  H   H2587     1.0  0.91019  0.57733  0.11694  1.0000
  C   C3243     1.0  0.93216  0.55674  0.08016  1.0000
  P   P104      1.0  0.67205  0.34883  0.08728  1.0000
  H   H2588     1.0  0.87739  0.56290  0.17989  1.0000
  H   H2589     1.0  0.89347  0.43225  0.21423  1.0000
  H   H2590     1.0  0.89332  0.56996  0.04304  1.0000
  S   S433      1.0  0.50474  0.58691  0.16259  1.0000
  C   C3244     1.0  0.89723  0.47256  0.21380  1.0000
  H   H2591     1.0  0.74904  0.39347  0.12750  1.0000
  H   H2592     1.0  0.55039  0.45031  0.18475  1.0000
  C   C3245     1.0  0.98073  0.59234  0.07953  1.0000
  C   C3246     1.0  0.95296  0.63935  0.02225  1.0000
  C   C3247     1.0  0.78333  0.37345  0.06212  1.0000
  C   C3248     1.0  0.84666  0.44899  0.20276  1.0000
  C   C3249     1.0  0.93877  0.31883  0.08726  1.0000
  H   H2593     1.0  0.71685  0.54364  0.21030  1.0000
  H   H2594     1.0  0.79488  0.38260  0.06169  1.0000
  C   C3250     1.0  0.95433  0.57796  0.14591  1.0000
  C   C3251     1.0  0.87400  0.32423  0.98677  1.0000
  H   H2595     1.0  0.96039  0.60374  0.12538  1.0000
  C   C3252     1.0  0.92914  0.36731  0.99745  1.0000
  C   C3253     1.0  0.73535  0.39657  0.12094  1.0000
  C   C3254     1.0  0.91856  0.38083  0.05707  1.0000
  P   P105      1.0  0.94938  0.57780  0.22655  1.0000
  C   C3255     1.0  0.56857  0.60876  0.13546  1.0000
  C   C3256     1.0  0.94982  0.37431  0.07062  1.0000
  S   S434      1.0  0.97029  0.44289  0.13779  1.0000
  H   H2596     1.0  0.55367  0.48953  0.10542  1.0000
  C   C3257     1.0  0.93734  0.52110  0.12852  1.0000
  H   H2597     1.0  0.49283  0.59438  0.04298  1.0000
  H   H2598     1.0  0.69463  0.39621  0.02976  1.0000
  C   C3258     1.0  0.90682  0.41948  0.02028  1.0000
  H   H2599     1.0  0.53172  0.44249  0.14457  1.0000
  H   H2600     1.0  0.90261  0.38486  0.05927  1.0000
  H   H2601     1.0  0.88564  0.40202  0.20355  1.0000
  C   C3259     1.0  0.95973  0.36992  0.05222  1.0000
  H   H2602     1.0  0.90840  0.34255  0.04572  1.0000
  C   C3260     1.0  0.50405  0.46075  0.12183  1.0000
  C   C3261     1.0  0.50943  0.52936  0.17653  1.0000
  P   P106      1.0  0.52148  0.48639  0.13944  1.0000
  H   H2603     1.0  0.94433  0.62072  0.21230  1.0000
  H   H2604     1.0  0.94418  0.53426  0.12263  1.0000
  C   C3262     1.0  0.91828  0.31798  0.09127  1.0000
  H   H2605     1.0  0.84397  0.36827  0.02107  1.0000
  C   C3263     1.0  0.51275  0.48813  0.17999  1.0000
  C   C3264     1.0  0.87771  0.33891  0.04739  1.0000
  C   C3265     1.0  0.92924  0.37965  0.07307  1.0000
  H   H2606     1.0  0.51790  0.52878  0.14546  1.0000
  C   C3266     1.0  0.66194  0.36822  0.10234  1.0000
  H   H2607     1.0  0.65111  0.38874  0.07827  1.0000
  H   H2608     1.0  0.66865  0.35068  0.12999  1.0000
  C   C3267     1.0  0.49406  0.60565  0.03020  1.0000
  C   C3268     1.0  0.51588  0.49914  0.16113  1.0000
  C   C3269     1.0  0.52431  0.50327  0.11671  1.0000
  H   H2609     1.0  0.71185  0.58031  0.20769  1.0000
  H   H2610     1.0  0.71698  0.40764  0.07659  1.0000
  C   C3270     1.0  0.48748  0.58505  0.18452  1.0000
  S   S435      1.0  0.49853  0.62005  0.07526  1.0000
  C   C3271     1.0  0.91491  0.59544  0.18161  1.0000
  C   C3272     1.0  0.89422  0.44392  0.99441  1.0000
  H   H2611     1.0  0.87286  0.55919  0.21627  1.0000
  C   C3273     1.0  0.85789  0.36318  0.02687  1.0000
  C   C3274     1.0  0.51038  0.53111  0.09459  1.0000
  C   C3275     1.0  0.65244  0.38625  0.09390  1.0000
  S   S436      1.0  0.95254  0.63759  0.09544  1.0000
  C   C3276     1.0  0.84131  0.32927  0.00578  1.0000
  C   C3277     1.0  0.92062  0.48645  0.14353  1.0000
  C   C3278     1.0  0.89434  0.34868  0.04044  1.0000
  C   C3279     1.0  0.69934  0.40133  0.12554  1.0000
  C   C3280     1.0  0.93606  0.61335  0.20409  1.0000
  H   H2612     1.0  0.90966  0.54135  0.09905  1.0000
  C   C3281     1.0  0.92615  0.62475  0.18909  1.0000
  H   H2613     1.0  0.63954  0.41176  0.22379  1.0000
  C   C3282     1.0  0.55876  0.47219  0.20007  1.0000
  C   C3283     1.0  0.94015  0.63360  0.03921  1.0000
  C   C3284     1.0  0.94403  0.37723  0.98549  1.0000
  H   H2614     1.0  0.94453  0.55261  0.16468  1.0000
  H   H2615     1.0  0.55650  0.51252  0.07456  1.0000
  C   C3285     1.0  0.94910  0.37110  0.03614  1.0000
  C   C3286     1.0  0.85948  0.34622  0.04072  1.0000
  H   H2616     1.0  0.94249  0.55319  0.09088  1.0000
  C   C3287     1.0  0.71735  0.40437  0.09242  1.0000
  C   C3288     1.0  0.73082  0.31485  0.10615  1.0000
  H   H2617     1.0  0.50913  0.56752  0.20186  1.0000
  C   C3289     1.0  0.86530  0.44955  0.20864  1.0000
  C   C3290     1.0  0.49388  0.57431  0.20199  1.0000
  C   C3291     1.0  0.83617  0.34616  0.99256  1.0000
  C   C3292     1.0  0.58382  0.63350  0.11161  1.0000
  P   P107      1.0  0.96158  0.57551  0.05441  1.0000
  C   C3293     1.0  0.93573  0.59277  0.20781  1.0000
  C   C3294     1.0  0.97997  0.53162  0.01887  1.0000
  H   H2618     1.0  0.90690  0.58861  0.17268  1.0000
  H   H2619     1.0  0.73378  0.34118  0.11830  1.0000
  H   H2620     1.0  0.97662  0.60657  0.07108  1.0000
  H   H2621     1.0  0.85347  0.40168  0.19174  1.0000
  H   H2622     1.0  0.87271  0.38601  0.00897  1.0000
  C   C3295     1.0  0.98213  0.45090  0.17225  1.0000
  C   C3296     1.0  0.84306  0.42497  0.00791  1.0000
  P   P108      1.0  0.87075  0.47194  0.21611  1.0000
  C   C3297     1.0  0.69048  0.38160  0.03468  1.0000
  C   C3298     1.0  0.92842  0.37671  0.03842  1.0000
  C   C3299     1.0  0.97087  0.51565  0.20797  1.0000
  H   H2623     1.0  0.54342  0.57837  0.21095  1.0000
  C   C3300     1.0  0.89956  0.55493  0.07158  1.0000
  H   H2624     1.0  0.91446  0.34087  0.00193  1.0000
  P   P109      1.0  0.91429  0.37860  0.01787  1.0000
  H   H2625     1.0  0.88497  0.55009  0.07540  1.0000
  H   H2626     1.0  0.82829  0.43158  0.19153  1.0000
  C   C3301     1.0  0.96858  0.62576  0.01498  1.0000
  H   H2627     1.0  0.50166  0.52587  0.20827  1.0000
  H   H2628     1.0  0.91417  0.47296  0.14911  1.0000
  C   C3302     1.0  0.63699  0.33898  0.07812  1.0000
  C   C3303     1.0  0.98311  0.61112  0.16384  1.0000
  C   C3304     1.0  0.84240  0.43178  0.19667  1.0000
  C   C3305     1.0  0.52429  0.60193  0.22421  1.0000
  C   C3306     1.0  0.60978  0.50847  0.21907  1.0000
  C   C3307     1.0  0.66189  0.41104  0.98226  1.0000
  P   P110      1.0  0.70678  0.44116  0.99020  1.0000
  C   C3308     1.0  0.98139  0.55671  0.08610  1.0000
  H   H2629     1.0  0.49885  0.64530  0.98394  1.0000
  H   H2630     1.0  0.89123  0.32853  0.10897  1.0000
  C   C3309     1.0  0.49354  0.64103  0.21626  1.0000
  C   C3310     1.0  0.89397  0.42891  0.98289  1.0000
  H   H2631     1.0  0.97881  0.63046  0.00212  1.0000
  C   C3311     1.0  0.63806  0.48427  0.22651  1.0000
  C   C3312     1.0  0.70781  0.57151  0.22176  1.0000
  C   C3313     1.0  0.71062  0.55085  0.22323  1.0000
  C   C3314     1.0  0.49289  0.50795  0.06111  1.0000
  H   H2632     1.0  0.97767  0.54301  0.08261  1.0000
  H   H2633     1.0  0.98144  0.47529  0.08183  1.0000
  C   C3315     1.0  0.48982  0.49527  0.07884  1.0000
  H   H2634     1.0  0.98372  0.59625  0.01889  1.0000
  H   H2635     1.0  0.98521  0.51001  0.06731  1.0000
  C   C3316     1.0  0.48891  0.44998  0.11978  1.0000
  C   C3317     1.0  0.70121  0.31615  0.09047  1.0000
  C   C3318     1.0  0.65170  0.31692  0.10446  1.0000
  H   H2636     1.0  0.65384  0.48054  0.22748  1.0000
  H   H2637     1.0  0.55606  0.31416  0.97936  1.0000
  Fe  Fe220     1.0  0.67393  0.52115  0.39568  1.0000
  S   S437      1.0  0.69101  0.52625  0.36539  1.0000
  S   S438      1.0  0.65128  0.54434  0.40989  1.0000
  Fe  Fe221     1.0  0.68870  0.47638  0.39994  1.0000
  S   S439      1.0  0.70625  0.47807  0.36951  1.0000
  S   S440      1.0  0.68481  0.44621  0.41693  1.0000
  Fe  Fe222     1.0  0.71606  0.50514  0.37777  1.0000
  S   S441      1.0  0.74782  0.51258  0.37313  1.0000
  Fe  Fe223     1.0  0.67976  0.49876  0.36012  1.0000
  S   S442      1.0  0.66215  0.50031  0.33477  1.0000
  S   S443      1.0  0.69985  0.50229  0.40895  1.0000
  S   S444      1.0  0.66151  0.49474  0.38972  1.0000
  H   H2638     1.0  0.64475  0.35010  0.32345  1.0000
  S   S445      1.0  0.54380  0.61272  0.36878  1.0000
  H   H2639     1.0  0.72994  0.34377  0.40973  1.0000
  C   C3319     1.0  0.66348  0.33110  0.42294  1.0000
  S   S446      1.0  0.60132  0.61185  0.35653  1.0000
  Fe  Fe224     1.0  0.60155  0.41537  0.26146  1.0000
  S   S447      1.0  0.57685  0.40637  0.28523  1.0000
  C   C3320     1.0  0.70488  0.34380  0.43307  1.0000
  Fe  Fe225     1.0  0.62826  0.41889  0.29163  1.0000
  S   S448      1.0  0.60604  0.41075  0.31779  1.0000
  S   S449      1.0  0.65881  0.42426  0.29571  1.0000
  Fe  Fe226     1.0  0.60092  0.38708  0.30086  1.0000
  S   S450      1.0  0.59904  0.35527  0.31525  1.0000
  Fe  Fe227     1.0  0.58374  0.43059  0.30055  1.0000
  S   S451      1.0  0.56153  0.45238  0.31673  1.0000
  S   S452      1.0  0.62496  0.39378  0.27556  1.0000
  S   S453      1.0  0.60661  0.44103  0.27588  1.0000
  C   C3321     1.0  0.90182  0.33595  0.37742  1.0000
  H   H2640     1.0  0.67044  0.41787  0.44810  1.0000
  Fe  Fe228     1.0  0.53085  0.63993  0.35035  1.0000
  H   H2641     1.0  0.80978  0.49256  0.44611  1.0000
  C   C3322     1.0  0.78472  0.44696  0.40107  1.0000
  S   S454      1.0  0.88537  0.34654  0.43029  1.0000
  Fe  Fe229     1.0  0.85839  0.46567  0.33837  1.0000
  S   S455      1.0  0.87149  0.47689  0.36191  1.0000
  S   S456      1.0  0.82641  0.46005  0.33842  1.0000
  Fe  Fe230     1.0  0.89922  0.45427  0.31467  1.0000
  S   S457      1.0  0.91551  0.46395  0.33707  1.0000
  S   S458      1.0  0.91709  0.44625  0.28532  1.0000
  Fe  Fe231     1.0  0.89363  0.44932  0.36052  1.0000
  S   S459      1.0  0.90234  0.43304  0.38995  1.0000
  Fe  Fe232     1.0  0.89255  0.49080  0.33705  1.0000
  S   S460      1.0  0.90014  0.52263  0.33374  1.0000
  S   S461      1.0  0.87959  0.43731  0.33825  1.0000
  S   S462      1.0  0.87724  0.48201  0.31337  1.0000
  C   C3323     1.0  0.88978  0.37084  0.41958  1.0000
  C   C3324     1.0  0.90118  0.38180  0.42793  1.0000
  C   C3325     1.0  0.90473  0.40086  0.41872  1.0000
  C   C3326     1.0  0.89695  0.40918  0.40110  1.0000
  C   C3327     1.0  0.88521  0.39840  0.39294  1.0000
  C   C3328     1.0  0.88174  0.37928  0.40210  1.0000
  H   H2642     1.0  0.90752  0.37547  0.44131  1.0000
  H   H2643     1.0  0.91378  0.40913  0.42515  1.0000
  H   H2644     1.0  0.87889  0.40475  0.37956  1.0000
  H   H2645     1.0  0.87269  0.37105  0.39564  1.0000
  C   C3329     1.0  0.95323  0.54363  0.35548  1.0000
  C   C3330     1.0  0.95073  0.52343  0.35855  1.0000
  C   C3331     1.0  0.93474  0.51673  0.35187  1.0000
  C   C3332     1.0  0.92072  0.53024  0.34236  1.0000
  C   C3333     1.0  0.92307  0.55050  0.33951  1.0000
  C   C3334     1.0  0.93929  0.55716  0.34584  1.0000
  H   H2646     1.0  0.96127  0.51285  0.36612  1.0000
  H   H2647     1.0  0.93317  0.50112  0.35426  1.0000
  H   H2648     1.0  0.91214  0.56115  0.33254  1.0000
  H   H2649     1.0  0.94080  0.57277  0.34360  1.0000
  C   C3335     1.0  0.55552  0.46460  0.23586  1.0000
  C   C3336     1.0  0.90426  0.40435  0.25426  1.0000
  C   C3337     1.0  0.90349  0.41657  0.26920  1.0000
  C   C3338     1.0  0.91716  0.43013  0.26736  1.0000
  C   C3339     1.0  0.93146  0.43129  0.25044  1.0000
  H   H2650     1.0  0.55749  0.46798  0.25027  1.0000
  H   H2651     1.0  0.89374  0.39382  0.25581  1.0000
  H   H2652     1.0  0.89239  0.41550  0.28210  1.0000
  H   H2653     1.0  0.94236  0.44140  0.24899  1.0000
  C   C3340     1.0  0.90623  0.47730  0.22922  1.0000
  H   H2654     1.0  0.56768  0.33940  0.47482  1.0000
  C   C3341     1.0  0.59694  0.34828  0.34131  1.0000
  C   C3342     1.0  0.59467  0.36230  0.35451  1.0000
  C   C3343     1.0  0.59345  0.35614  0.37506  1.0000
  H   H2655     1.0  0.59403  0.37786  0.34888  1.0000
  H   H2656     1.0  0.59180  0.36711  0.38509  1.0000
  C   C3344     1.0  0.51767  0.46239  0.28135  1.0000
  C   C3345     1.0  0.53510  0.45443  0.28972  1.0000
  C   C3346     1.0  0.54010  0.46249  0.30549  1.0000
  C   C3347     1.0  0.52771  0.47871  0.31266  1.0000
  C   C3348     1.0  0.51029  0.48671  0.30428  1.0000
  H   H2657     1.0  0.51380  0.45603  0.26922  1.0000
  H   H2658     1.0  0.54455  0.44192  0.28413  1.0000
  H   H2659     1.0  0.53161  0.48512  0.32469  1.0000
  C   C3349     1.0  0.50260  0.61770  0.32785  1.0000
  H   H2660     1.0  0.50218  0.59812  0.27213  1.0000
  C   C3350     1.0  0.58171  0.42050  0.38685  1.0000
  H   H2661     1.0  0.86404  0.35220  0.33954  1.0000
  H   H2662     1.0  0.59349  0.42845  0.38913  1.0000
  H   H2663     1.0  0.88192  0.45003  0.25314  1.0000
  C   C3351     1.0  0.91869  0.40545  0.23740  1.0000
  H   H2664     1.0  0.70788  0.52346  0.24215  1.0000
  C   C3352     1.0  0.77050  0.37365  0.46364  1.0000
  H   H2665     1.0  0.54797  0.39184  0.41285  1.0000
  C   C3353     1.0  0.57673  0.42103  0.36782  1.0000
  C   C3354     1.0  0.76947  0.49741  0.36392  1.0000
  C   C3355     1.0  0.76842  0.48105  0.35447  1.0000
  C   C3356     1.0  0.78599  0.46989  0.34662  1.0000
  C   C3357     1.0  0.80478  0.47476  0.34838  1.0000
  C   C3358     1.0  0.80585  0.49102  0.35795  1.0000
  C   C3359     1.0  0.78827  0.50236  0.36554  1.0000
  H   H2666     1.0  0.75408  0.47708  0.35308  1.0000
  H   H2667     1.0  0.78502  0.45737  0.33919  1.0000
  H   H2668     1.0  0.82020  0.49499  0.35936  1.0000
  H   H2669     1.0  0.78927  0.51508  0.37266  1.0000
  C   C3360     1.0  0.66039  0.47805  0.32624  1.0000
  C   C3361     1.0  0.64385  0.47667  0.31709  1.0000
  C   C3362     1.0  0.64280  0.45965  0.30860  1.0000
  C   C3363     1.0  0.65863  0.44430  0.30868  1.0000
  C   C3364     1.0  0.67502  0.44552  0.31820  1.0000
  C   C3365     1.0  0.67579  0.46230  0.32722  1.0000
  H   H2670     1.0  0.63192  0.48885  0.31640  1.0000
  H   H2671     1.0  0.63012  0.45874  0.30133  1.0000
  H   H2672     1.0  0.68725  0.43361  0.31830  1.0000
  H   H2673     1.0  0.68862  0.46340  0.33420  1.0000
  C   C3366     1.0  0.63723  0.56281  0.39485  1.0000
  C   C3367     1.0  0.61813  0.57108  0.40256  1.0000
  C   C3368     1.0  0.60677  0.58586  0.39090  1.0000
  C   C3369     1.0  0.61468  0.59294  0.37166  1.0000
  C   C3370     1.0  0.63384  0.58487  0.36410  1.0000
  C   C3371     1.0  0.64499  0.56976  0.37553  1.0000
  H   H2674     1.0  0.61203  0.56584  0.41751  1.0000
  H   H2675     1.0  0.59190  0.59177  0.39672  1.0000
  H   H2676     1.0  0.64014  0.59039  0.34929  1.0000
  H   H2677     1.0  0.65977  0.56376  0.36954  1.0000
  C   C3372     1.0  0.68860  0.44146  0.44205  1.0000
  H   H2678     1.0  0.63807  0.33908  0.35950  1.0000
  C   C3373     1.0  0.98415  0.57904  0.43404  1.0000
  H   H2679     1.0  0.52768  0.52858  0.28947  1.0000
  C   C3374     1.0  0.70545  0.53944  0.24137  1.0000
  S   S463      1.0  0.51497  0.61248  0.42081  1.0000
  P   P111      1.0  0.61169  0.64292  0.42516  1.0000
  C   C3375     1.0  0.93207  0.41927  0.23543  1.0000
  C   C3376     1.0  0.53600  0.52389  0.27591  1.0000
  C   C3377     1.0  0.68017  0.42578  0.45403  1.0000
  C   C3378     1.0  0.59754  0.32810  0.34897  1.0000
  C   C3379     1.0  0.81260  0.45459  0.43330  1.0000
  H   H2680     1.0  0.63411  0.34089  0.45970  1.0000
  C   C3380     1.0  0.49454  0.61243  0.31213  1.0000
  C   C3381     1.0  0.93062  0.34364  0.27082  1.0000
  C   C3382     1.0  0.52554  0.36829  0.39717  1.0000
  H   H2681     1.0  0.55090  0.35875  0.30269  1.0000
  H   H2682     1.0  0.83334  0.46862  0.29605  1.0000
  C   C3383     1.0  0.71113  0.38509  0.37462  1.0000
  C   C3384     1.0  0.64652  0.35971  0.33401  1.0000
  C   C3385     1.0  0.66154  0.60825  0.40297  1.0000
  H   H2683     1.0  0.64096  0.36109  0.38350  1.0000
  C   C3386     1.0  0.93300  0.57495  0.24965  1.0000
  C   C3387     1.0  0.50890  0.40671  0.37575  1.0000
  H   H2684     1.0  0.68127  0.34892  0.45697  1.0000
  H   H2685     1.0  0.51970  0.56434  0.27207  1.0000
  H   H2686     1.0  0.62049  0.60386  0.44814  1.0000
  H   H2687     1.0  0.67302  0.60930  0.39035  1.0000
  H   H2688     1.0  0.51038  0.51621  0.26571  1.0000
  C   C3388     1.0  0.91261  0.57438  0.24975  1.0000
  C   C3389     1.0  0.90035  0.57049  0.26769  1.0000
  C   C3390     1.0  0.90834  0.56720  0.28560  1.0000
  C   C3391     1.0  0.92856  0.56796  0.28560  1.0000
  C   C3392     1.0  0.94088  0.57159  0.26771  1.0000
  C   C3393     1.0  0.69453  0.37527  0.44576  1.0000
  C   C3394     1.0  0.49948  0.62682  0.43760  1.0000
  H   H2689     1.0  0.65071  0.38822  0.45144  1.0000
  C   C3395     1.0  0.58346  0.61643  0.43307  1.0000
  H   H2690     1.0  0.50746  0.60956  0.35832  1.0000
  H   H2691     1.0  0.85616  0.45723  0.40212  1.0000
  C   C3396     1.0  0.50598  0.36554  0.40546  1.0000
  C   C3397     1.0  0.69253  0.35535  0.44626  1.0000
  C   C3398     1.0  0.83989  0.48193  0.24601  1.0000
  C   C3399     1.0  0.93726  0.32402  0.27779  1.0000
  H   H2692     1.0  0.81631  0.48928  0.26932  1.0000
  C   C3400     1.0  0.53685  0.50973  0.24563  1.0000
  C   C3401     1.0  0.63100  0.62238  0.42144  1.0000
  C   C3402     1.0  0.87473  0.34777  0.34996  1.0000
  H   H2693     1.0  0.98197  0.47766  0.27624  1.0000
  H   H2694     1.0  0.88464  0.56995  0.26777  1.0000
  H   H2695     1.0  0.89891  0.56392  0.29952  1.0000
  H   H2696     1.0  0.93478  0.56544  0.29947  1.0000
  H   H2697     1.0  0.95660  0.57139  0.26798  1.0000
  C   C3403     1.0  0.97029  0.59001  0.22909  1.0000
  H   H2698     1.0  0.95117  0.53742  0.24880  1.0000
  P   P112      1.0  0.49900  0.63240  0.24128  1.0000
  C   C3404     1.0  0.64658  0.32900  0.41473  1.0000
  C   C3405     1.0  0.53784  0.33960  0.41935  1.0000
  C   C3406     1.0  0.69725  0.54866  0.25816  1.0000
  H   H2699     1.0  0.90618  0.57671  0.23604  1.0000
  P   P113      1.0  0.69082  0.53413  0.28177  1.0000
  C   C3407     1.0  0.71066  0.53191  0.29691  1.0000
  C   C3408     1.0  0.66805  0.54633  0.29401  1.0000
  C   C3409     1.0  0.66517  0.54608  0.31465  1.0000
  C   C3410     1.0  0.64744  0.55513  0.32412  1.0000
  C   C3411     1.0  0.63271  0.56527  0.31306  1.0000
  C   C3412     1.0  0.63551  0.56586  0.29244  1.0000
  C   C3413     1.0  0.65301  0.55625  0.28295  1.0000
  C   C3414     1.0  0.71255  0.51625  0.31243  1.0000
  C   C3415     1.0  0.72786  0.51446  0.32415  1.0000
  C   C3416     1.0  0.74128  0.52833  0.32065  1.0000
  C   C3417     1.0  0.73945  0.54403  0.30535  1.0000
  C   C3418     1.0  0.72422  0.54584  0.29350  1.0000
  C   C3419     1.0  0.68713  0.50972  0.27747  1.0000
  C   C3420     1.0  0.70340  0.49474  0.27562  1.0000
  C   C3421     1.0  0.70071  0.47599  0.27184  1.0000
  C   C3422     1.0  0.68184  0.47214  0.26951  1.0000
  C   C3423     1.0  0.66566  0.48702  0.27100  1.0000
  C   C3424     1.0  0.66823  0.50568  0.27513  1.0000
  H   H2700     1.0  0.68874  0.57687  0.26946  1.0000
  H   H2701     1.0  0.91500  0.37131  0.27823  1.0000
  H   H2702     1.0  0.67637  0.53850  0.32362  1.0000
  H   H2703     1.0  0.64513  0.55412  0.34012  1.0000
  H   H2704     1.0  0.61918  0.57263  0.32054  1.0000
  H   H2705     1.0  0.62407  0.57374  0.28387  1.0000
  H   H2706     1.0  0.65483  0.55661  0.26701  1.0000
  H   H2707     1.0  0.70210  0.50549  0.31560  1.0000
  H   H2708     1.0  0.72920  0.50248  0.33620  1.0000
  H   H2709     1.0  0.75296  0.52700  0.32998  1.0000
  H   H2710     1.0  0.74980  0.55485  0.30280  1.0000
  H   H2711     1.0  0.72310  0.55816  0.28182  1.0000
  H   H2712     1.0  0.71818  0.49749  0.27719  1.0000
  H   H2713     1.0  0.63341  0.33984  0.41622  1.0000
  H   H2714     1.0  0.67965  0.45745  0.26706  1.0000
  H   H2715     1.0  0.65101  0.48375  0.26968  1.0000
  H   H2716     1.0  0.65542  0.51676  0.27682  1.0000
  C   C3425     1.0  0.65253  0.37831  0.32734  1.0000
  C   C3426     1.0  0.78574  0.49142  0.42935  1.0000
  C   C3427     1.0  0.56715  0.51797  0.25457  1.0000
  H   H2717     1.0  0.89683  0.53608  0.23519  1.0000
  C   C3428     1.0  0.50246  0.34993  0.42058  1.0000
  H   H2718     1.0  0.94388  0.61497  0.47530  1.0000
  C   C3429     1.0  0.85880  0.47141  0.24139  1.0000
  H   H2719     1.0  0.74615  0.43766  0.37953  1.0000
  C   C3430     1.0  0.58979  0.53311  0.38955  1.0000
  C   C3431     1.0  0.61029  0.52760  0.38582  1.0000
  C   C3432     1.0  0.61893  0.52315  0.36706  1.0000
  C   C3433     1.0  0.60710  0.52368  0.35210  1.0000
  C   C3434     1.0  0.58641  0.52889  0.35583  1.0000
  C   C3435     1.0  0.57787  0.53382  0.37460  1.0000
  P   P114      1.0  0.57066  0.53047  0.33672  1.0000
  C   C3436     1.0  0.56332  0.55623  0.32781  1.0000
  C   C3437     1.0  0.58434  0.51918  0.31577  1.0000
  C   C3438     1.0  0.59857  0.52926  0.30297  1.0000
  C   C3439     1.0  0.60943  0.52080  0.28675  1.0000
  C   C3440     1.0  0.60617  0.50218  0.28315  1.0000
  C   C3441     1.0  0.59185  0.49220  0.29562  1.0000
  C   C3442     1.0  0.58093  0.50063  0.31181  1.0000
  C   C3443     1.0  0.54987  0.56131  0.31379  1.0000
  C   C3444     1.0  0.54400  0.58119  0.30696  1.0000
  C   C3445     1.0  0.55210  0.59611  0.31348  1.0000
  C   C3446     1.0  0.56612  0.59116  0.32677  1.0000
  C   C3447     1.0  0.57164  0.57134  0.33405  1.0000
  C   C3448     1.0  0.54992  0.51727  0.34772  1.0000
  C   C3449     1.0  0.55373  0.49783  0.35732  1.0000
  C   C3450     1.0  0.53807  0.48693  0.36511  1.0000
  C   C3451     1.0  0.51844  0.49544  0.36367  1.0000
  C   C3452     1.0  0.51448  0.51495  0.35471  1.0000
  C   C3453     1.0  0.53009  0.52596  0.34703  1.0000
  H   H2720     1.0  0.58323  0.53708  0.40398  1.0000
  H   H2721     1.0  0.61955  0.52703  0.39740  1.0000
  H   H2722     1.0  0.63488  0.51942  0.36405  1.0000
  H   H2723     1.0  0.61433  0.51997  0.33781  1.0000
  H   H2724     1.0  0.56202  0.53840  0.37762  1.0000
  H   H2725     1.0  0.60137  0.54360  0.30571  1.0000
  H   H2726     1.0  0.62041  0.52865  0.27705  1.0000
  H   H2727     1.0  0.61454  0.49550  0.27064  1.0000
  H   H2728     1.0  0.58902  0.47792  0.29271  1.0000
  H   H2729     1.0  0.56978  0.49256  0.32090  1.0000
  H   H2730     1.0  0.54349  0.54993  0.30855  1.0000
  H   H2731     1.0  0.53287  0.58512  0.29695  1.0000
  H   H2732     1.0  0.54733  0.61154  0.30848  1.0000
  H   H2733     1.0  0.57243  0.60277  0.33179  1.0000
  H   H2734     1.0  0.58233  0.56807  0.34456  1.0000
  H   H2735     1.0  0.56888  0.49089  0.35824  1.0000
  H   H2736     1.0  0.54120  0.47169  0.37177  1.0000
  C   C3454     1.0  0.62454  0.38067  0.44233  1.0000
  H   H2737     1.0  0.71677  0.31573  0.39210  1.0000
  H   H2738     1.0  0.52636  0.54114  0.34065  1.0000
  H   H2739     1.0  0.91969  0.32382  0.32663  1.0000
  C   C3455     1.0  0.84045  0.43466  0.44794  1.0000
  H   H2740     1.0  0.55629  0.33640  0.33361  1.0000
  P   P115      1.0  0.80621  0.37494  0.43862  1.0000
  C   C3456     1.0  0.80940  0.34848  0.43792  1.0000
  C   C3457     1.0  0.78033  0.38330  0.44635  1.0000
  C   C3458     1.0  0.74995  0.40584  0.44223  1.0000
  C   C3459     1.0  0.76979  0.39929  0.43543  1.0000
  C   C3460     1.0  0.81404  0.38688  0.41399  1.0000
  C   C3461     1.0  0.82291  0.40435  0.41134  1.0000
  C   C3462     1.0  0.82965  0.41306  0.39229  1.0000
  C   C3463     1.0  0.82702  0.40479  0.37571  1.0000
  C   C3464     1.0  0.81786  0.38762  0.37816  1.0000
  C   C3465     1.0  0.81142  0.37865  0.39722  1.0000
  C   C3466     1.0  0.62573  0.46938  0.23065  1.0000
  C   C3467     1.0  0.59423  0.33596  0.38271  1.0000
  H   H2741     1.0  0.74178  0.41832  0.43410  1.0000
  H   H2742     1.0  0.77687  0.40694  0.42195  1.0000
  C   C3468     1.0  0.54821  0.44701  0.23469  1.0000
  C   C3469     1.0  0.50518  0.47850  0.28862  1.0000
  H   H2743     1.0  0.82489  0.41114  0.42396  1.0000
  H   H2744     1.0  0.83693  0.42628  0.39031  1.0000
  H   H2745     1.0  0.83208  0.41179  0.36098  1.0000
  H   H2746     1.0  0.81588  0.38121  0.36526  1.0000
  H   H2747     1.0  0.80450  0.36528  0.39886  1.0000
  C   C3470     1.0  0.54634  0.36415  0.31690  1.0000
  C   C3471     1.0  0.86866  0.33786  0.36868  1.0000
  P   P116      1.0  0.90210  0.36590  0.32123  1.0000
  C   C3472     1.0  0.91726  0.38415  0.32494  1.0000
  C   C3473     1.0  0.92257  0.32962  0.31113  1.0000
  H   H2748     1.0  0.95301  0.57603  0.43517  1.0000
  C   C3474     1.0  0.93078  0.39195  0.30936  1.0000
  C   C3475     1.0  0.94199  0.40640  0.31221  1.0000
  C   C3476     1.0  0.93988  0.41322  0.33060  1.0000
  C   C3477     1.0  0.92649  0.40564  0.34616  1.0000
  C   C3478     1.0  0.91505  0.39138  0.34332  1.0000
  C   C3479     1.0  0.88020  0.37986  0.31176  1.0000
  C   C3480     1.0  0.86967  0.39540  0.32163  1.0000
  C   C3481     1.0  0.85338  0.40722  0.31407  1.0000
  C   C3482     1.0  0.84720  0.40331  0.29678  1.0000
  H   H2749     1.0  0.55022  0.32943  0.42456  1.0000
  H   H2750     1.0  0.49108  0.45313  0.38731  1.0000
  C   C3483     1.0  0.60544  0.47398  0.22907  1.0000
  H   H2751     1.0  0.93256  0.38738  0.29483  1.0000
  H   H2752     1.0  0.87740  0.32488  0.39715  1.0000
  H   H2753     1.0  0.94835  0.42465  0.33269  1.0000
  C   C3484     1.0  0.54140  0.35520  0.40431  1.0000
  H   H2754     1.0  0.90438  0.38625  0.35549  1.0000
  H   H2755     1.0  0.87418  0.39839  0.33516  1.0000
  H   H2756     1.0  0.84570  0.41960  0.32148  1.0000
  H   H2757     1.0  0.83479  0.41268  0.29074  1.0000
  H   H2758     1.0  0.64681  0.63747  0.39520  1.0000
  H   H2759     1.0  0.82048  0.47065  0.40423  1.0000
  C   C3485     1.0  0.49806  0.54879  0.39941  1.0000
  C   C3486     1.0  0.65145  0.39381  0.41962  1.0000
  C   C3487     1.0  0.64877  0.38559  0.36130  1.0000
  C   C3488     1.0  0.65400  0.39104  0.34093  1.0000
  P   P117      1.0  0.65126  0.40220  0.37859  1.0000
  C   C3489     1.0  0.67766  0.40290  0.37668  1.0000
  C   C3490     1.0  0.63799  0.42682  0.37367  1.0000
  C   C3491     1.0  0.63779  0.44064  0.38683  1.0000
  C   C3492     1.0  0.62765  0.45976  0.38336  1.0000
  C   C3493     1.0  0.61751  0.46524  0.36683  1.0000
  C   C3494     1.0  0.61725  0.45148  0.35392  1.0000
  C   C3495     1.0  0.62744  0.43235  0.35730  1.0000
  C   C3496     1.0  0.69053  0.38501  0.37797  1.0000
  H   H2760     1.0  0.49928  0.52152  0.35340  1.0000
  C   C3497     1.0  0.71903  0.40304  0.37049  1.0000
  C   C3498     1.0  0.70631  0.42091  0.36942  1.0000
  C   C3499     1.0  0.68571  0.42089  0.37231  1.0000
  C   C3500     1.0  0.64124  0.39324  0.40354  1.0000
  C   C3501     1.0  0.53326  0.39107  0.33603  1.0000
  H   H2761     1.0  0.93368  0.34918  0.25518  1.0000
  H   H2762     1.0  0.89755  0.48079  0.24301  1.0000
  C   C3502     1.0  0.61424  0.38021  0.42641  1.0000
  C   C3503     1.0  0.62235  0.38690  0.40714  1.0000
  C   C3504     1.0  0.82018  0.44191  0.44921  1.0000
  C   C3505     1.0  0.54936  0.35153  0.33436  1.0000
  H   H2763     1.0  0.65910  0.40524  0.33554  1.0000
  H   H2764     1.0  0.64584  0.43677  0.39959  1.0000
  H   H2765     1.0  0.62792  0.47042  0.39337  1.0000
  H   H2766     1.0  0.61006  0.48019  0.36393  1.0000
  H   H2767     1.0  0.60941  0.45572  0.34106  1.0000
  H   H2768     1.0  0.62696  0.42206  0.34709  1.0000
  H   H2769     1.0  0.68459  0.37099  0.38112  1.0000
  C   C3506     1.0  0.79303  0.33849  0.43751  1.0000
  H   H2770     1.0  0.50630  0.48686  0.36919  1.0000
  H   H2771     1.0  0.71234  0.43485  0.36611  1.0000
  H   H2772     1.0  0.67629  0.43497  0.37085  1.0000
  C   C3507     1.0  0.51246  0.60772  0.24141  1.0000
  H   H2773     1.0  0.60000  0.37460  0.42898  1.0000
  H   H2774     1.0  0.61401  0.38690  0.39497  1.0000
  H   H2775     1.0  0.72093  0.37122  0.37518  1.0000
  P   P118      1.0  0.78658  0.46485  0.43475  1.0000
  C   C3508     1.0  0.97165  0.55517  0.41796  1.0000
  H   H2776     1.0  0.91848  0.48826  0.27890  1.0000
  C   C3509     1.0  0.95680  0.53637  0.23339  1.0000
  H   H2777     1.0  0.53540  0.61983  0.45494  1.0000
  H   H2778     1.0  0.98048  0.46737  0.35510  1.0000
  C   C3510     1.0  0.77406  0.45567  0.41732  1.0000
  C   C3511     1.0  0.95040  0.48133  0.27629  1.0000
  C   C3512     1.0  0.97831  0.56933  0.30405  1.0000
  H   H2779     1.0  0.91786  0.51932  0.29316  1.0000
  H   H2780     1.0  0.49527  0.57722  0.36160  1.0000
  C   C3513     1.0  0.96818  0.57051  0.42977  1.0000
  C   C3514     1.0  0.98539  0.48645  0.32749  1.0000
  H   H2781     1.0  0.51218  0.53953  0.39688  1.0000
  Fe  Fe233     1.0  0.53180  0.62944  0.39454  1.0000
  H   H2782     1.0  0.66306  0.34373  0.43066  1.0000
  C   C3515     1.0  0.85701  0.38728  0.28734  1.0000
  Fe  Fe234     1.0  0.57075  0.62802  0.36640  1.0000
  Fe  Fe235     1.0  0.88888  0.33193  0.46191  1.0000
  H   H2783     1.0  0.96241  0.50449  0.23845  1.0000
  H   H2784     1.0  0.88046  0.36301  0.28744  1.0000
  S   S464      1.0  0.59307  0.32914  0.40873  1.0000
  C   C3516     1.0  0.78493  0.53270  0.42111  1.0000
  C   C3517     1.0  0.98334  0.61606  0.24151  1.0000
  H   H2785     1.0  0.70700  0.46443  0.44092  1.0000
  C   C3518     1.0  0.52621  0.51678  0.26261  1.0000
  H   H2786     1.0  0.71317  0.46433  0.27094  1.0000
  C   C3519     1.0  0.52120  0.57484  0.25873  1.0000
  H   H2787     1.0  0.61375  0.63388  0.38449  1.0000
  H   H2788     1.0  0.54759  0.34866  0.36587  1.0000
  C   C3520     1.0  0.63402  0.33088  0.47336  1.0000
  C   C3521     1.0  0.96795  0.50499  0.28721  1.0000
  H   H2789     1.0  0.59629  0.46214  0.23223  1.0000
  H   H2790     1.0  0.84147  0.34498  0.43690  1.0000
  H   H2791     1.0  0.81070  0.43774  0.46273  1.0000
  C   C3522     1.0  0.97883  0.54887  0.30515  1.0000
  C   C3523     1.0  0.87331  0.37543  0.29491  1.0000
  H   H2792     1.0  0.94887  0.52956  0.29930  1.0000
  C   C3524     1.0  0.66167  0.59092  0.41641  1.0000
  C   C3525     1.0  0.82851  0.33774  0.43697  1.0000
  H   H2793     1.0  0.85214  0.38415  0.27400  1.0000
  H   H2794     1.0  0.67306  0.57844  0.41408  1.0000
  H   H2795     1.0  0.80910  0.52883  0.43859  1.0000
  C   C3526     1.0  0.81380  0.38206  0.47590  1.0000
  C   C3527     1.0  0.56156  0.41079  0.36484  1.0000
  C   C3528     1.0  0.95773  0.62081  0.41964  1.0000
  H   H2796     1.0  0.55795  0.41168  0.34994  1.0000
  H   H2797     1.0  0.78310  0.43356  0.37516  1.0000
  H   H2798     1.0  0.93376  0.48015  0.23928  1.0000
  C   C3529     1.0  0.64302  0.38760  0.43894  1.0000
  H   H2799     1.0  0.74455  0.46484  0.43190  1.0000
  C   C3530     1.0  0.63173  0.60522  0.43535  1.0000
  H   H2800     1.0  0.97616  0.47912  0.32025  1.0000
  H   H2801     1.0  0.69784  0.59683  0.23734  1.0000
  C   C3531     1.0  0.49157  0.43921  0.38163  1.0000
  H   H2802     1.0  0.59432  0.60627  0.42530  1.0000
  H   H2803     1.0  0.98124  0.62796  0.25060  1.0000
  H   H2804     1.0  0.49332  0.38969  0.36056  1.0000
  H   H2805     1.0  0.96027  0.60780  0.41213  1.0000
  C   C3532     1.0  0.96521  0.62083  0.43755  1.0000
  C   C3533     1.0  0.85332  0.43998  0.43087  1.0000
  H   H2806     1.0  0.95929  0.54921  0.41388  1.0000
  C   C3534     1.0  0.75393  0.44239  0.39019  1.0000
  C   C3535     1.0  0.64261  0.35358  0.35432  1.0000
  C   C3536     1.0  0.70901  0.38388  0.43220  1.0000
  C   C3537     1.0  0.94966  0.51645  0.29224  1.0000
  C   C3538     1.0  0.54449  0.35865  0.35270  1.0000
  C   C3539     1.0  0.84602  0.45293  0.41521  1.0000
  H   H2807     1.0  0.77814  0.36103  0.47209  1.0000
  C   C3540     1.0  0.57139  0.40980  0.40298  1.0000
  H   H2808     1.0  0.78471  0.54861  0.41773  1.0000
  H   H2809     1.0  0.92327  0.34874  0.35511  1.0000
  C   C3541     1.0  0.49670  0.56547  0.40911  1.0000
  H   H2810     1.0  0.64693  0.57583  0.44287  1.0000
  H   H2811     1.0  0.59916  0.31716  0.33889  1.0000
  C   C3542     1.0  0.64386  0.36638  0.36793  1.0000
  C   C3543     1.0  0.59613  0.32195  0.36957  1.0000
  H   H2812     1.0  0.73497  0.40314  0.36795  1.0000
  H   H2813     1.0  0.61828  0.37567  0.45736  1.0000
  C   C3544     1.0  0.48750  0.58144  0.33194  1.0000
  C   C3545     1.0  0.64686  0.58945  0.43266  1.0000
  H   H2814     1.0  0.92475  0.41106  0.36039  1.0000
  H   H2815     1.0  0.96872  0.63913  0.45948  1.0000
  H   H2816     1.0  0.95192  0.41274  0.29993  1.0000
  H   H2817     1.0  0.85343  0.33486  0.37264  1.0000
  P   P119      1.0  0.97930  0.59895  0.44920  1.0000
  H   H2818     1.0  0.52898  0.50367  0.23590  1.0000
  H   H2819     1.0  0.66568  0.39940  0.41734  1.0000
  C   C3546     1.0  0.83079  0.48098  0.26569  1.0000
  C   C3547     1.0  0.96816  0.48722  0.27945  1.0000
  H   H2820     1.0  0.87021  0.38280  0.45936  1.0000
  C   C3548     1.0  0.93230  0.49307  0.28089  1.0000
  H   H2821     1.0  0.52742  0.40657  0.33626  1.0000
  H   H2822     1.0  0.52616  0.62486  0.27154  1.0000
  C   C3549     1.0  0.89436  0.35215  0.34498  1.0000
  C   C3550     1.0  0.91583  0.34940  0.30426  1.0000
  C   C3551     1.0  0.75317  0.45784  0.41969  1.0000
  C   C3552     1.0  0.77470  0.44007  0.38776  1.0000
  H   H2823     1.0  0.80071  0.44566  0.39836  1.0000
  C   C3553     1.0  0.85441  0.38286  0.46392  1.0000
  C   C3554     1.0  0.82161  0.37998  0.45609  1.0000
  H   H2824     1.0  0.77814  0.34637  0.43769  1.0000
  C   C3555     1.0  0.50797  0.42461  0.38354  1.0000
  H   H2825     1.0  0.83201  0.49066  0.23449  1.0000
  C   C3556     1.0  0.53817  0.38388  0.31774  1.0000
  C   C3557     1.0  0.70065  0.45212  0.44998  1.0000
  C   C3558     1.0  0.92001  0.35623  0.28398  1.0000
  C   C3559     1.0  0.86781  0.45898  0.25654  1.0000
  C   C3560     1.0  0.49295  0.40344  0.36656  1.0000
  H   H2826     1.0  0.49447  0.62225  0.29835  1.0000
  C   C3561     1.0  0.77192  0.50276  0.41770  1.0000
  H   H2827     1.0  0.95330  0.60964  0.24917  1.0000
  C   C3562     1.0  0.93195  0.51060  0.28887  1.0000
  S   S465      1.0  0.51389  0.63940  0.32477  1.0000
  C   C3563     1.0  0.53637  0.37850  0.35370  1.0000
  C   C3564     1.0  0.55113  0.39993  0.38095  1.0000
  C   C3565     1.0  0.49505  0.58699  0.34775  1.0000
  C   C3566     1.0  0.51839  0.33694  0.42750  1.0000
  C   C3567     1.0  0.55606  0.39967  0.40010  1.0000
  C   C3568     1.0  0.69469  0.56945  0.25660  1.0000
  P   P120      1.0  0.53040  0.38808  0.37725  1.0000
  C   C3569     1.0  0.85876  0.45809  0.27619  1.0000
  H   H2828     1.0  0.68490  0.38390  0.45616  1.0000
  H   H2829     1.0  0.50081  0.49922  0.30991  1.0000
  H   H2830     1.0  0.55657  0.35689  0.39810  1.0000
  S   S466      1.0  0.97402  0.55094  0.36400  1.0000
  H   H2831     1.0  0.56110  0.59664  0.43803  1.0000
  H   H2832     1.0  0.57521  0.40947  0.41775  1.0000
  C   C3570     1.0  0.74061  0.39656  0.45988  1.0000
  C   C3571     1.0  0.70482  0.44654  0.46962  1.0000
  C   C3572     1.0  0.58787  0.63512  0.43541  1.0000
  H   H2833     1.0  0.65588  0.38295  0.31157  1.0000
  C   C3573     1.0  0.50225  0.60521  0.34582  1.0000
  C   C3574     1.0  0.69989  0.58080  0.23845  1.0000
  C   C3575     1.0  0.96606  0.58917  0.47248  1.0000
  C   C3576     1.0  0.51113  0.59403  0.25870  1.0000
  H   H2834     1.0  0.53608  0.39374  0.30418  1.0000
  C   C3577     1.0  0.56463  0.61091  0.44024  1.0000
  H   H2835     1.0  0.72705  0.45343  0.40784  1.0000
  C   C3578     1.0  0.74318  0.45138  0.40608  1.0000
  H   H2836     1.0  0.51999  0.42748  0.39079  1.0000
  C   C3579     1.0  0.48679  0.59433  0.31423  1.0000
  H   H2837     1.0  0.86903  0.43427  0.42979  1.0000
  C   C3580     1.0  0.79904  0.50099  0.43700  1.0000
  C   C3581     1.0  0.55640  0.52487  0.27167  1.0000
  C   C3582     1.0  0.79576  0.31804  0.43685  1.0000
  H   H2838     1.0  0.58445  0.42948  0.35524  1.0000
  H   H2839     1.0  0.71025  0.39947  0.43168  1.0000
  H   H2840     1.0  0.60538  0.64189  0.46840  1.0000
  H   H2841     1.0  0.56394  0.53071  0.28177  1.0000
  C   C3583     1.0  0.82581  0.46036  0.41645  1.0000
  H   H2842     1.0  0.77837  0.42673  0.45672  1.0000
  C   C3584     1.0  0.84032  0.46921  0.28079  1.0000
  H   H2843     1.0  0.95062  0.46735  0.27076  1.0000
  C   C3585     1.0  0.77154  0.52331  0.41362  1.0000
  H   H2844     1.0  0.86613  0.44882  0.28784  1.0000
  C   C3586     1.0  0.71987  0.35235  0.41981  1.0000
  H   H2845     1.0  0.73355  0.37895  0.40941  1.0000
  H   H2846     1.0  0.50972  0.56918  0.41424  1.0000
  H   H2847     1.0  0.76151  0.49590  0.41149  1.0000
  C   C3587     1.0  0.90799  0.34573  0.35869  1.0000
  H   H2848     1.0  0.48738  0.34774  0.42686  1.0000
  H   H2849     1.0  0.76096  0.53187  0.40436  1.0000
  H   H2850     1.0  0.58298  0.51853  0.25175  1.0000
  C   C3588     1.0  0.76344  0.47265  0.47059  1.0000
  H   H2851     1.0  0.84868  0.37842  0.43531  1.0000
  H   H2852     1.0  0.97204  0.54078  0.31850  1.0000
  C   C3589     1.0  0.75089  0.38042  0.47052  1.0000
  H   H2853     1.0  0.94205  0.63811  0.39660  1.0000
  C   C3590     1.0  0.79867  0.52155  0.43283  1.0000
  C   C3591     1.0  0.77323  0.45809  0.45896  1.0000
  H   H2854     1.0  0.98485  0.56087  0.47406  1.0000
  C   C3592     1.0  0.72198  0.37232  0.41953  1.0000
  H   H2855     1.0  0.54476  0.43695  0.24804  1.0000
  H   H2856     1.0  0.49341  0.37526  0.40027  1.0000
  H   H2857     1.0  0.72541  0.40188  0.46537  1.0000
  C   C3593     1.0  0.94721  0.63802  0.41077  1.0000
  H   H2858     1.0  0.94553  0.31428  0.26756  1.0000
  C   C3594     1.0  0.64645  0.62406  0.40562  1.0000
  H   H2859     1.0  0.54052  0.55429  0.24146  1.0000
  C   C3595     1.0  0.96245  0.63852  0.44610  1.0000
  C   C3596     1.0  0.93325  0.31701  0.29793  1.0000
  C   C3597     1.0  0.55747  0.51005  0.24159  1.0000
  P   P121      1.0  0.70155  0.31815  0.43383  1.0000
  H   H2860     1.0  0.71871  0.32214  0.46941  1.0000
  H   H2861     1.0  0.51570  0.32470  0.43908  1.0000
  C   C3598     1.0  0.83120  0.31739  0.43601  1.0000
  C   C3599     1.0  0.84208  0.38038  0.45030  1.0000
  S   S467      1.0  0.59619  0.42138  0.22912  1.0000
  H   H2862     1.0  0.91214  0.33176  0.38829  1.0000
  C   C3600     1.0  0.55005  0.62407  0.44963  1.0000
  H   H2863     1.0  0.97114  0.57679  0.31652  1.0000
  C   C3601     1.0  0.68426  0.42025  0.47363  1.0000
  C   C3602     1.0  0.96762  0.60548  0.24082  1.0000
  C   C3603     1.0  0.77109  0.43812  0.46553  1.0000
  C   C3604     1.0  0.68026  0.31662  0.42171  1.0000
  H   H2864     1.0  0.63191  0.45412  0.23481  1.0000
  C   C3605     1.0  0.52544  0.64028  0.26528  1.0000
  H   H2865     1.0  0.84624  0.42500  0.46026  1.0000
  C   C3606     1.0  0.55413  0.64290  0.45159  1.0000
  S   S468      1.0  0.55980  0.64304  0.39366  1.0000
  C   C3607     1.0  0.53287  0.56919  0.24154  1.0000
  C   C3608     1.0  0.88217  0.33208  0.38244  1.0000
  H   H2866     1.0  0.76440  0.48820  0.46573  1.0000
  H   H2867     1.0  0.71440  0.45460  0.47559  1.0000
  H   H2868     1.0  0.54363  0.64682  0.28582  1.0000
  C   C3609     1.0  0.50092  0.64694  0.43685  1.0000
  Fe  Fe236     1.0  0.56931  0.37588  0.65479  1.0000
  S   S469      1.0  0.54315  0.36682  0.64410  1.0000
  S   S470      1.0  0.59096  0.39136  0.63122  1.0000
  Fe  Fe237     1.0  0.55428  0.36164  0.69837  1.0000
  S   S471      1.0  0.52744  0.35129  0.69045  1.0000
  Fe  Fe238     1.0  0.54832  0.33940  0.66555  1.0000
  C   C3610     1.0  0.78576  0.32509  0.49550  1.0000
  Fe  Fe239     1.0  0.52464  0.37981  0.66991  1.0000
  Fe  Fe240     1.0  0.90766  0.32066  0.50095  1.0000
  S   S472      1.0  0.57575  0.34735  0.67476  1.0000
  S   S473      1.0  0.55023  0.39132  0.67931  1.0000
  Fe  Fe241     1.0  0.67325  0.36039  0.50761  1.0000
  S   S474      1.0  0.66585  0.38305  0.52859  1.0000
  S   S475      1.0  0.98320  0.33675  0.69312  1.0000
  Fe  Fe242     1.0  0.71640  0.34851  0.51743  1.0000
  S   S476      1.0  0.71177  0.36994  0.53993  1.0000
  S   S477      1.0  0.74495  0.33037  0.50435  1.0000
  Fe  Fe243     1.0  0.68136  0.35973  0.54954  1.0000
  S   S478      1.0  0.66640  0.34845  0.58024  1.0000
  Fe  Fe244     1.0  0.69635  0.39122  0.51698  1.0000
  S   S479      1.0  0.70373  0.42211  0.50528  1.0000
  C   C3611     1.0  0.62261  0.32892  0.56037  1.0000
  S   S480      1.0  0.70239  0.37031  0.49435  1.0000
  C   C3612     1.0  0.95611  0.36453  0.50078  1.0000
  S   S481      1.0  0.95110  0.35035  0.59725  1.0000
  S   S482      1.0  0.65145  0.35825  0.48691  1.0000
  C   C3613     1.0  0.51210  0.43890  0.62333  1.0000
  C   C3614     1.0  0.93912  0.59221  0.49962  1.0000
  H   H2869     1.0  0.62336  0.40009  0.52561  1.0000
  C   C3615     1.0  0.48969  0.38441  0.72600  1.0000
  C   C3616     1.0  0.95673  0.37044  0.70156  1.0000
  C   C3617     1.0  0.97313  0.35383  0.50797  1.0000
  H   H2870     1.0  0.91183  0.34989  0.54271  1.0000
  C   C3618     1.0  0.94619  0.34132  0.57560  1.0000
  H   H2871     1.0  0.55712  0.42172  0.63891  1.0000
  H   H2872     1.0  0.54324  0.34290  0.54443  1.0000
  Fe  Fe245     1.0  0.86224  0.32510  0.50114  1.0000
  C   C3619     1.0  0.92496  0.34319  0.54934  1.0000
  C   C3620     1.0  0.92899  0.34951  0.56682  1.0000
  C   C3621     1.0  0.52565  0.33661  0.59335  1.0000
  C   C3622     1.0  0.69690  0.43036  0.48140  1.0000
  H   H2873     1.0  0.91878  0.36095  0.57350  1.0000
  C   C3623     1.0  0.52704  0.42590  0.63202  1.0000
  C   C3624     1.0  0.94742  0.38446  0.71423  1.0000
  H   H2874     1.0  0.81785  0.31971  0.48887  1.0000
  H   H2875     1.0  0.62712  0.34348  0.55571  1.0000
  S   S483      1.0  0.88517  0.34591  0.49010  1.0000
  C   C3625     1.0  0.53149  0.49006  0.53919  1.0000
  C   C3626     1.0  0.76941  0.33342  0.50789  1.0000
  C   C3627     1.0  0.77296  0.34343  0.52298  1.0000
  C   C3628     1.0  0.79263  0.34446  0.52607  1.0000
  C   C3629     1.0  0.80898  0.33576  0.51397  1.0000
  H   H2876     1.0  0.57427  0.33977  0.59528  1.0000
  H   H2877     1.0  0.49789  0.43384  0.62347  1.0000
  H   H2878     1.0  0.76056  0.34996  0.53262  1.0000
  H   H2879     1.0  0.57479  0.37457  0.58081  1.0000
  H   H2880     1.0  0.49899  0.45856  0.68767  1.0000
  C   C3630     1.0  0.52588  0.33869  0.57283  1.0000
  H   H2881     1.0  0.74008  0.44313  0.50846  1.0000
  H   H2882     1.0  0.87903  0.33534  0.54219  1.0000
  H   H2883     1.0  0.54298  0.33526  0.61726  1.0000
  S   S484      1.0  0.93459  0.32067  0.51752  1.0000
  H   H2884     1.0  0.51237  0.33803  0.56663  1.0000
  C   C3631     1.0  0.57268  0.36037  0.51522  1.0000
  H   H2885     1.0  0.95188  0.37069  0.68727  1.0000
  C   C3632     1.0  0.56188  0.41092  0.72450  1.0000
  H   H2886     1.0  0.56043  0.46095  0.71941  1.0000
  C   C3633     1.0  0.80544  0.32636  0.49839  1.0000
  C   C3634     1.0  0.58517  0.37990  0.56850  1.0000
  C   C3635     1.0  0.49340  0.49687  0.63302  1.0000
  H   H2887     1.0  0.93549  0.39545  0.70948  1.0000
  Fe  Fe246     1.0  0.97663  0.34000  0.61629  1.0000
  C   C3636     1.0  0.60614  0.37626  0.53727  1.0000
  H   H2888     1.0  0.98316  0.37702  0.58789  1.0000
  H   H2889     1.0  0.93742  0.56678  0.52196  1.0000
  C   C3637     1.0  0.75936  0.43276  0.48341  1.0000
  H   H2890     1.0  0.56369  0.45541  0.62373  1.0000
  C   C3638     1.0  0.95188  0.38490  0.50145  1.0000
  H   H2891     1.0  0.56978  0.37465  0.52061  1.0000
  H   H2892     1.0  0.48825  0.51301  0.65820  1.0000
  H   H2893     1.0  0.92617  0.60081  0.50667  1.0000
  H   H2894     1.0  0.51207  0.42410  0.68109  1.0000
  H   H2895     1.0  0.51193  0.33453  0.60303  1.0000
  C   C3639     1.0  0.97218  0.56982  0.48114  1.0000
  C   C3640     1.0  0.61118  0.37893  0.61645  1.0000
  C   C3641     1.0  0.61615  0.35832  0.61936  1.0000
  C   C3642     1.0  0.63283  0.34917  0.60787  1.0000
  C   C3643     1.0  0.64448  0.36043  0.59306  1.0000
  C   C3644     1.0  0.63911  0.38094  0.58972  1.0000
  C   C3645     1.0  0.62274  0.39014  0.60155  1.0000
  H   H2896     1.0  0.60746  0.34949  0.63080  1.0000
  H   H2897     1.0  0.63690  0.33331  0.61063  1.0000
  H   H2898     1.0  0.64798  0.38981  0.57849  1.0000
  H   H2899     1.0  0.61913  0.40607  0.59922  1.0000
  C   C3646     1.0  0.94933  0.60026  0.48179  1.0000
  C   C3647     1.0  0.58059  0.34345  0.52708  1.0000
  H   H2900     1.0  0.79517  0.35180  0.53812  1.0000
  C   C3648     1.0  0.98187  0.38408  0.51629  1.0000
  H   H2901     1.0  0.64802  0.32611  0.51937  1.0000
  C   C3649     1.0  0.56822  0.35893  0.49636  1.0000
  H   H2902     1.0  0.50598  0.37796  0.61877  1.0000
  H   H2903     1.0  0.96140  0.41046  0.50990  1.0000
  H   H2904     1.0  0.97973  0.36338  0.55773  1.0000
  P   P122      1.0  0.49755  0.47450  0.60148  1.0000
  C   C3650     1.0  0.82621  0.38440  0.48950  1.0000
  C   C3651     1.0  0.56084  0.33956  0.58884  1.0000
  C   C3652     1.0  0.54924  0.45090  0.62365  1.0000
  C   C3653     1.0  0.75173  0.46722  0.48851  1.0000
  S   S485      1.0  0.68733  0.33643  0.52876  1.0000
  C   C3654     1.0  0.52122  0.50526  0.54956  1.0000
  C   C3655     1.0  0.86144  0.31585  0.58875  1.0000
  H   H2905     1.0  0.96479  0.42433  0.70367  1.0000
  H   H2906     1.0  0.56230  0.37203  0.48720  1.0000
  C   C3656     1.0  0.59172  0.39812  0.56871  1.0000
  C   C3657     1.0  0.56114  0.34206  0.56818  1.0000
  C   C3658     1.0  0.93822  0.32871  0.54020  1.0000
  S   S486      1.0  0.49047  0.31483  0.54409  1.0000
  C   C3659     1.0  0.59233  0.36880  0.55276  1.0000
  H   H2907     1.0  0.50954  0.31850  0.67863  1.0000
  C   C3660     1.0  0.56781  0.42962  0.71820  1.0000
  C   C3661     1.0  0.57864  0.32362  0.50131  1.0000
  H   H2908     1.0  0.96672  0.54688  0.50551  1.0000
  C   C3662     1.0  0.97655  0.41593  0.69481  1.0000
  H   H2909     1.0  0.53958  0.45855  0.53975  1.0000
  H   H2910     1.0  0.50076  0.32405  0.71204  1.0000
  C   C3663     1.0  0.48995  0.45005  0.68153  1.0000
  C   C3664     1.0  0.61257  0.39454  0.53751  1.0000
  C   C3665     1.0  0.51076  0.50076  0.56840  1.0000
  C   C3666     1.0  0.60296  0.32544  0.56032  1.0000
  H   H2911     1.0  0.65197  0.31636  0.56675  1.0000
  H   H2912     1.0  0.53969  0.49360  0.52466  1.0000
  C   C3667     1.0  0.54353  0.34144  0.56025  1.0000
  H   H2913     1.0  0.57144  0.39777  0.72029  1.0000
  C   C3668     1.0  0.95545  0.32065  0.54895  1.0000
  C   C3669     1.0  0.54557  0.43188  0.63221  1.0000
  C   C3670     1.0  0.54312  0.33702  0.60134  1.0000
  C   C3671     1.0  0.53139  0.47033  0.54767  1.0000
  H   H2914     1.0  0.96013  0.41870  0.66998  1.0000
  H   H2915     1.0  0.58657  0.40629  0.58122  1.0000
  H   H2916     1.0  0.61094  0.41927  0.55374  1.0000
  H   H2917     1.0  0.74389  0.47848  0.49729  1.0000
  H   H2918     1.0  0.61222  0.36782  0.52513  1.0000
  H   H2919     1.0  0.97221  0.31988  0.57348  1.0000
  S   S487      1.0  0.83337  0.33613  0.51962  1.0000
  C   C3672     1.0  0.60548  0.40540  0.55328  1.0000
  S   S488      1.0  0.49349  0.39469  0.66608  1.0000
  C   C3673     1.0  0.58344  0.32504  0.52000  1.0000
  P   P123      1.0  0.58422  0.34511  0.55218  1.0000
  C   C3674     1.0  0.64204  0.33558  0.48933  1.0000
  H   H2920     1.0  0.52507  0.32098  0.51588  1.0000
  H   H2921     1.0  0.52428  0.41113  0.63863  1.0000
  C   C3675     1.0  0.97192  0.35588  0.70763  1.0000
  C   C3676     1.0  0.74964  0.44730  0.49487  1.0000
  C   C3677     1.0  0.86251  0.32876  0.57101  1.0000
  C   C3678     1.0  0.94543  0.57303  0.50821  1.0000
  C   C3679     1.0  0.49744  0.43062  0.67765  1.0000
  H   H2922     1.0  0.58193  0.43097  0.70897  1.0000
  C   C3680     1.0  0.87816  0.32530  0.55594  1.0000
  C   C3681     1.0  0.95920  0.32658  0.56669  1.0000
  H   H2923     1.0  0.85125  0.34147  0.56887  1.0000
  C   C3682     1.0  0.84649  0.38480  0.48353  1.0000
  C   C3683     1.0  0.97388  0.41268  0.67588  1.0000
  C   C3684     1.0  0.96194  0.56184  0.49896  1.0000
  H   H2924     1.0  0.93852  0.39303  0.49609  1.0000
  H   H2925     1.0  0.52150  0.52058  0.54307  1.0000
  C   C3685     1.0  0.96475  0.39468  0.50923  1.0000
  H   H2926     1.0  0.53758  0.47853  0.60798  1.0000
  C   C3686     1.0  0.51029  0.48093  0.57689  1.0000
  H   H2927     1.0  0.85615  0.38614  0.49423  1.0000
  H   H2928     1.0  0.50337  0.48517  0.64013  1.0000
  C   C3687     1.0  0.53442  0.46391  0.61480  1.0000
  H   H2929     1.0  0.94597  0.35689  0.49497  1.0000
  H   H2930     1.0  0.82018  0.38522  0.50489  1.0000
  H   H2931     1.0  0.49819  0.45263  0.72365  1.0000
  H   H2932     1.0  0.52119  0.45040  0.57296  1.0000
  C   C3688     1.0  0.64200  0.32244  0.50694  1.0000
  H   H2933     1.0  0.67762  0.40813  0.48274  1.0000
  C   C3689     1.0  0.51575  0.45799  0.61453  1.0000
  C   C3690     1.0  0.52091  0.46577  0.56647  1.0000
  H   H2934     1.0  0.50990  0.40607  0.71981  1.0000
  H   H2935     1.0  0.75737  0.41738  0.48826  1.0000
  H   H2936     1.0  0.50340  0.51284  0.57624  1.0000
  H   H2937     1.0  0.79831  0.38155  0.48129  1.0000
  C   C3691     1.0  0.48834  0.49585  0.61420  1.0000
  H   H2938     1.0  0.97563  0.33800  0.50774  1.0000
  S   S489      1.0  0.97201  0.31702  0.64303  1.0000
  C   C3692     1.0  0.49023  0.37702  0.61974  1.0000
  H   H2939     1.0  0.49218  0.34831  0.63720  1.0000
  C   C3693     1.0  0.55565  0.44648  0.72403  1.0000
  H   H2940     1.0  0.78316  0.31778  0.48350  1.0000
  C   C3694     1.0  0.97775  0.35570  0.72641  1.0000
  H   H2941     1.0  0.74378  0.37319  0.48426  1.0000
  C   C3695     1.0  0.57119  0.34054  0.48941  1.0000
  H   H2942     1.0  0.49328  0.37987  0.71132  1.0000
  H   H2943     1.0  0.84940  0.31868  0.60050  1.0000
  C   C3696     1.0  0.76106  0.47881  0.82564  1.0000
  Fe  Fe247     1.0  0.52575  0.32633  0.87096  1.0000
  S   S490      1.0  0.58990  0.36069  0.94508  1.0000
  H   H2944     1.0  0.51948  0.35058  0.73322  1.0000
  H   H2945     1.0  0.71190  0.45445  0.91695  1.0000
  C   C3697     1.0  0.52396  0.40380  0.82053  1.0000
  H   H2946     1.0  0.98328  0.48472  0.83711  1.0000
  H   H2947     1.0  0.92999  0.39104  0.87628  1.0000
  H   H2948     1.0  0.92846  0.33064  0.73604  1.0000
  H   H2949     1.0  0.49485  0.34160  0.76210  1.0000
  S   S491      1.0  0.51117  0.35261  0.85216  1.0000
  Fe  Fe248     1.0  0.81907  0.39968  0.92800  1.0000
  S   S492      1.0  0.82753  0.40581  0.95668  1.0000
  S   S493      1.0  0.84068  0.39042  0.90139  1.0000
  Fe  Fe249     1.0  0.77469  0.39927  0.94468  1.0000
  C   C3698     1.0  0.52222  0.38963  0.80856  1.0000
  S   S494      1.0  0.74334  0.39877  0.93746  1.0000
  S   S495      1.0  0.78007  0.40522  0.97436  1.0000
  C   C3699     1.0  0.87249  0.34431  0.84439  1.0000
  C   C3700     1.0  0.98272  0.57413  0.90510  1.0000
  C   C3701     1.0  0.49673  0.41480  0.87365  1.0000
  S   S496      1.0  0.79234  0.42319  0.92834  1.0000
  S   S497      1.0  0.80070  0.37543  0.94223  1.0000
  Fe  Fe250     1.0  0.94658  0.40336  0.78029  1.0000
  S   S498      1.0  0.97486  0.38787  0.79061  1.0000
  C   C3702     1.0  0.71945  0.44684  0.96551  1.0000
  Fe  Fe251     1.0  0.93081  0.41609  0.82170  1.0000
  S   S499      1.0  0.95831  0.40121  0.83447  1.0000
  S   S500      1.0  0.90800  0.43226  0.84330  1.0000
  Fe  Fe252     1.0  0.97519  0.41429  0.80625  1.0000
  C   C3703     1.0  0.97496  0.60535  0.94362  1.0000
  Fe  Fe253     1.0  0.95540  0.37664  0.81767  1.0000
  S   S501      1.0  0.95787  0.34536  0.83245  1.0000
  S   S502      1.0  0.94790  0.43096  0.79413  1.0000
  S   S503      1.0  0.92673  0.39041  0.80675  1.0000
  H   H2950     1.0  0.52610  0.45148  0.86684  1.0000
  H   H2951     1.0  0.84592  0.36480  0.96595  1.0000
  H   H2952     1.0  0.83487  0.32130  0.95050  1.0000
  Fe  Fe254     1.0  0.50115  0.33020  0.83641  1.0000
  C   C3704     1.0  0.51649  0.42988  0.79383  1.0000
  C   C3705     1.0  0.86019  0.40191  0.88635  1.0000
  C   C3706     1.0  0.86586  0.41953  0.89010  1.0000
  C   C3707     1.0  0.88076  0.42853  0.87697  1.0000
  C   C3708     1.0  0.89050  0.41972  0.86035  1.0000
  C   C3709     1.0  0.88532  0.40173  0.85706  1.0000
  C   C3710     1.0  0.87012  0.39302  0.86989  1.0000
  H   H2953     1.0  0.85871  0.42626  0.90299  1.0000
  H   H2954     1.0  0.88471  0.44244  0.87964  1.0000
  H   H2955     1.0  0.89259  0.39482  0.84429  1.0000
  H   H2956     1.0  0.86577  0.37947  0.86686  1.0000
  H   H2957     1.0  0.84654  0.41985  0.81567  1.0000
  H   H2958     1.0  0.52689  0.36912  0.95312  1.0000
  H   H2959     1.0  0.74785  0.44719  0.97555  1.0000
  C   C3711     1.0  0.92794  0.38055  0.90759  1.0000
  H   H2960     1.0  0.75866  0.44768  0.87871  1.0000
  H   H2961     1.0  0.91132  0.33744  0.92958  1.0000
  H   H2962     1.0  0.60227  0.32308  0.92873  1.0000
  H   H2963     1.0  0.51494  0.44546  0.78804  1.0000
  C   C3712     1.0  0.73965  0.45590  0.92739  1.0000
  H   H2964     1.0  0.83409  0.45774  0.96537  1.0000
  C   C3713     1.0  0.91411  0.34728  0.89796  1.0000
  C   C3714     1.0  0.73518  0.36256  0.95849  1.0000
  C   C3715     1.0  0.72771  0.38062  0.94833  1.0000
  C   C3716     1.0  0.70725  0.38447  0.94671  1.0000
  C   C3717     1.0  0.69436  0.37041  0.95514  1.0000
  C   C3718     1.0  0.86868  0.34086  0.97333  1.0000
  H   H2965     1.0  0.75090  0.35934  0.95971  1.0000
  H   H2966     1.0  0.70132  0.39840  0.93886  1.0000
  H   H2967     1.0  0.94688  0.48506  0.75484  1.0000
  C   C3719     1.0  0.58099  0.34937  0.92709  1.0000
  C   C3720     1.0  0.56497  0.35952  0.91749  1.0000
  C   C3721     1.0  0.55712  0.35094  0.90347  1.0000
  C   C3722     1.0  0.56559  0.33229  0.89844  1.0000
  C   C3723     1.0  0.95979  0.47507  0.74982  1.0000
  C   C3724     1.0  0.58958  0.33080  0.92193  1.0000
  H   H2968     1.0  0.55843  0.37402  0.92114  1.0000
  H   H2969     1.0  0.54472  0.35888  0.89634  1.0000
  S   S504      1.0  0.56078  0.35753  0.73031  1.0000
  C   C3725     1.0  0.54276  0.35119  0.75069  1.0000
  C   C3726     1.0  0.52355  0.34870  0.74799  1.0000
  C   C3727     1.0  0.50962  0.34351  0.76442  1.0000
  C   C3728     1.0  0.51468  0.34073  0.78376  1.0000
  C   C3729     1.0  0.53395  0.34302  0.78653  1.0000
  C   C3730     1.0  0.54788  0.34836  0.77005  1.0000
  H   H2970     1.0  0.97213  0.57783  0.91773  1.0000
  H   H2971     1.0  0.49630  0.39958  0.88048  1.0000
  H   H2972     1.0  0.53813  0.34073  0.80133  1.0000
  C   C3731     1.0  0.51326  0.42423  0.87417  1.0000
  H   H2973     1.0  0.97863  0.31762  0.85962  1.0000
  C   C3732     1.0  0.53098  0.42595  0.74156  1.0000
  H   H2974     1.0  0.51655  0.38425  0.78022  1.0000
  C   C3733     1.0  0.53741  0.44466  0.73590  1.0000
  C   C3734     1.0  0.84442  0.43118  0.82540  1.0000
  C   C3735     1.0  0.86005  0.44171  0.82636  1.0000
  C   C3736     1.0  0.85739  0.45634  0.83889  1.0000
  C   C3737     1.0  0.83919  0.46028  0.85071  1.0000
  C   C3738     1.0  0.82362  0.44926  0.85037  1.0000
  C   C3739     1.0  0.82617  0.43511  0.83716  1.0000
  P   P124      1.0  0.79988  0.45458  0.86517  1.0000
  C   C3740     1.0  0.78861  0.43235  0.87415  1.0000
  C   C3741     1.0  0.80244  0.46433  0.88744  1.0000
  C   C3742     1.0  0.78731  0.47796  0.89573  1.0000
  C   C3743     1.0  0.78895  0.48460  0.91360  1.0000
  C   C3744     1.0  0.80552  0.47750  0.92341  1.0000
  C   C3745     1.0  0.82041  0.46363  0.91547  1.0000
  C   C3746     1.0  0.81879  0.45694  0.89764  1.0000
  C   C3747     1.0  0.76802  0.43356  0.88012  1.0000
  C   C3748     1.0  0.91143  0.32992  0.85140  1.0000
  C   C3749     1.0  0.77138  0.39829  0.89130  1.0000
  C   C3750     1.0  0.79189  0.39702  0.88559  1.0000
  C   C3751     1.0  0.80049  0.41399  0.87714  1.0000
  C   C3752     1.0  0.78488  0.47196  0.84939  1.0000
  C   C3753     1.0  0.77226  0.46528  0.83828  1.0000
  H   H2975     1.0  0.76514  0.45611  0.94220  1.0000
  H   H2976     1.0  0.97795  0.45395  0.82498  1.0000
  C   C3754     1.0  0.77554  0.50572  0.83445  1.0000
  C   C3755     1.0  0.78676  0.49222  0.84710  1.0000
  C   C3756     1.0  0.52731  0.32259  0.94180  1.0000
  H   H2977     1.0  0.69389  0.44699  0.95034  1.0000
  H   H2978     1.0  0.86968  0.46427  0.83973  1.0000
  H   H2979     1.0  0.83743  0.47175  0.86022  1.0000
  H   H2980     1.0  0.81415  0.42694  0.83611  1.0000
  H   H2981     1.0  0.77411  0.48320  0.88864  1.0000
  H   H2982     1.0  0.77722  0.49499  0.92010  1.0000
  H   H2983     1.0  0.80662  0.48240  0.93744  1.0000
  H   H2984     1.0  0.83296  0.45770  0.92339  1.0000
  H   H2985     1.0  0.83000  0.44563  0.89203  1.0000
  H   H2986     1.0  0.94319  0.45056  0.75094  1.0000
  C   C3757     1.0  0.92640  0.37909  0.88786  1.0000
  H   H2987     1.0  0.92666  0.32474  0.85390  1.0000
  H   H2988     1.0  0.80127  0.38301  0.88836  1.0000
  H   H2989     1.0  0.81650  0.41282  0.87358  1.0000
  H   H2990     1.0  0.85743  0.35014  0.84169  1.0000
  C   C3758     1.0  0.96658  0.59203  0.97799  1.0000
  H   H2991     1.0  0.92350  0.36667  0.93787  1.0000
  H   H2992     1.0  0.77698  0.52136  0.83279  1.0000
  H   H2993     1.0  0.79698  0.49758  0.85498  1.0000
  C   C3759     1.0  0.98225  0.33340  0.83011  1.0000
  H   H2994     1.0  0.86498  0.34110  0.87592  1.0000
  H   H2995     1.0  0.52570  0.41627  0.88134  1.0000
  H   H2996     1.0  0.74756  0.45917  0.91272  1.0000
  C   C3760     1.0  0.76263  0.49902  0.82379  1.0000
  C   C3761     1.0  0.53006  0.35315  0.95403  1.0000
  H   H2997     1.0  0.93529  0.32587  0.97437  1.0000
  C   C3762     1.0  0.75946  0.41655  0.88857  1.0000
  Fe  Fe255     1.0  0.80735  0.38329  0.97076  1.0000
  Fe  Fe256     1.0  0.79945  0.42751  0.95832  1.0000
  C   C3763     1.0  0.88759  0.34248  0.82844  1.0000
  H   H2998     1.0  0.50374  0.49040  0.78887  1.0000
  H   H2999     1.0  0.84169  0.35377  0.93185  1.0000
  C   C3764     1.0  0.84982  0.35186  0.97626  1.0000
  H   H3000     1.0  0.93282  0.39363  0.91128  1.0000
  H   H3001     1.0  0.87115  0.35612  0.90688  1.0000
  H   H3002     1.0  0.97108  0.61561  0.93081  1.0000
  C   C3765     1.0  0.85151  0.34043  0.92876  1.0000
  P   P125      1.0  0.50773  0.42318  0.75723  1.0000
  C   C3766     1.0  0.88118  0.32457  0.91043  1.0000
  S   S505      1.0  0.94139  0.40259  0.74829  1.0000
  S   S506      1.0  0.79140  0.45566  0.97300  1.0000
  C   C3767     1.0  0.94361  0.34448  0.77611  1.0000
  H   H3003     1.0  0.76477  0.38527  0.89848  1.0000
  H   H3004     1.0  0.75127  0.47358  0.81716  1.0000
  C   C3768     1.0  0.54691  0.32209  0.96842  1.0000
  C   C3769     1.0  0.95354  0.38449  0.73287  1.0000
  H   H3005     1.0  0.96600  0.32796  0.79273  1.0000
  H   H3006     1.0  0.94177  0.35700  0.78433  1.0000
  C   C3770     1.0  0.51738  0.39553  0.78937  1.0000
  H   H3007     1.0  0.91818  0.36202  0.86765  1.0000
  S   S507      1.0  0.63443  0.32025  0.96530  1.0000
  H   H3008     1.0  0.97385  0.36980  0.75303  1.0000
  H   H3009     1.0  0.77119  0.44963  0.83921  1.0000
  C   C3771     1.0  0.52128  0.42392  0.81311  1.0000
  C   C3772     1.0  0.72235  0.34842  0.96672  1.0000
  H   H3010     1.0  0.92285  0.35851  0.75610  1.0000
  C   C3773     1.0  0.49734  0.45431  0.85682  1.0000
  H   H3011     1.0  0.96227  0.55910  0.89374  1.0000
  H   H3012     1.0  0.74366  0.41753  0.89374  1.0000
  S   S508      1.0  0.49889  0.32383  0.89365  1.0000
  H   H3013     1.0  0.97265  0.42748  0.74043  1.0000
  C   C3774     1.0  0.95738  0.32796  0.78083  1.0000
  H   H3014     1.0  0.94805  0.61511  0.96203  1.0000
  H   H3015     1.0  0.56274  0.35016  0.77230  1.0000
  H   H3016     1.0  0.52117  0.31522  0.93178  1.0000
  H   H3017     1.0  0.67871  0.37343  0.95356  1.0000
  H   H3018     1.0  0.52325  0.43480  0.82224  1.0000
  H   H3019     1.0  0.75401  0.50948  0.81392  1.0000
  C   C3775     1.0  0.91958  0.36251  0.88302  1.0000
  H   H3020     1.0  0.91891  0.33420  0.81968  1.0000
  C   C3776     1.0  0.73972  0.44905  0.96290  1.0000
  H   H3021     1.0  0.51317  0.35130  0.93054  1.0000
  C   C3777     1.0  0.48934  0.49149  0.79788  1.0000
  H   H3022     1.0  0.54870  0.35049  0.97709  1.0000
  C   C3778     1.0  0.84765  0.32211  0.93918  1.0000
  C   C3779     1.0  0.51349  0.44403  0.86592  1.0000
  C   C3780     1.0  0.95570  0.36865  0.96970  1.0000
  C   C3781     1.0  0.97435  0.44263  0.74161  1.0000
  C   C3782     1.0  0.90705  0.33524  0.83196  1.0000
  C   C3783     1.0  0.71957  0.45330  0.92980  1.0000
  H   H3023     1.0  0.52487  0.37400  0.81401  1.0000
  C   C3784     1.0  0.51396  0.41571  0.78205  1.0000
  H   H3024     1.0  0.87437  0.43838  0.81761  1.0000
  H   H3025     1.0  0.52845  0.45785  0.74063  1.0000
  C   C3785     1.0  0.97705  0.56346  0.89154  1.0000
  C   C3786     1.0  0.54235  0.34264  0.96754  1.0000
  C   C3787     1.0  0.93291  0.34529  0.76021  1.0000
  C   C3788     1.0  0.92273  0.36539  0.92252  1.0000
  C   C3789     1.0  0.91582  0.34882  0.91775  1.0000
  C   C3790     1.0  0.49509  0.40478  0.75008  1.0000
  H   H3026     1.0  0.52777  0.39911  0.83541  1.0000
  S   S509      1.0  0.55697  0.32125  0.88008  1.0000
  C   C3791     1.0  0.89643  0.33202  0.86750  1.0000
  C   C3792     1.0  0.87686  0.33913  0.86386  1.0000
  C   C3793     1.0  0.93606  0.32956  0.74895  1.0000
  H   H3027     1.0  0.88428  0.34692  0.81338  1.0000
  C   C3794     1.0  0.98448  0.57927  0.97709  1.0000
  Fe  Fe257     1.0  0.61059  0.34629  0.96792  1.0000
  H   H3028     1.0  0.97984  0.49660  0.74750  1.0000
  C   C3795     1.0  0.95769  0.45566  0.74766  1.0000
  C   C3796     1.0  0.86826  0.34170  0.91459  1.0000
  H   H3029     1.0  0.72834  0.33436  0.97428  1.0000
  H   H3030     1.0  0.87920  0.34532  0.96069  1.0000
  H   H3031     1.0  0.72798  0.40536  0.97593  1.0000
  S   S510      1.0  0.68667  0.33344  0.97493  1.0000
  C   C3797     1.0  0.82778  0.46618  0.97737  1.0000
  S   S511      1.0  0.49630  0.33470  0.80387  1.0000
  C   C3798     1.0  0.74963  0.45399  0.94396  1.0000
  H   H3032     1.0  0.98451  0.36931  0.89904  1.0000
  C   C3799     1.0  0.70942  0.44893  0.94881  1.0000
  H   H3033     1.0  0.53945  0.39443  0.74134  1.0000
  H   H3034     1.0  0.49753  0.46980  0.85105  1.0000
  P   P126      1.0  0.90302  0.32688  0.89240  1.0000
  C   C3800     1.0  0.54365  0.40907  0.73632  1.0000
  H   H3035     1.0  0.88876  0.43256  0.96851  1.0000
  C   C3801     1.0  0.96897  0.37012  0.73876  1.0000
  C   C3802     1.0  0.95254  0.35016  0.96568  1.0000
  H   H3036     1.0  0.96158  0.34341  0.95351  1.0000
  C   C3803     1.0  0.70190  0.35221  0.96505  1.0000
  H   H3037     1.0  0.49581  0.46357  0.81573  1.0000
  C   C3804     1.0  0.96186  0.60510  0.96128  1.0000
  H   H3038     1.0  0.96721  0.37628  0.96058  1.0000
  C   C3805     1.0  0.52244  0.34311  0.94126  1.0000
  C   C3806     1.0  0.58199  0.32238  0.90762  1.0000
  C   C3807     1.0  0.49923  0.39921  0.73093  1.0000
  C   C3808     1.0  0.97854  0.48152  0.74571  1.0000
  C   C3809     1.0  0.49039  0.44561  0.75534  1.0000
  C   C3810     1.0  0.93771  0.34027  0.97743  1.0000
  C   C3811     1.0  0.48911  0.45721  0.73687  1.0000
  H   H3039     1.0  0.98605  0.55032  0.86445  1.0000
  H   H3040     1.0  0.94136  0.31416  0.90847  1.0000
  Fe  Fe258     1.0  0.86378  0.95820  0.12058  1.0000
  S   S512      1.0  0.84148  0.94993  0.14684  1.0000
  S   S513      1.0  0.88891  0.93762  0.10603  1.0000
  Fe  Fe259     1.0  0.81863  0.96881  0.12906  1.0000
  S   S514      1.0  0.78623  0.96550  0.12597  1.0000
  H   H3041     1.0  0.96199  0.73621  0.01194  1.0000
  C   C3812     1.0  0.67626  0.88283  0.99920  1.0000
  C   C3813     1.0  0.51027  0.91901  0.09438  1.0000
  Fe  Fe260     1.0  0.96507  0.84723  0.14796  1.0000
  Fe  Fe261     1.0  0.92467  0.65662  0.08761  1.0000
  S   S515      1.0  0.93453  0.86430  0.15629  1.0000
  H   H3042     1.0  0.60610  0.87125  0.21851  1.0000
  H   H3043     1.0  0.95902  0.89220  0.18890  1.0000
  C   C3814     1.0  0.57960  0.81458  0.18908  1.0000
  H   H3044     1.0  0.94687  0.88866  0.11902  1.0000
  Fe  Fe262     1.0  0.94384  0.69449  0.09085  1.0000
  S   S516      1.0  0.97236  0.67684  0.09889  1.0000
  S   S517      1.0  0.94301  0.72828  0.08825  1.0000
  H   H3045     1.0  0.61901  0.96660  0.02030  1.0000
  P   P127      1.0  0.52372  0.82333  0.22013  1.0000
  C   C3815     1.0  0.50886  0.75493  0.00114  1.0000
  S   S518      1.0  0.92392  0.67539  0.11222  1.0000
  S   S519      1.0  0.94191  0.67766  0.06515  1.0000
  Fe  Fe263     1.0  0.58412  0.79522  0.05751  1.0000
  S   S520      1.0  0.55339  0.81200  0.06044  1.0000
  S   S521      1.0  0.61060  0.81300  0.04666  1.0000
  Fe  Fe264     1.0  0.56663  0.75507  0.06735  1.0000
  S   S522      1.0  0.53509  0.76983  0.07088  1.0000
  S   S523      1.0  0.57267  0.72141  0.07448  1.0000
  Fe  Fe265     1.0  0.54463  0.78999  0.04344  1.0000
  S   S524      1.0  0.52497  0.80304  0.01964  1.0000
  Fe  Fe266     1.0  0.54695  0.79023  0.08737  1.0000
  S   S525      1.0  0.53162  0.79931  0.11656  1.0000
  S   S526      1.0  0.57577  0.77415  0.03861  1.0000
  S   S527      1.0  0.57809  0.77446  0.08569  1.0000
  Fe  Fe267     1.0  0.71084  0.91517  0.07696  1.0000
  S   S528      1.0  0.70022  0.94490  0.06136  1.0000
  S   S529      1.0  0.74188  0.90846  0.08685  1.0000
  Fe  Fe268     1.0  0.67184  0.89803  0.07361  1.0000
  S   S530      1.0  0.65866  0.92697  0.05797  1.0000
  S   S531      1.0  0.65301  0.87256  0.08497  1.0000
  Fe  Fe269     1.0  0.68894  0.92831  0.04072  1.0000
  S   S532      1.0  0.69243  0.93893  0.00791  1.0000
  Fe  Fe270     1.0  0.67096  0.94117  0.07990  1.0000
  H   H3046     1.0  0.58994  0.96174  0.22329  1.0000
  S   S533      1.0  0.70175  0.89832  0.05462  1.0000
  S   S534      1.0  0.68208  0.91245  0.09716  1.0000
  C   C3816     1.0  0.72375  0.96123  0.20100  1.0000
  C   C3817     1.0  0.68704  0.96488  0.00285  1.0000
  C   C3818     1.0  0.51707  0.88237  0.08012  1.0000
  C   C3819     1.0  0.54160  0.87768  0.03692  1.0000
  H   H3047     1.0  0.52855  0.87295  0.01164  1.0000
  C   C3820     1.0  0.62128  0.83024  0.05760  1.0000
  C   C3821     1.0  0.63226  0.84413  0.04524  1.0000
  C   C3822     1.0  0.64190  0.85732  0.05324  1.0000
  C   C3823     1.0  0.64088  0.85665  0.07379  1.0000
  C   C3824     1.0  0.62985  0.84280  0.08612  1.0000
  C   C3825     1.0  0.61996  0.82984  0.07812  1.0000
  H   H3048     1.0  0.63330  0.84465  0.02936  1.0000
  H   H3049     1.0  0.65025  0.86789  0.04353  1.0000
  H   H3050     1.0  0.62911  0.84194  0.10202  1.0000
  H   H3051     1.0  0.61192  0.81903  0.08781  1.0000
  C   C3826     1.0  0.64669  0.66619  0.07462  1.0000
  C   C3827     1.0  0.50136  0.79608  0.99321  1.0000
  C   C3828     1.0  0.51416  0.78749  0.00721  1.0000
  H   H3052     1.0  0.50975  0.95232  0.13088  1.0000
  C   C3829     1.0  0.97546  0.73286  0.01891  1.0000
  H   H3053     1.0  0.92828  0.91681  0.09940  1.0000
  H   H3054     1.0  0.59443  0.81752  0.19026  1.0000
  C   C3830     1.0  0.62284  0.97802  0.04678  1.0000
  C   C3831     1.0  0.50868  0.81356  0.11341  1.0000
  C   C3832     1.0  0.50233  0.81761  0.09468  1.0000
  C   C3833     1.0  0.49424  0.90915  0.09301  1.0000
  C   C3834     1.0  0.49201  0.78416  0.98352  1.0000
  H   H3055     1.0  0.51117  0.81130  0.08221  1.0000
  H   H3056     1.0  0.66019  0.95231  0.16485  1.0000
  C   C3835     1.0  0.54453  0.81606  0.20206  1.0000
  H   H3057     1.0  0.97360  0.73232  0.14809  1.0000
  C   C3836     1.0  0.63600  0.96429  0.11176  1.0000
  C   C3837     1.0  0.63528  0.94541  0.12244  1.0000
  H   H3058     1.0  0.52777  0.76007  0.02184  1.0000
  C   C3838     1.0  0.57549  0.90029  0.06219  1.0000
  H   H3059     1.0  0.64568  0.93303  0.11786  1.0000
  C   C3839     1.0  0.51787  0.76685  0.01116  1.0000
  H   H3060     1.0  0.77264  0.97679  0.06729  1.0000
  C   C3840     1.0  0.66750  0.86550  0.00083  1.0000
  C   C3841     1.0  0.52064  0.68407  0.08718  1.0000
  C   C3842     1.0  0.53867  0.67687  0.09450  1.0000
  C   C3843     1.0  0.55444  0.68848  0.09063  1.0000
  C   C3844     1.0  0.55239  0.70732  0.07936  1.0000
  C   C3845     1.0  0.53440  0.71438  0.07191  1.0000
  C   C3846     1.0  0.51862  0.70284  0.07584  1.0000
  H   H3061     1.0  0.56812  0.68301  0.09673  1.0000
  H   H3062     1.0  0.53269  0.72866  0.06291  1.0000
  H   H3063     1.0  0.50485  0.70849  0.06990  1.0000
  C   C3847     1.0  0.96341  0.95428  0.21493  1.0000
  C   C3848     1.0  0.96465  0.77061  0.11197  1.0000
  C   C3849     1.0  0.95616  0.76058  0.09948  1.0000
  C   C3850     1.0  0.95405  0.74032  0.10433  1.0000
  C   C3851     1.0  0.96049  0.73026  0.12193  1.0000
  H   H3064     1.0  0.71975  0.95692  0.21673  1.0000
  C   C3852     1.0  0.50446  0.84206  0.18842  1.0000
  H   H3065     1.0  0.95127  0.76857  0.08593  1.0000
  H   H3066     1.0  0.95880  0.71475  0.12605  1.0000
  C   C3853     1.0  0.93490  0.94991  0.14692  1.0000
  C   C3854     1.0  0.77514  0.95012  0.11319  1.0000
  C   C3855     1.0  0.75564  0.95629  0.10855  1.0000
  C   C3856     1.0  0.74553  0.94395  0.10005  1.0000
  C   C3857     1.0  0.75464  0.92510  0.09624  1.0000
  C   C3858     1.0  0.77430  0.91909  0.10041  1.0000
  C   C3859     1.0  0.78454  0.93154  0.10871  1.0000
  H   H3067     1.0  0.74821  0.97066  0.11164  1.0000
  H   H3068     1.0  0.73050  0.94883  0.09683  1.0000
  H   H3069     1.0  0.78156  0.90456  0.09750  1.0000
  H   H3070     1.0  0.79946  0.92648  0.11224  1.0000
  C   C3860     1.0  0.90160  0.91751  0.12034  1.0000
  C   C3861     1.0  0.89230  0.90835  0.13809  1.0000
  C   C3862     1.0  0.90247  0.89175  0.14862  1.0000
  C   C3863     1.0  0.92220  0.88455  0.14184  1.0000
  C   C3864     1.0  0.93160  0.89387  0.12421  1.0000
  C   C3865     1.0  0.92115  0.91000  0.11329  1.0000
  H   H3071     1.0  0.87717  0.91384  0.14352  1.0000
  H   H3072     1.0  0.89508  0.88461  0.16222  1.0000
  C   C3866     1.0  0.49697  0.76154  0.10938  1.0000
  H   H3073     1.0  0.53026  0.88981  0.04041  1.0000
  Fe  Fe271     1.0  0.95252  0.65693  0.11858  1.0000
  C   C3867     1.0  0.49687  0.82136  0.12958  1.0000
  C   C3868     1.0  0.56375  0.81989  0.20343  1.0000
  C   C3869     1.0  0.74654  0.81103  0.99077  1.0000
  H   H3074     1.0  0.51029  0.70097  0.00174  1.0000
  C   C3870     1.0  0.58320  0.93355  0.04964  1.0000
  C   C3871     1.0  0.64029  0.93743  0.99529  1.0000
  C   C3872     1.0  0.52973  0.91074  0.08830  1.0000
  C   C3873     1.0  0.56310  0.92360  0.22580  1.0000
  C   C3874     1.0  0.70258  0.91664  0.13994  1.0000
  C   C3875     1.0  0.68418  0.91033  0.14746  1.0000
  C   C3876     1.0  0.66901  0.92330  0.15642  1.0000
  C   C3877     1.0  0.67214  0.94265  0.15771  1.0000
  C   C3878     1.0  0.60984  0.90693  0.05551  1.0000
  C   C3879     1.0  0.70577  0.93592  0.14128  1.0000
  C   C3880     1.0  0.74356  0.96307  0.19343  1.0000
  C   C3881     1.0  0.95780  0.93591  0.21301  1.0000
  C   C3882     1.0  0.50495  0.97133  0.15382  1.0000
  H   H3075     1.0  0.69162  0.96652  0.11115  1.0000
  P   P128      1.0  0.55794  0.88272  0.07047  1.0000
  H   H3076     1.0  0.81881  0.94496  0.99182  1.0000
  H   H3077     1.0  0.62200  0.91464  0.00778  1.0000
  C   C3883     1.0  0.61191  0.93134  0.98121  1.0000
  C   C3884     1.0  0.93561  0.93006  0.15560  1.0000
  H   H3078     1.0  0.55217  0.84141  0.08416  1.0000
  H   H3079     1.0  0.62312  0.69039  0.07859  1.0000
  P   P129      1.0  0.97572  0.91379  0.21480  1.0000
  H   H3080     1.0  0.87989  0.90061  0.20063  1.0000
  H   H3081     1.0  0.65841  0.67490  0.07531  1.0000
  H   H3082     1.0  0.70131  0.86359  0.09125  1.0000
  H   H3083     1.0  0.51946  0.86788  0.07516  1.0000
  C   C3885     1.0  0.60348  0.92692  0.04982  1.0000
  C   C3886     1.0  0.54072  0.86840  0.02038  1.0000
  C   C3887     1.0  0.58770  0.85588  0.11675  1.0000
  H   H3084     1.0  0.71437  0.90668  0.13284  1.0000
  H   H3085     1.0  0.68164  0.89544  0.14618  1.0000
  H   H3086     1.0  0.65473  0.91843  0.16220  1.0000
  H   H3087     1.0  0.55363  0.92552  0.05498  1.0000
  H   H3088     1.0  0.72019  0.94052  0.13562  1.0000
  C   C3888     1.0  0.49570  0.76351  0.98748  1.0000
  H   H3089     1.0  0.56273  0.91075  0.21864  1.0000
  H   H3090     1.0  0.56797  0.81597  0.10825  1.0000
  C   C3889     1.0  0.57106  0.83113  0.10678  1.0000
  H   H3091     1.0  0.63128  0.96454  0.05298  1.0000
  H   H3092     1.0  0.72761  0.83733  0.99809  1.0000
  C   C3890     1.0  0.98270  0.92469  0.12642  1.0000
  H   H3093     1.0  0.73571  0.85026  0.09771  1.0000
  H   H3094     1.0  0.50754  0.93291  0.10055  1.0000
  C   C3891     1.0  0.97437  0.72603  0.03916  1.0000
  C   C3892     1.0  0.57639  0.80526  0.17334  1.0000
  C   C3893     1.0  0.80527  0.95530  0.99325  1.0000
  C   C3894     1.0  0.59595  0.89364  0.06138  1.0000
  H   H3095     1.0  0.55456  0.84546  0.00270  1.0000
  H   H3096     1.0  0.65028  0.93371  0.00652  1.0000
  C   C3895     1.0  0.56236  0.84548  0.09290  1.0000
  S   S535      1.0  0.97558  0.82241  0.17092  1.0000
  H   H3097     1.0  0.48804  0.82808  0.01912  1.0000
  C   C3896     1.0  0.75202  0.79080  0.99630  1.0000
  H   H3098     1.0  0.71427  0.86557  0.02620  1.0000
  C   C3897     1.0  0.55680  0.87106  0.04890  1.0000
  Fe  Fe272     1.0  0.96947  0.65916  0.07486  1.0000
  C   C3898     1.0  0.94817  0.86711  0.20739  1.0000
  C   C3899     1.0  0.91981  0.92396  0.16935  1.0000
  C   C3900     1.0  0.84379  0.97403  0.04012  1.0000
  H   H3099     1.0  0.74687  0.76550  0.01804  1.0000
  C   C3901     1.0  0.48695  0.65084  0.17641  1.0000
  S   S536      1.0  0.49988  0.67070  0.09256  1.0000
  S   S537      1.0  0.65419  0.96852  0.09139  1.0000
  H   H3100     1.0  0.59094  0.82505  0.12897  1.0000
  H   H3101     1.0  0.82702  0.96128  0.02253  1.0000
  H   H3102     1.0  0.67003  0.89638  0.99088  1.0000
  H   H3103     1.0  0.76360  0.78257  0.98710  1.0000
  C   C3902     1.0  0.62687  0.67489  0.07650  1.0000
  H   H3104     1.0  0.51457  0.73328  0.10608  1.0000
  H   H3105     1.0  0.50970  0.76894  0.10995  1.0000
  H   H3106     1.0  0.69997  0.89613  0.00704  1.0000
  H   H3107     1.0  0.54040  0.66248  0.10332  1.0000
  C   C3903     1.0  0.57198  0.85625  0.04308  1.0000
  H   H3108     1.0  0.57378  0.85846  0.22138  1.0000
  C   C3904     1.0  0.57912  0.87019  0.10276  1.0000
  C   C3905     1.0  0.53318  0.89280  0.08023  1.0000
  H   H3109     1.0  0.51439  0.66543  0.01584  1.0000
  C   C3906     1.0  0.96355  0.89171  0.21951  1.0000
  C   C3907     1.0  0.95698  0.86045  0.08595  1.0000
  C   C3908     1.0  0.96368  0.85584  0.06682  1.0000
  C   C3909     1.0  0.95293  0.84461  0.05803  1.0000
  C   C3910     1.0  0.93569  0.83766  0.06853  1.0000
  C   C3911     1.0  0.92911  0.84185  0.08799  1.0000
  C   C3912     1.0  0.93978  0.85348  0.09650  1.0000
  P   P130      1.0  0.90680  0.83319  0.10184  1.0000
  C   C3913     1.0  0.88611  0.85278  0.10046  1.0000
  C   C3914     1.0  0.90159  0.81209  0.09150  1.0000
  C   C3915     1.0  0.89171  0.81521  0.07459  1.0000
  C   C3916     1.0  0.88829  0.79912  0.06591  1.0000
  C   C3917     1.0  0.89477  0.77978  0.07396  1.0000
  C   C3918     1.0  0.90455  0.77652  0.09076  1.0000
  C   C3919     1.0  0.90792  0.79254  0.09954  1.0000
  C   C3920     1.0  0.86655  0.84809  0.10361  1.0000
  C   C3921     1.0  0.85041  0.86316  0.10352  1.0000
  C   C3922     1.0  0.85366  0.88300  0.10045  1.0000
  C   C3923     1.0  0.87305  0.88778  0.09747  1.0000
  C   C3924     1.0  0.88923  0.87278  0.09757  1.0000
  C   C3925     1.0  0.91089  0.82623  0.12747  1.0000
  C   C3926     1.0  0.92810  0.81370  0.13214  1.0000
  C   C3927     1.0  0.93143  0.80814  0.15186  1.0000
  C   C3928     1.0  0.91785  0.81545  0.16710  1.0000
  C   C3929     1.0  0.90080  0.82822  0.16262  1.0000
  C   C3930     1.0  0.89729  0.83360  0.14289  1.0000
  H   H3110     1.0  0.96548  0.86894  0.09285  1.0000
  C   C3931     1.0  0.96882  0.74031  0.13447  1.0000
  C   C3932     1.0  0.89725  0.90029  0.22435  1.0000
  H   H3111     1.0  0.92773  0.82890  0.06144  1.0000
  H   H3112     1.0  0.93502  0.85680  0.11151  1.0000
  H   H3113     1.0  0.88688  0.83011  0.06796  1.0000
  H   H3114     1.0  0.88076  0.80163  0.05283  1.0000
  H   H3115     1.0  0.89235  0.76727  0.06718  1.0000
  H   H3116     1.0  0.90975  0.76149  0.09692  1.0000
  H   H3117     1.0  0.91559  0.78936  0.11247  1.0000
  H   H3118     1.0  0.86377  0.83278  0.10648  1.0000
  H   H3119     1.0  0.83535  0.85947  0.10608  1.0000
  H   H3120     1.0  0.84118  0.89471  0.10061  1.0000
  H   H3121     1.0  0.87556  0.90317  0.09538  1.0000
  H   H3122     1.0  0.90404  0.87695  0.09573  1.0000
  H   H3123     1.0  0.93899  0.80820  0.12050  1.0000
  H   H3124     1.0  0.94472  0.79834  0.15531  1.0000
  H   H3125     1.0  0.92073  0.81148  0.18233  1.0000
  H   H3126     1.0  0.89052  0.83427  0.17441  1.0000
  H   H3127     1.0  0.88416  0.84375  0.13985  1.0000
  C   C3933     1.0  0.50234  0.83056  0.20706  1.0000
  H   H3128     1.0  0.94797  0.91910  0.15148  1.0000
  H   H3129     1.0  0.58277  0.83544  0.02219  1.0000
  C   C3934     1.0  0.86290  0.91499  0.22467  1.0000
  C   C3935     1.0  0.90261  0.95736  0.16609  1.0000
  H   H3130     1.0  0.57832  0.94903  0.04495  1.0000
  C   C3936     1.0  0.55733  0.80122  0.17195  1.0000
  H   H3131     1.0  0.50160  0.81798  0.14416  1.0000
  C   C3937     1.0  0.49764  0.89065  0.08624  1.0000
  C   C3938     1.0  0.97135  0.96929  0.13940  1.0000
  C   C3939     1.0  0.62239  0.98024  0.11772  1.0000
  H   H3132     1.0  0.51833  0.84773  0.18258  1.0000
  H   H3133     1.0  0.55478  0.79401  0.15973  1.0000
  H   H3134     1.0  0.52684  0.80310  0.18500  1.0000
  P   P131      1.0  0.69537  0.97386  0.15148  1.0000
  H   H3135     1.0  0.52155  0.65262  0.20635  1.0000
  H   H3136     1.0  0.89052  0.93289  0.18428  1.0000
  H   H3137     1.0  0.88976  0.96789  0.17005  1.0000
  H   H3138     1.0  0.95088  0.97506  0.16581  1.0000
  C   C3940     1.0  0.60808  0.95871  0.14565  1.0000
  C   C3941     1.0  0.50150  0.67524  0.02118  1.0000
  H   H3139     1.0  0.94369  0.86130  0.19520  1.0000
  H   H3140     1.0  0.96008  0.72410  0.04786  1.0000
  H   H3141     1.0  0.97732  0.86084  0.05894  1.0000
  C   C3942     1.0  0.50765  0.65002  0.20218  1.0000
  C   C3943     1.0  0.92409  0.95203  0.21032  1.0000
  H   H3142     1.0  0.60135  0.91860  0.10684  1.0000
  H   H3143     1.0  0.68727  0.85301  0.06421  1.0000
  H   H3144     1.0  0.66834  0.83493  0.01293  1.0000
  C   C3944     1.0  0.91842  0.96358  0.15257  1.0000
  H   H3145     1.0  0.98297  0.77073  0.05424  1.0000
  C   C3945     1.0  0.61175  0.66368  0.07559  1.0000
  H   H3146     1.0  0.59765  0.85991  0.12585  1.0000
  C   C3946     1.0  0.50071  0.93563  0.20553  1.0000
  H   H3147     1.0  0.65618  0.96067  0.97958  1.0000
  C   C3947     1.0  0.51883  0.94314  0.20015  1.0000
  C   C3948     1.0  0.53405  0.93360  0.18767  1.0000
  C   C3949     1.0  0.53103  0.91665  0.18005  1.0000
  C   C3950     1.0  0.51296  0.90878  0.18610  1.0000
  P   P132      1.0  0.55099  0.90405  0.16440  1.0000
  C   C3951     1.0  0.56913  0.89276  0.18055  1.0000
  C   C3952     1.0  0.54133  0.88620  0.15305  1.0000
  C   C3953     1.0  0.55008  0.86635  0.15408  1.0000
  C   C3954     1.0  0.54231  0.85293  0.14493  1.0000
  C   C3955     1.0  0.52614  0.85931  0.13442  1.0000
  C   C3956     1.0  0.51718  0.87892  0.13367  1.0000
  C   C3957     1.0  0.52492  0.89243  0.14262  1.0000
  C   C3958     1.0  0.58727  0.90027  0.17932  1.0000
  C   C3959     1.0  0.60067  0.89231  0.19278  1.0000
  C   C3960     1.0  0.59589  0.87710  0.20782  1.0000
  C   C3961     1.0  0.57771  0.86981  0.20936  1.0000
  C   C3962     1.0  0.56438  0.87757  0.19576  1.0000
  C   C3963     1.0  0.56215  0.92009  0.14384  1.0000
  C   C3964     1.0  0.57893  0.91235  0.13165  1.0000
  C   C3965     1.0  0.58806  0.92451  0.11583  1.0000
  C   C3966     1.0  0.58042  0.94449  0.11202  1.0000
  C   C3967     1.0  0.56349  0.95221  0.12383  1.0000
  C   C3968     1.0  0.55432  0.94004  0.13961  1.0000
  C   C3969     1.0  0.97091  0.76056  0.12967  1.0000
  C   C3970     1.0  0.96441  0.93352  0.09820  1.0000
  H   H3148     1.0  0.52083  0.95671  0.20521  1.0000
  H   H3149     1.0  0.54804  0.93964  0.18375  1.0000
  H   H3150     1.0  0.51031  0.89534  0.18117  1.0000
  H   H3151     1.0  0.56298  0.86119  0.16165  1.0000
  H   H3152     1.0  0.54889  0.83759  0.14574  1.0000
  H   H3153     1.0  0.52055  0.84906  0.12685  1.0000
  H   H3154     1.0  0.65438  0.86556  0.99380  1.0000
  H   H3155     1.0  0.51788  0.90770  0.14164  1.0000
  H   H3156     1.0  0.59093  0.91265  0.16839  1.0000
  H   H3157     1.0  0.61454  0.89835  0.19182  1.0000
  C   C3971     1.0  0.49781  0.91839  0.19859  1.0000
  H   H3158     1.0  0.58869  0.80097  0.16233  1.0000
  H   H3159     1.0  0.55021  0.87203  0.19728  1.0000
  H   H3160     1.0  0.58521  0.89699  0.13468  1.0000
  C   C3972     1.0  0.56640  0.67373  0.03686  1.0000
  P   P133      1.0  0.95438  0.95812  0.12817  1.0000
  C   C3973     1.0  0.69048  0.94919  0.14983  1.0000
  H   H3161     1.0  0.54136  0.94634  0.14859  1.0000
  C   C3974     1.0  0.82665  0.97239  0.03217  1.0000
  H   H3162     1.0  0.75494  0.96024  0.20324  1.0000
  H   H3163     1.0  0.75565  0.82535  0.07765  1.0000
  C   C3975     1.0  0.50430  0.65498  0.18237  1.0000
  H   H3164     1.0  0.55769  0.96775  0.12107  1.0000
  C   C3976     1.0  0.95695  0.88458  0.20389  1.0000
  C   C3977     1.0  0.60835  0.97743  0.13457  1.0000
  C   C3978     1.0  0.56922  0.92024  0.05560  1.0000
  C   C3979     1.0  0.93798  0.93491  0.21077  1.0000
  H   H3165     1.0  0.78871  0.93457  0.01324  1.0000
  H   H3166     1.0  0.74164  0.81417  0.05096  1.0000
  C   C3980     1.0  0.54148  0.80649  0.18628  1.0000
  C   C3981     1.0  0.61590  0.97918  0.02850  1.0000
  H   H3167     1.0  0.53484  0.68097  0.03685  1.0000
  H   H3168     1.0  0.62104  0.92811  0.14789  1.0000
  H   H3169     1.0  0.72055  0.78413  0.03915  1.0000
  H   H3170     1.0  0.49872  0.81200  0.98974  1.0000
  H   H3171     1.0  0.97529  0.80533  0.06203  1.0000
  C   C3982     1.0  0.87998  0.90478  0.21520  1.0000
  C   C3983     1.0  0.69171  0.97447  0.98359  1.0000
  H   H3172     1.0  0.58238  0.88525  0.10141  1.0000
  C   C3984     1.0  0.74259  0.78118  0.01373  1.0000
  S   S538      1.0  0.97369  0.82885  0.12289  1.0000
  C   C3985     1.0  0.94557  0.85684  0.22651  1.0000
  C   C3986     1.0  0.58394  0.83627  0.11852  1.0000
  C   C3987     1.0  0.70915  0.96467  0.18825  1.0000
  C   C3988     1.0  0.90314  0.93754  0.17424  1.0000
  S   S539      1.0  0.84071  0.97518  0.10211  1.0000
  H   H3173     1.0  0.58974  0.93179  0.20752  1.0000
  C   C3989     1.0  0.49971  0.74142  0.10727  1.0000
  C   C3990     1.0  0.57130  0.84730  0.02628  1.0000
  H   H3174     1.0  0.61432  0.93715  0.04543  1.0000
  H   H3175     1.0  0.90868  0.95125  0.20907  1.0000
  H   H3176     1.0  0.60124  0.87813  0.06548  1.0000
  H   H3177     1.0  0.75762  0.95800  0.01606  1.0000
  H   H3178     1.0  0.50413  0.88367  0.12623  1.0000
  C   C3991     1.0  0.62138  0.94264  0.13946  1.0000
  C   C3992     1.0  0.55545  0.85304  0.01520  1.0000
  C   C3993     1.0  0.64352  0.95288  0.97999  1.0000
  S   S540      1.0  0.59154  0.95542  0.16751  1.0000
  H   H3179     1.0  0.56660  0.82679  0.21563  1.0000
  C   C3994     1.0  0.92502  0.97242  0.10398  1.0000
  H   H3180     1.0  0.51205  0.73900  0.00410  1.0000
  C   C3995     1.0  0.96804  0.93727  0.11676  1.0000
  C   C3996     1.0  0.66262  0.78622  0.03989  1.0000
  C   C3997     1.0  0.65398  0.78541  0.05965  1.0000
  C   C3998     1.0  0.66021  0.79665  0.07227  1.0000
  C   C3999     1.0  0.67491  0.80891  0.06513  1.0000
  C   C4000     1.0  0.68380  0.80972  0.04530  1.0000
  C   C4001     1.0  0.67754  0.79823  0.03275  1.0000
  P   P134      1.0  0.70271  0.82562  0.03561  1.0000
  C   C4002     1.0  0.71326  0.83270  0.05565  1.0000
  C   C4003     1.0  0.72196  0.81208  0.02009  1.0000
  C   C4004     1.0  0.72764  0.79177  0.02561  1.0000
  H   H3181     1.0  0.56981  0.68691  0.02694  1.0000
  C   C4005     1.0  0.49929  0.69524  0.01333  1.0000
  H   H3182     1.0  0.76425  0.96912  0.16710  1.0000
  C   C4006     1.0  0.73158  0.82167  0.00262  1.0000
  C   C4007     1.0  0.73261  0.82491  0.05961  1.0000
  C   C4008     1.0  0.74065  0.83119  0.07477  1.0000
  C   C4009     1.0  0.72941  0.84517  0.08615  1.0000
  C   C4010     1.0  0.71009  0.85276  0.08246  1.0000
  C   C4011     1.0  0.70213  0.84670  0.06716  1.0000
  C   C4012     1.0  0.69226  0.84792  0.02127  1.0000
  C   C4013     1.0  0.67550  0.84808  0.01175  1.0000
  H   H3183     1.0  0.97226  0.91442  0.07532  1.0000
  H   H3184     1.0  0.59683  0.66369  0.04056  1.0000
  H   H3185     1.0  0.58786  0.95407  0.10019  1.0000
  C   C4014     1.0  0.70115  0.86533  0.01927  1.0000
  H   H3186     1.0  0.65736  0.77787  0.03004  1.0000
  H   H3187     1.0  0.64197  0.77660  0.06499  1.0000
  H   H3188     1.0  0.65311  0.79639  0.08745  1.0000
  H   H3189     1.0  0.67900  0.81779  0.07516  1.0000
  H   H3190     1.0  0.68395  0.79878  0.01734  1.0000
  H   H3191     1.0  0.92025  0.90854  0.17568  1.0000
  C   C4015     1.0  0.71421  0.97044  0.16788  1.0000
  C   C4016     1.0  0.94257  0.97609  0.11011  1.0000
  C   C4017     1.0  0.49977  0.95714  0.14346  1.0000
  C   C4018     1.0  0.51972  0.86288  0.22728  1.0000
  C   C4019     1.0  0.78834  0.94943  0.00528  1.0000
  H   H3192     1.0  0.58416  0.85132  0.05172  1.0000
  H   H3193     1.0  0.54196  0.91832  0.09003  1.0000
  C   C4020     1.0  0.56702  0.86488  0.09019  1.0000
  H   H3194     1.0  0.69394  0.96272  0.19425  1.0000
  C   C4021     1.0  0.57830  0.93540  0.21956  1.0000
  C   C4022     1.0  0.69314  0.88270  0.00833  1.0000
  H   H3195     1.0  0.91897  0.95876  0.10966  1.0000
  H   H3196     1.0  0.93312  0.92099  0.20956  1.0000
  H   H3197     1.0  0.95314  0.94284  0.09042  1.0000
  H   H3198     1.0  0.74468  0.96181  0.05963  1.0000
  H   H3199     1.0  0.95810  0.84117  0.04312  1.0000
  H   H3200     1.0  0.59652  0.67080  0.07702  1.0000
  C   C4023     1.0  0.62444  0.92670  0.99596  1.0000
  H   H3201     1.0  0.62556  0.90166  0.05555  1.0000
  H   H3202     1.0  0.67382  0.96879  0.03268  1.0000
  H   H3203     1.0  0.84969  0.91906  0.21729  1.0000
  H   H3204     1.0  0.85739  0.96424  0.03668  1.0000
  C   C4024     1.0  0.67779  0.97604  0.01785  1.0000
  H   H3205     1.0  0.96645  0.78606  0.10786  1.0000
  C   C4025     1.0  0.54667  0.67026  0.04225  1.0000
  H   H3206     1.0  0.51535  0.66163  0.17152  1.0000
  H   H3207     1.0  0.95101  0.65446  0.01495  1.0000
  C   C4026     1.0  0.77083  0.96267  0.00693  1.0000
  H   H3208     1.0  0.50978  0.86643  0.21610  1.0000
  H   H3209     1.0  0.97612  0.67448  0.03001  1.0000
  H   H3210     1.0  0.51878  0.97740  0.14919  1.0000
  C   C4027     1.0  0.92995  0.97024  0.21178  1.0000
  H   H3211     1.0  0.97845  0.95536  0.21733  1.0000
  C   C4028     1.0  0.48710  0.66792  0.03590  1.0000
  H   H3212     1.0  0.91054  0.89261  0.21686  1.0000
  C   C4029     1.0  0.74648  0.97702  0.05357  1.0000
  C   C4030     1.0  0.96549  0.97654  0.15771  1.0000
  C   C4031     1.0  0.48884  0.84596  0.17700  1.0000
  H   H3213     1.0  0.49077  0.85451  0.16251  1.0000
  C   C4032     1.0  0.49201  0.97798  0.16985  1.0000
  H   H3214     1.0  0.48777  0.84970  0.04467  1.0000
  C   C4033     1.0  0.94954  0.97137  0.21425  1.0000
  H   H3215     1.0  0.98550  0.92708  0.14086  1.0000
  C   C4034     1.0  0.80477  0.97450  0.98303  1.0000
  H   H3216     1.0  0.59976  0.92282  0.98160  1.0000
  C   C4035     1.0  0.69947  0.97924  0.11009  1.0000
  H   H3217     1.0  0.91753  0.97902  0.14625  1.0000
  C   C4036     1.0  0.97525  0.91739  0.08953  1.0000
  H   H3218     1.0  0.52688  0.65076  0.05938  1.0000
  H   H3219     1.0  0.48880  0.65240  0.04195  1.0000
  Fe  Fe273     1.0  0.84729  0.97807  0.15725  1.0000
  H   H3220     1.0  0.53679  0.78019  0.22312  1.0000
  H   H3221     1.0  0.48878  0.94342  0.21475  1.0000
  C   C4037     1.0  0.58165  0.66066  0.04489  1.0000
  S   S541      1.0  0.98151  0.77239  0.14625  1.0000
  H   H3222     1.0  0.98281  0.68282  0.99339  1.0000
  S   S542      1.0  0.85064  0.97683  0.19040  1.0000
  C   C4038     1.0  0.54222  0.65334  0.05513  1.0000
  H   H3223     1.0  0.73883  0.97512  0.14466  1.0000
  C   C4039     1.0  0.74880  0.96821  0.17310  1.0000
  C   C4040     1.0  0.73423  0.97177  0.16036  1.0000
  H   H3224     1.0  0.58861  0.64802  0.10837  1.0000
  Fe  Fe274     1.0  0.54571  0.66807  0.37290  1.0000
  H   H3225     1.0  0.49297  0.93964  0.38086  1.0000
  S   S543      1.0  0.54672  0.70018  0.37675  1.0000
  C   C4041     1.0  0.51214  0.91736  0.27997  1.0000
  C   C4042     1.0  0.95861  0.96051  0.31938  1.0000
  H   H3226     1.0  0.50930  0.94394  0.31015  1.0000
  C   C4043     1.0  0.54807  0.92861  0.24098  1.0000
  Fe  Fe275     1.0  0.64496  0.95052  0.36215  1.0000
  S   S544      1.0  0.61906  0.94784  0.38632  1.0000
  S   S545      1.0  0.67829  0.94839  0.36466  1.0000
  Fe  Fe276     1.0  0.60401  0.93629  0.36397  1.0000
  S   S546      1.0  0.58514  0.91090  0.37341  1.0000
  S   S547      1.0  0.63097  0.93650  0.34089  1.0000
  Fe  Fe277     1.0  0.50771  0.80757  0.32174  1.0000
  S   S548      1.0  0.51251  0.82362  0.34632  1.0000
  S   S549      1.0  0.51710  0.77520  0.31710  1.0000
  H   H3227     1.0  0.94017  0.91318  0.39041  1.0000
  C   C4044     1.0  0.94402  0.65534  0.41970  1.0000
  H   H3228     1.0  0.94985  0.66933  0.44375  1.0000
  Fe  Fe278     1.0  0.51846  0.84969  0.32326  1.0000
  S   S550      1.0  0.54205  0.87090  0.31629  1.0000
  H   H3229     1.0  0.95857  0.93204  0.33733  1.0000
  S   S551      1.0  0.51684  0.83228  0.29852  1.0000
  H   H3230     1.0  0.92560  0.97042  0.25325  1.0000
  Fe  Fe279     1.0  0.96435  0.77695  0.39796  1.0000
  S   S552      1.0  0.94221  0.75542  0.40365  1.0000
  H   H3231     1.0  0.50759  0.82802  0.38806  1.0000
  Fe  Fe280     1.0  0.96573  0.77847  0.44166  1.0000
  S   S553      1.0  0.94358  0.75661  0.45111  1.0000
  Fe  Fe281     1.0  0.96073  0.73948  0.42683  1.0000
  H   H3232     1.0  0.49700  0.71416  0.36697  1.0000
  Fe  Fe282     1.0  0.92687  0.77452  0.42684  1.0000
  S   S554      1.0  0.89342  0.78328  0.42748  1.0000
  H   H3233     1.0  0.71214  0.86998  0.26187  1.0000
  S   S555      1.0  0.94786  0.79726  0.41911  1.0000
  Fe  Fe283     1.0  0.77826  0.90355  0.40889  1.0000
  S   S556      1.0  0.78493  0.93401  0.39565  1.0000
  S   S557      1.0  0.74660  0.89602  0.41083  1.0000
  Fe  Fe284     1.0  0.82151  0.88931  0.41772  1.0000
  S   S558      1.0  0.83004  0.91925  0.40505  1.0000
  S   S559      1.0  0.85032  0.87216  0.42766  1.0000
  Fe  Fe285     1.0  0.80186  0.93237  0.42160  1.0000
  Fe  Fe286     1.0  0.81260  0.91773  0.38081  1.0000
  S   S560      1.0  0.82890  0.92413  0.35038  1.0000
  S   S561      1.0  0.79381  0.90271  0.43600  1.0000
  S   S562      1.0  0.80522  0.88719  0.39218  1.0000
  H   H3234     1.0  0.51044  0.81720  0.42354  1.0000
  S   S563      1.0  0.98384  0.76011  0.41955  1.0000
  C   C4045     1.0  0.84648  0.96741  0.39502  1.0000
  H   H3235     1.0  0.84479  0.96195  0.38148  1.0000
  H   H3236     1.0  0.65031  0.69229  0.44077  1.0000
  C   C4046     1.0  0.72946  0.87864  0.36768  1.0000
  C   C4047     1.0  0.96472  0.69920  0.39350  1.0000
  Fe  Fe287     1.0  0.60668  0.97808  0.37276  1.0000
  C   C4048     1.0  0.52722  0.78343  0.23654  1.0000
  C   C4049     1.0  0.69024  0.93370  0.31931  1.0000
  C   C4050     1.0  0.51400  0.64797  0.24990  1.0000
  C   C4051     1.0  0.88198  0.80832  0.42615  1.0000
  C   C4052     1.0  0.86192  0.81287  0.42294  1.0000
  C   C4053     1.0  0.85213  0.83247  0.42255  1.0000
  C   C4054     1.0  0.86226  0.84765  0.42574  1.0000
  C   C4055     1.0  0.88241  0.84315  0.42861  1.0000
  C   C4056     1.0  0.89226  0.82365  0.42865  1.0000
  H   H3237     1.0  0.85382  0.80113  0.42100  1.0000
  H   H3238     1.0  0.83662  0.83569  0.42045  1.0000
  H   H3239     1.0  0.89694  0.95315  0.25188  1.0000
  H   H3240     1.0  0.53437  0.69463  0.45179  1.0000
  H   H3241     1.0  0.49765  0.69236  0.34147  1.0000
  H   H3242     1.0  0.97196  0.85250  0.34766  1.0000
  C   C4057     1.0  0.85218  0.95359  0.33847  1.0000
  C   C4058     1.0  0.83319  0.94889  0.34620  1.0000
  H   H3243     1.0  0.57574  0.66328  0.44561  1.0000
  H   H3244     1.0  0.86428  0.94200  0.33570  1.0000
  C   C4059     1.0  0.69659  0.93426  0.37875  1.0000
  C   C4060     1.0  0.71638  0.93829  0.37395  1.0000
  C   C4061     1.0  0.73168  0.92718  0.38406  1.0000
  C   C4062     1.0  0.72745  0.91166  0.39900  1.0000
  C   C4063     1.0  0.70761  0.90779  0.40403  1.0000
  C   C4064     1.0  0.69223  0.91913  0.39410  1.0000
  H   H3245     1.0  0.71997  0.94993  0.36212  1.0000
  H   H3246     1.0  0.74684  0.93023  0.37984  1.0000
  H   H3247     1.0  0.70415  0.89582  0.41553  1.0000
  H   H3248     1.0  0.67708  0.91598  0.39818  1.0000
  C   C4065     1.0  0.57359  0.89957  0.35733  1.0000
  C   C4066     1.0  0.56017  0.88599  0.36549  1.0000
  C   C4067     1.0  0.55042  0.87700  0.35322  1.0000
  C   C4068     1.0  0.55401  0.88150  0.33259  1.0000
  C   C4069     1.0  0.56763  0.89486  0.32445  1.0000
  C   C4070     1.0  0.57748  0.90371  0.33672  1.0000
  H   H3249     1.0  0.55732  0.88237  0.38140  1.0000
  H   H3250     1.0  0.54015  0.86661  0.35972  1.0000
  H   H3251     1.0  0.57060  0.89842  0.30852  1.0000
  H   H3252     1.0  0.58800  0.91386  0.33021  1.0000
  H   H3253     1.0  0.53637  0.68227  0.41936  1.0000
  C   C4071     1.0  0.53751  0.72079  0.36042  1.0000
  C   C4072     1.0  0.53346  0.71867  0.34159  1.0000
  C   C4073     1.0  0.52694  0.73549  0.32868  1.0000
  C   C4074     1.0  0.52426  0.75455  0.33447  1.0000
  C   C4075     1.0  0.52790  0.75663  0.35347  1.0000
  C   C4076     1.0  0.53455  0.73981  0.36635  1.0000
  H   H3254     1.0  0.53569  0.70413  0.33686  1.0000
  H   H3255     1.0  0.52420  0.73374  0.31402  1.0000
  H   H3256     1.0  0.52594  0.77121  0.35809  1.0000
  H   H3257     1.0  0.53757  0.74157  0.38092  1.0000
  S   S564      1.0  0.80106  0.96044  0.43559  1.0000
  C   C4077     1.0  0.68372  0.95278  0.31058  1.0000
  C   C4078     1.0  0.61487  0.65311  0.46217  1.0000
  C   C4079     1.0  0.66272  0.93921  0.29223  1.0000
  H   H3258     1.0  0.93051  0.94941  0.38648  1.0000
  H   H3259     1.0  0.91838  0.72670  0.34496  1.0000
  C   C4080     1.0  0.69964  0.84014  0.30463  1.0000
  C   C4081     1.0  0.53540  0.65272  0.27347  1.0000
  H   H3260     1.0  0.96464  0.93007  0.25253  1.0000
  C   C4082     1.0  0.60461  0.66125  0.36695  1.0000
  C   C4083     1.0  0.49714  0.86664  0.42512  1.0000
  C   C4084     1.0  0.97911  0.94087  0.37905  1.0000
  S   S565      1.0  0.51682  0.65551  0.37630  1.0000
  C   C4085     1.0  0.97489  0.85891  0.31598  1.0000
  C   C4086     1.0  0.60919  0.64962  0.38455  1.0000
  H   H3261     1.0  0.66434  0.97037  0.29083  1.0000
  H   H3262     1.0  0.90375  0.96460  0.41002  1.0000
  P   P135      1.0  0.87985  0.92068  0.27802  1.0000
  C   C4087     1.0  0.89733  0.90563  0.24316  1.0000
  C   C4088     1.0  0.53541  0.87376  0.25233  1.0000
  P   P136      1.0  0.52861  0.95263  0.26949  1.0000
  C   C4089     1.0  0.90112  0.97097  0.45614  1.0000
  C   C4090     1.0  0.87336  0.89988  0.31594  1.0000
  C   C4091     1.0  0.96254  0.74097  0.35007  1.0000
  C   C4092     1.0  0.97032  0.97346  0.30696  1.0000
  C   C4093     1.0  0.87994  0.86429  0.32393  1.0000
  H   H3263     1.0  0.70012  0.93205  0.33048  1.0000
  H   H3264     1.0  0.96857  0.74940  0.35928  1.0000
  C   C4094     1.0  0.97431  0.87808  0.39126  1.0000
  C   C4095     1.0  0.90656  0.94772  0.26321  1.0000
  C   C4096     1.0  0.62194  0.66368  0.47490  1.0000
  H   H3265     1.0  0.49418  0.78556  0.39376  1.0000
  C   C4097     1.0  0.54417  0.85438  0.25738  1.0000
  C   C4098     1.0  0.70704  0.86568  0.27738  1.0000
  H   H3266     1.0  0.92300  0.89180  0.41790  1.0000
  C   C4099     1.0  0.55728  0.95230  0.29474  1.0000
  C   C4100     1.0  0.70672  0.97804  0.46205  1.0000
  H   H3267     1.0  0.97436  0.96589  0.35697  1.0000
  C   C4101     1.0  0.56330  0.95745  0.24351  1.0000
  C   C4102     1.0  0.96059  0.88147  0.23877  1.0000
  H   H3268     1.0  0.86634  0.94189  0.40480  1.0000
  H   H3269     1.0  0.71669  0.94287  0.44562  1.0000
  H   H3270     1.0  0.55304  0.85103  0.26956  1.0000
  H   H3271     1.0  0.53002  0.75283  0.24971  1.0000
  C   C4103     1.0  0.59754  0.68135  0.36688  1.0000
  C   C4104     1.0  0.59519  0.68989  0.38440  1.0000
  C   C4105     1.0  0.59984  0.67834  0.40201  1.0000
  C   C4106     1.0  0.90201  0.93195  0.27789  1.0000
  H   H3272     1.0  0.97382  0.86695  0.28476  1.0000
  H   H3273     1.0  0.96443  0.88720  0.36277  1.0000
  S   S566      1.0  0.61955  0.97488  0.29636  1.0000
  C   C4107     1.0  0.97476  0.73211  0.33468  1.0000
  C   C4108     1.0  0.62024  0.65690  0.44159  1.0000
  H   H3274     1.0  0.95487  0.71302  0.39329  1.0000
  C   C4109     1.0  0.50756  0.91354  0.39723  1.0000
  H   H3275     1.0  0.72344  0.90679  0.44631  1.0000
  C   C4110     1.0  0.52844  0.84332  0.23233  1.0000
  H   H3276     1.0  0.59319  0.69020  0.35344  1.0000
  H   H3277     1.0  0.58892  0.70531  0.38442  1.0000
  H   H3278     1.0  0.59720  0.68508  0.41555  1.0000
  C   C4111     1.0  0.95640  0.85409  0.41340  1.0000
  C   C4112     1.0  0.82353  0.96275  0.29748  1.0000
  H   H3279     1.0  0.97535  0.71531  0.31035  1.0000
  C   C4113     1.0  0.96197  0.87796  0.37688  1.0000
  C   C4114     1.0  0.94691  0.86566  0.38056  1.0000
  C   C4115     1.0  0.94392  0.85404  0.39911  1.0000
  P   P137      1.0  0.93046  0.86631  0.36229  1.0000
  C   C4116     1.0  0.91314  0.88856  0.36482  1.0000
  C   C4117     1.0  0.94412  0.86639  0.33767  1.0000
  C   C4118     1.0  0.93442  0.87341  0.32092  1.0000
  C   C4119     1.0  0.97610  0.69298  0.40908  1.0000
  H   H3280     1.0  0.49824  0.86313  0.37597  1.0000
  H   H3281     1.0  0.51592  0.89299  0.23381  1.0000
  C   C4120     1.0  0.96433  0.85871  0.33503  1.0000
  C   C4121     1.0  0.89805  0.88911  0.38103  1.0000
  C   C4122     1.0  0.88453  0.90622  0.38299  1.0000
  C   C4123     1.0  0.88637  0.92315  0.36920  1.0000
  C   C4124     1.0  0.90206  0.92314  0.35370  1.0000
  C   C4125     1.0  0.91552  0.90597  0.35161  1.0000
  C   C4126     1.0  0.91915  0.84371  0.36714  1.0000
  C   C4127     1.0  0.93146  0.82546  0.36836  1.0000
  C   C4128     1.0  0.92319  0.80774  0.37325  1.0000
  C   C4129     1.0  0.90258  0.80807  0.37698  1.0000
  C   C4130     1.0  0.89020  0.82614  0.37530  1.0000
  C   C4131     1.0  0.89841  0.84390  0.37019  1.0000
  H   H3282     1.0  0.95449  0.84451  0.42740  1.0000
  H   H3283     1.0  0.93968  0.71153  0.31726  1.0000
  C   C4132     1.0  0.69205  0.96642  0.47166  1.0000
  H   H3284     1.0  0.93211  0.84475  0.40257  1.0000
  H   H3285     1.0  0.91867  0.87869  0.32263  1.0000
  Fe  Fe288     1.0  0.61707  0.96727  0.33011  1.0000
  C   C4133     1.0  0.94226  0.73905  0.35368  1.0000
  C   C4134     1.0  0.66916  0.92011  0.30099  1.0000
  H   H3286     1.0  0.51616  0.97415  0.23263  1.0000
  H   H3287     1.0  0.89659  0.87630  0.39217  1.0000
  H   H3288     1.0  0.87261  0.90621  0.39526  1.0000
  H   H3289     1.0  0.87571  0.93632  0.37054  1.0000
  H   H3290     1.0  0.90379  0.93648  0.34331  1.0000
  H   H3291     1.0  0.92784  0.90648  0.33980  1.0000
  H   H3292     1.0  0.94751  0.82488  0.36602  1.0000
  H   H3293     1.0  0.93282  0.79375  0.37460  1.0000
  H   H3294     1.0  0.89622  0.79436  0.38161  1.0000
  H   H3295     1.0  0.87422  0.82637  0.37854  1.0000
  H   H3296     1.0  0.88843  0.85759  0.36894  1.0000
  C   C4135     1.0  0.52351  0.69224  0.42461  1.0000
  H   H3297     1.0  0.87948  0.85108  0.33466  1.0000
  H   H3298     1.0  0.91086  0.90212  0.25004  1.0000
  H   H3299     1.0  0.98159  0.86578  0.42030  1.0000
  C   C4136     1.0  0.67237  0.97133  0.46766  1.0000
  C   C4137     1.0  0.54070  0.83920  0.24746  1.0000
  C   C4138     1.0  0.48657  0.77539  0.38802  1.0000
  H   H3300     1.0  0.89594  0.90638  0.44094  1.0000
  C   C4139     1.0  0.87993  0.91506  0.25319  1.0000
  C   C4140     1.0  0.50803  0.69805  0.41299  1.0000
  C   C4141     1.0  0.51105  0.77162  0.26901  1.0000
  C   C4142     1.0  0.85561  0.97337  0.33424  1.0000
  C   C4143     1.0  0.88711  0.86268  0.30405  1.0000
  S   S567      1.0  0.93273  0.96658  0.32482  1.0000
  C   C4144     1.0  0.70583  0.84573  0.28454  1.0000
  H   H3301     1.0  0.95000  0.85591  0.25697  1.0000
  H   H3302     1.0  0.63808  0.67357  0.41818  1.0000
  H   H3303     1.0  0.95628  0.69195  0.36674  1.0000
  H   H3304     1.0  0.91193  0.96786  0.44350  1.0000
  C   C4145     1.0  0.64031  0.68144  0.44674  1.0000
  C   C4146     1.0  0.91900  0.90775  0.41643  1.0000
  H   H3305     1.0  0.65142  0.94152  0.28237  1.0000
  H   H3306     1.0  0.94123  0.92948  0.30366  1.0000
  C   C4147     1.0  0.85780  0.93737  0.28533  1.0000
  C   C4148     1.0  0.71235  0.88016  0.35848  1.0000
  C   C4149     1.0  0.82278  0.94245  0.29865  1.0000
  H   H3307     1.0  0.69899  0.82465  0.31025  1.0000
  H   H3308     1.0  0.89235  0.84820  0.29949  1.0000
  C   C4150     1.0  0.88722  0.87966  0.29003  1.0000
  H   H3309     1.0  0.53625  0.91950  0.24508  1.0000
  H   H3310     1.0  0.84216  0.92853  0.43921  1.0000
  C   C4151     1.0  0.75207  0.97630  0.42727  1.0000
  H   H3311     1.0  0.89253  0.87793  0.27473  1.0000
  H   H3312     1.0  0.93759  0.87958  0.28901  1.0000
  C   C4152     1.0  0.69449  0.85449  0.31754  1.0000
  C   C4153     1.0  0.69514  0.87459  0.31036  1.0000
  C   C4154     1.0  0.70188  0.88006  0.29027  1.0000
  P   P138      1.0  0.68953  0.89279  0.32735  1.0000
  C   C4155     1.0  0.66756  0.88854  0.34456  1.0000
  C   C4156     1.0  0.71142  0.89096  0.33955  1.0000
  C   C4157     1.0  0.72819  0.89941  0.32965  1.0000
  C   C4158     1.0  0.74523  0.89797  0.33898  1.0000
  C   C4159     1.0  0.50258  0.84664  0.43180  1.0000
  H   H3313     1.0  0.55605  0.94441  0.34493  1.0000
  C   C4160     1.0  0.66997  0.95554  0.29704  1.0000
  C   C4161     1.0  0.66414  0.89681  0.36236  1.0000
  C   C4162     1.0  0.64685  0.89433  0.37555  1.0000
  C   C4163     1.0  0.63260  0.88393  0.37081  1.0000
  C   C4164     1.0  0.63550  0.87629  0.35275  1.0000
  C   C4165     1.0  0.65289  0.87863  0.33960  1.0000
  C   C4166     1.0  0.68311  0.91721  0.31449  1.0000
  C   C4167     1.0  0.93405  0.72835  0.34196  1.0000
  C   C4168     1.0  0.94506  0.87379  0.30186  1.0000
  S   S568      1.0  0.97746  0.78743  0.36713  1.0000
  C   C4169     1.0  0.52463  0.94559  0.31079  1.0000
  H   H3314     1.0  0.80633  0.93118  0.47052  1.0000
  C   C4170     1.0  0.97768  0.66882  0.37878  1.0000
  S   S569      1.0  0.97375  0.70670  0.42944  1.0000
  C   C4171     1.0  0.53407  0.67290  0.26638  1.0000
  H   H3315     1.0  0.69007  0.84992  0.33316  1.0000
  H   H3316     1.0  0.70332  0.89538  0.28457  1.0000
  H   H3317     1.0  0.72802  0.90732  0.31484  1.0000
  H   H3318     1.0  0.75794  0.90498  0.33156  1.0000
  S   S570      1.0  0.98400  0.79467  0.45731  1.0000
  H   H3319     1.0  0.53767  0.88525  0.26058  1.0000
  C   C4172     1.0  0.50501  0.83888  0.39833  1.0000
  H   H3320     1.0  0.67470  0.90553  0.36582  1.0000
  H   H3321     1.0  0.64424  0.90093  0.38920  1.0000
  H   H3322     1.0  0.61903  0.88230  0.38088  1.0000
  H   H3323     1.0  0.62400  0.86895  0.34883  1.0000
  H   H3324     1.0  0.65460  0.87308  0.32546  1.0000
  H   H3325     1.0  0.66273  0.90771  0.29777  1.0000
  H   H3326     1.0  0.89035  0.85475  0.43118  1.0000
  C   C4173     1.0  0.88297  0.96317  0.45948  1.0000
  C   C4174     1.0  0.57294  0.64847  0.44442  1.0000
  H   H3327     1.0  0.56769  0.95575  0.28173  1.0000
  P   P139      1.0  0.73249  0.97077  0.46587  1.0000
  C   C4175     1.0  0.55081  0.94622  0.33057  1.0000
  H   H3328     1.0  0.91157  0.91338  0.30399  1.0000
  H   H3329     1.0  0.93292  0.74583  0.36563  1.0000
  C   C4176     1.0  0.92866  0.91975  0.40093  1.0000
  H   H3330     1.0  0.55129  0.94456  0.39358  1.0000
  C   C4177     1.0  0.83977  0.92982  0.29243  1.0000
  C   C4178     1.0  0.51247  0.66836  0.24306  1.0000
  C   C4179     1.0  0.63328  0.67089  0.43397  1.0000
  C   C4180     1.0  0.96217  0.96637  0.40682  1.0000
  C   C4181     1.0  0.53890  0.93611  0.39490  1.0000
  C   C4182     1.0  0.54046  0.91667  0.40445  1.0000
  C   C4183     1.0  0.52492  0.90537  0.40557  1.0000
  C   C4184     1.0  0.96535  0.86666  0.29942  1.0000
  H   H3331     1.0  0.56312  0.97102  0.24968  1.0000
  C   C4185     1.0  0.49964  0.85888  0.39155  1.0000
  H   H3332     1.0  0.93627  0.66878  0.41254  1.0000
  C   C4186     1.0  0.74669  0.90321  0.46482  1.0000
  H   H3333     1.0  0.50833  0.75965  0.28085  1.0000
  C   C4187     1.0  0.72788  0.93469  0.45432  1.0000
  H   H3334     1.0  0.97894  0.71479  0.46894  1.0000
  C   C4188     1.0  0.52265  0.68071  0.25114  1.0000
  H   H3335     1.0  0.94801  0.95843  0.27883  1.0000
  C   C4189     1.0  0.80639  0.96207  0.45958  1.0000
  C   C4190     1.0  0.85831  0.95783  0.28403  1.0000
  H   H3336     1.0  0.55412  0.91014  0.41032  1.0000
  H   H3337     1.0  0.52689  0.89014  0.41239  1.0000
  H   H3338     1.0  0.72993  0.87088  0.38257  1.0000
  S   S571      1.0  0.58956  0.96641  0.35231  1.0000
  H   H3339     1.0  0.80920  0.93640  0.30502  1.0000
  C   C4191     1.0  0.73851  0.94440  0.46502  1.0000
  H   H3340     1.0  0.75880  0.88694  0.36551  1.0000
  C   C4192     1.0  0.92297  0.95736  0.26371  1.0000
  C   C4193     1.0  0.93552  0.95070  0.27820  1.0000
  C   C4194     1.0  0.50607  0.93316  0.38773  1.0000
  H   H3341     1.0  0.52130  0.69644  0.24595  1.0000
  C   C4195     1.0  0.84873  0.92118  0.45210  1.0000
  C   C4196     1.0  0.56377  0.95066  0.31330  1.0000
  C   C4197     1.0  0.73173  0.91418  0.45456  1.0000
  H   H3342     1.0  0.96591  0.94062  0.42870  1.0000
  C   C4198     1.0  0.49829  0.90311  0.35601  1.0000
  H   H3343     1.0  0.54712  0.82414  0.25203  1.0000
  H   H3344     1.0  0.87185  0.96418  0.27887  1.0000
  C   C4199     1.0  0.54816  0.94551  0.25015  1.0000
  C   C4200     1.0  0.52323  0.87805  0.23726  1.0000
  C   C4201     1.0  0.53127  0.94364  0.32931  1.0000
  H   H3345     1.0  0.68873  0.96545  0.31498  1.0000
  C   C4202     1.0  0.96757  0.94208  0.32764  1.0000
  C   C4203     1.0  0.87313  0.88291  0.32988  1.0000
  C   C4204     1.0  0.92319  0.94023  0.39874  1.0000
  H   H3346     1.0  0.60591  0.65447  0.35350  1.0000
  H   H3347     1.0  0.80303  0.96041  0.35633  1.0000
  C   C4205     1.0  0.98003  0.92351  0.25172  1.0000
  H   H3348     1.0  0.74700  0.96272  0.42513  1.0000
  H   H3349     1.0  0.50673  0.90687  0.32445  1.0000
  C   C4206     1.0  0.94604  0.71982  0.32637  1.0000
  C   C4207     1.0  0.81770  0.96402  0.35020  1.0000
  H   H3350     1.0  0.50000  0.82156  0.25907  1.0000
  H   H3351     1.0  0.84935  0.92783  0.25070  1.0000
  C   C4208     1.0  0.52241  0.69925  0.44280  1.0000
  H   H3352     1.0  0.83894  0.91409  0.29372  1.0000
  C   C4209     1.0  0.86045  0.96275  0.42612  1.0000
  C   C4210     1.0  0.51890  0.80293  0.23911  1.0000
  C   C4211     1.0  0.91474  0.92530  0.29238  1.0000
  C   C4212     1.0  0.95167  0.86408  0.24221  1.0000
  C   C4213     1.0  0.50909  0.93721  0.27127  1.0000
  H   H3353     1.0  0.50360  0.84187  0.44738  1.0000
  C   C4214     1.0  0.90806  0.94876  0.41206  1.0000
  C   C4215     1.0  0.50659  0.80660  0.25675  1.0000
  H   H3354     1.0  0.52579  0.91141  0.28616  1.0000
  H   H3355     1.0  0.69992  0.87299  0.36626  1.0000
  P   P140      1.0  0.87661  0.94793  0.44280  1.0000
  S   S572      1.0  0.55881  0.65418  0.34560  1.0000
  H   H3356     1.0  0.51358  0.90068  0.35901  1.0000
  C   C4216     1.0  0.96628  0.72189  0.32258  1.0000
  C   C4217     1.0  0.93162  0.93444  0.29228  1.0000
  H   H3357     1.0  0.50921  0.69229  0.39905  1.0000
  C   C4218     1.0  0.53766  0.94965  0.29331  1.0000
  H   H3358     1.0  0.52134  0.93999  0.34270  1.0000
  H   H3359     1.0  0.86778  0.91411  0.32085  1.0000
  C   C4219     1.0  0.50581  0.71212  0.44941  1.0000
  C   C4220     1.0  0.96551  0.68718  0.37846  1.0000
  C   C4221     1.0  0.74581  0.88768  0.35803  1.0000
  H   H3360     1.0  0.52060  0.95943  0.37906  1.0000
  C   C4222     1.0  0.52335  0.76783  0.25152  1.0000
  H   H3361     1.0  0.51146  0.65384  0.42566  1.0000
  H   H3362     1.0  0.70991  0.83459  0.27457  1.0000
  C   C4223     1.0  0.52167  0.94440  0.38662  1.0000
  C   C4224     1.0  0.88021  0.89844  0.29585  1.0000
  H   H3363     1.0  0.90764  0.82039  0.43121  1.0000
  H   H3364     1.0  0.57899  0.95261  0.31425  1.0000
  C   C4225     1.0  0.85866  0.95609  0.40826  1.0000
  C   C4226     1.0  0.89807  0.93685  0.42758  1.0000
  C   C4227     1.0  0.86479  0.92814  0.45798  1.0000
  C   C4228     1.0  0.90366  0.91619  0.42962  1.0000
  H   H3365     1.0  0.86730  0.88430  0.34525  1.0000
  C   C4229     1.0  0.84101  0.90455  0.46291  1.0000
  C   C4230     1.0  0.95169  0.65561  0.43733  1.0000
  C   C4231     1.0  0.50647  0.83275  0.41840  1.0000
  H   H3366     1.0  0.54252  0.65322  0.45834  1.0000
  C   C4232     1.0  0.80834  0.94550  0.47394  1.0000
  C   C4233     1.0  0.48896  0.65803  0.45079  1.0000
  H   H3367     1.0  0.96563  0.88652  0.25107  1.0000
  H   H3368     1.0  0.49397  0.87724  0.43568  1.0000
  C   C4234     1.0  0.49564  0.87291  0.40494  1.0000
  H   H3369     1.0  0.48827  0.95964  0.25679  1.0000
  C   C4235     1.0  0.97160  0.86610  0.40946  1.0000
  C   C4236     1.0  0.48650  0.69161  0.35442  1.0000
  C   C4237     1.0  0.49779  0.90485  0.28031  1.0000
  H   H3370     1.0  0.50039  0.88942  0.28665  1.0000
  S   S573      1.0  0.97679  0.65360  0.36035  1.0000
  C   C4238     1.0  0.50258  0.79097  0.27154  1.0000
  H   H3371     1.0  0.82897  0.89889  0.45794  1.0000
  H   H3372     1.0  0.87035  0.97682  0.32856  1.0000
  C   C4239     1.0  0.60715  0.65815  0.40215  1.0000
  C   C4240     1.0  0.86280  0.92002  0.24364  1.0000
  H   H3373     1.0  0.54154  0.68253  0.27304  1.0000
  H   H3374     1.0  0.49011  0.75268  0.41254  1.0000
  H   H3375     1.0  0.50481  0.71739  0.46362  1.0000
  H   H3376     1.0  0.49325  0.79391  0.28522  1.0000
  C   C4241     1.0  0.49124  0.94443  0.26339  1.0000
  P   P141      1.0  0.48798  0.89874  0.39689  1.0000
  C   C4242     1.0  0.96516  0.97393  0.38663  1.0000
  C   C4243     1.0  0.49041  0.71811  0.43773  1.0000
  C   C4244     1.0  0.49144  0.71117  0.41935  1.0000
  C   C4245     1.0  0.96816  0.94636  0.41310  1.0000
  H   H3377     1.0  0.85367  0.97409  0.23210  1.0000
  H   H3378     1.0  0.93911  0.84311  0.22905  1.0000
  C   C4246     1.0  0.97309  0.96086  0.37273  1.0000
  C   C4247     1.0  0.63459  0.67789  0.46719  1.0000
  C   C4248     1.0  0.84125  0.97045  0.29003  1.0000
  H   H3379     1.0  0.49026  0.67352  0.45032  1.0000
  C   C4249     1.0  0.49443  0.90693  0.33635  1.0000
  C   C4250     1.0  0.57844  0.95229  0.22847  1.0000
  H   H3380     1.0  0.95505  0.97593  0.41769  1.0000
  C   C4251     1.0  0.86920  0.96766  0.47598  1.0000
  H   H3381     1.0  0.75007  0.88739  0.46434  1.0000
  C   C4252     1.0  0.87267  0.91857  0.47517  1.0000
  H   H3382     1.0  0.50295  0.67485  0.23194  1.0000
  C   C4253     1.0  0.97682  0.93367  0.39923  1.0000
  H   H3383     1.0  0.76727  0.98035  0.39751  1.0000
  H   H3384     1.0  0.81055  0.97247  0.30284  1.0000
  H   H3385     1.0  0.62168  0.97836  0.25426  1.0000
  C   C4254     1.0  0.48620  0.70382  0.36898  1.0000
  C   C4255     1.0  0.51969  0.97838  0.26235  1.0000
  S   S574      1.0  0.48638  0.86286  0.32473  1.0000
  H   H3386     1.0  0.98146  0.91818  0.40410  1.0000
  H   H3387     1.0  0.98352  0.93156  0.28003  1.0000
  H   H3388     1.0  0.98542  0.93095  0.36822  1.0000
  C   C4256     1.0  0.75370  0.93328  0.47514  1.0000
  C   C4257     1.0  0.75772  0.91277  0.47506  1.0000
  H   H3389     1.0  0.66119  0.96207  0.47474  1.0000
  H   H3390     1.0  0.64012  0.68602  0.47707  1.0000
  C   C4258     1.0  0.80824  0.98073  0.46446  1.0000
  H   H3391     1.0  0.87486  0.98005  0.60784  1.0000
  H   H3392     1.0  0.83952  0.91733  0.68120  1.0000
  H   H3393     1.0  0.50578  0.81910  0.57086  1.0000
  H   H3394     1.0  0.85326  0.94191  0.65484  1.0000
  H   H3395     1.0  0.96943  0.76860  0.49270  1.0000
  H   H3396     1.0  0.69594  0.95328  0.48184  1.0000
  C   C4259     1.0  0.98477  0.92715  0.66830  1.0000
  C   C4260     1.0  0.81480  0.96616  0.49764  1.0000
  H   H3397     1.0  0.85499  0.96197  0.47873  1.0000
  C   C4261     1.0  0.79615  0.94402  0.66903  1.0000
  C   C4262     1.0  0.84560  0.95011  0.56987  1.0000
  H   H3398     1.0  0.60601  0.94366  0.69291  1.0000
  C   C4263     1.0  0.84108  0.93764  0.58746  1.0000
  H   H3399     1.0  0.81443  0.93457  0.50381  1.0000
  H   H3400     1.0  0.94963  0.73295  0.52417  1.0000
  C   C4264     1.0  0.98242  0.77433  0.49555  1.0000
  H   H3401     1.0  0.94908  0.73030  0.48877  1.0000
  C   C4265     1.0  0.81275  0.94750  0.49284  1.0000
  C   C4266     1.0  0.83817  0.94502  0.60571  1.0000
  C   C4267     1.0  0.60288  0.95948  0.66384  1.0000
  H   H3402     1.0  0.78020  0.94449  0.67297  1.0000
  H   H3403     1.0  0.84306  0.88198  0.48801  1.0000
  C   C4268     1.0  0.97908  0.71551  0.48456  1.0000
  H   H3404     1.0  0.76268  0.94029  0.48292  1.0000
  C   C4269     1.0  0.75671  0.97713  0.49289  1.0000
  H   H3405     1.0  0.84741  0.94456  0.55567  1.0000
  H   H3406     1.0  0.85085  0.97962  0.55690  1.0000
  C   C4270     1.0  0.86471  0.90211  0.48611  1.0000
  H   H3407     1.0  0.87093  0.89466  0.49924  1.0000
  C   C4271     1.0  0.59310  0.97586  0.65295  1.0000
  C   C4272     1.0  0.73715  0.97636  0.48952  1.0000
  H   H3408     1.0  0.96810  0.95041  0.59973  1.0000
  H   H3409     1.0  0.83961  0.92230  0.58690  1.0000
  H   H3410     1.0  0.76966  0.90433  0.48261  1.0000
  H   H3411     1.0  0.76903  0.97457  0.48136  1.0000
  H   H3412     1.0  0.59685  0.97854  0.63700  1.0000
  C   C4273     1.0  0.97957  0.71807  0.52468  1.0000
  H   H3413     1.0  0.97066  0.93022  0.67746  1.0000
  C   C4274     1.0  0.80383  0.95806  0.65413  1.0000
  C   C4275     1.0  0.84744  0.96990  0.57053  1.0000
  C   C4276     1.0  0.82448  0.95758  0.64898  1.0000
  S   S575      1.0  0.82019  0.96834  0.52152  1.0000
  C   C4277     1.0  0.97230  0.96430  0.60216  1.0000
  C   C4278     1.0  0.96253  0.72566  0.51571  1.0000
  C   C4279     1.0  0.84898  0.89500  0.47986  1.0000
  C   C4280     1.0  0.87359  0.97948  0.48912  1.0000
  C   C4281     1.0  0.83728  0.94272  0.65877  1.0000
  H   H3414     1.0  0.83449  0.93513  0.61908  1.0000
  H   H3415     1.0  0.97529  0.94639  0.64315  1.0000
  C   C4282     1.0  0.82955  0.92872  0.67366  1.0000
  C   C4283     1.0  0.96225  0.72430  0.49570  1.0000
  C   C4284     1.0  0.83960  0.96504  0.60643  1.0000
  C   C4285     1.0  0.80899  0.92938  0.67881  1.0000
  H   H3416     1.0  0.58076  0.96664  0.71019  1.0000
  H   H3417     1.0  0.61771  0.66074  0.49077  1.0000
  H   H3418     1.0  0.80301  0.91852  0.69035  1.0000
  H   H3419     1.0  0.61417  0.94941  0.65632  1.0000
  C   C4286     1.0  0.59825  0.95621  0.68444  1.0000
  H   H3420     1.0  0.54043  0.96709  0.71744  1.0000
  H   H3421     1.0  0.98090  0.76065  0.52607  1.0000
  C   C4287     1.0  0.84431  0.97736  0.58870  1.0000
  H   H3422     1.0  0.97958  0.71978  0.54005  1.0000
  H   H3423     1.0  0.79361  0.96919  0.64667  1.0000
  H   H3424     1.0  0.50031  0.83015  0.53586  1.0000
  H   H3425     1.0  0.48698  0.97359  0.58354  1.0000
  H   H3426     1.0  0.49617  0.94518  0.71701  1.0000
  P   P142      1.0  0.83465  0.97540  0.62960  1.0000
  C   C4288     1.0  0.58373  0.96923  0.69420  1.0000
  H   H3427     1.0  0.70634  0.97871  0.50288  1.0000
  H   H3428     1.0  0.88520  0.92358  0.47990  1.0000
  C   C4289     1.0  0.72153  0.97933  0.50493  1.0000
  C   C4290     1.0  0.48770  0.82882  0.54730  1.0000
  C   C4291     1.0  0.49078  0.82258  0.56701  1.0000
  C   C4292     1.0  0.49862  0.82468  0.90543  1.0000
  H   H3429     1.0  0.98353  0.93100  0.83748  1.0000
  C   C4293     1.0  0.54680  0.88895  0.88108  1.0000
  H   H3430     1.0  0.55906  0.88098  0.88847  1.0000
  C   C4294     1.0  0.63092  0.95785  0.96515  1.0000
  C   C4295     1.0  0.51756  0.92369  0.79898  1.0000
  H   H3431     1.0  0.49203  0.97655  0.73487  1.0000
  H   H3432     1.0  0.98574  0.91756  0.87274  1.0000
  H   H3433     1.0  0.53934  0.97616  0.77796  1.0000
  H   H3434     1.0  0.53368  0.95541  0.75341  1.0000
  H   H3435     1.0  0.66766  0.94426  0.94457  1.0000
  H   H3436     1.0  0.51274  0.84021  0.87891  1.0000
  P   P143      1.0  0.49059  0.87998  0.87381  1.0000
  H   H3437     1.0  0.56217  0.91416  0.86921  1.0000
  C   C4296     1.0  0.69415  0.95634  0.93092  1.0000
  C   C4297     1.0  0.50123  0.84139  0.89147  1.0000
  H   H3438     1.0  0.52147  0.90876  0.79528  1.0000
  H   H3439     1.0  0.70337  0.94210  0.93205  1.0000
  H   H3440     1.0  0.75389  0.81848  0.97728  1.0000
  H   H3441     1.0  0.50816  0.81083  0.90376  1.0000
  C   C4298     1.0  0.63304  0.97652  0.90524  1.0000
  C   C4299     1.0  0.50909  0.96305  0.80654  1.0000
  H   H3442     1.0  0.81803  0.97879  0.97373  1.0000
  C   C4300     1.0  0.70245  0.97333  0.92195  1.0000
  H   H3443     1.0  0.50616  0.97847  0.80868  1.0000
  C   C4301     1.0  0.67391  0.95768  0.93822  1.0000
  C   C4302     1.0  0.53897  0.96963  0.74837  1.0000
  C   C4303     1.0  0.61517  0.94676  0.96582  1.0000
  C   C4304     1.0  0.49965  0.93473  0.79425  1.0000
  P   P144      1.0  0.63556  0.97786  0.94530  1.0000
  H   H3444     1.0  0.71807  0.97231  0.91606  1.0000
  C   C4305     1.0  0.51529  0.90948  0.86181  1.0000
  H   H3445     1.0  0.50328  0.91776  0.85423  1.0000
  C   C4306     1.0  0.49533  0.95443  0.79828  1.0000
  H   H3446     1.0  0.53415  0.93239  0.85244  1.0000
  H   H3447     1.0  0.54471  0.92329  0.81124  1.0000
  C   C4307     1.0  0.62285  0.97887  0.88872  1.0000
  H   H3448     1.0  0.52826  0.86612  0.89083  1.0000
  C   C4308     1.0  0.53277  0.91790  0.86078  1.0000
  C   C4309     1.0  0.48899  0.87144  0.85048  1.0000
  C   C4310     1.0  0.53087  0.93202  0.80784  1.0000
  C   C4311     1.0  0.48850  0.85922  0.89322  1.0000
  C   C4312     1.0  0.62251  0.97766  0.92429  1.0000
  H   H3449     1.0  0.79784  0.97910  0.90965  1.0000
  C   C4313     1.0  0.52926  0.88050  0.88227  1.0000
  C   C4314     1.0  0.52694  0.95183  0.81132  1.0000
  H   H3450     1.0  0.63106  0.97862  0.87401  1.0000
  C   C4315     1.0  0.49520  0.88252  0.83233  1.0000
  H   H3451     1.0  0.49704  0.88537  0.80047  1.0000
  H   H3452     1.0  0.64912  0.97451  0.90287  1.0000
  C   C4316     1.0  0.49276  0.87649  0.81441  1.0000
  C   C4317     1.0  0.54857  0.90762  0.87029  1.0000
  C   C4318     1.0  0.51339  0.89063  0.87250  1.0000
  H   H3453     1.0  0.60550  0.94967  0.95442  1.0000
  S   S576      1.0  0.54533  0.96186  0.82080  1.0000
  H   H3454     1.0  0.79989  0.98054  0.94471  1.0000
  H   H3455     1.0  0.69875  0.96589  0.97190  1.0000
  H   H3456     1.0  0.50143  0.89609  0.83182  1.0000
  C   C4319     1.0  0.66196  0.97617  0.93720  1.0000
  C   C4320     1.0  0.54278  0.97631  0.72810  1.0000
