data_image0
_chemical_formula_structural       FeS2FeS2FeS2FeSFeS3FeS2FeS2FeS2FeSFeS3CH3C3HC8H6C6H4CHCH2C4H3C6H5C2HC2PHCH3C2HCHC2HCHCH3C2H2C4HCHCHCHCHCHC4H4C2H2CH2CH2C2SH3C3H5CHCHCHC2H2C2H2C5H2C5H7C2HC3HC3H2CHCHC3H2C3HC5H4CH2C4H2PC4HC2H3C2H2C2HC6PC16HCH12CH7C2HC5H2CPH5C6PC2FeCHSC2H3C2SC2SHCHC3H2CH2CFeS2FeS2FeSFeS3C2HC2FeS2FeS2FeS2FeSFeS3FeS2CHCH2PH4CH2CH4C6H5C2HCHC6H4CHC2HC6H5C3HCHCHC3HC2HC9PC11HCH4CH12C3H2FeCHC2H2CHC2HCH2PHC10HC4HC4HCHC2H2CHCHC6HC3HCH3SH2C2HC5H3CHCHCHPC2HC4HPHC2HCHCH3CHC3HCH4CHSH4CHC2HC7H4CH3C5HC9PHC2H2CH3C2H2CH2CHC3H2C3HCHC2HC3HCH3CH2CH2PH4C2HC3HC2SC2H2CFeS2FeS2FeS2FeSFeS3FeS2FeS2FeS2FeSFeS3C2H2C2H2C6H4C9H5CH3C3H2C6H4C3HCH2CHCFeCPC5H3C2H6C6PC18H20C2H2C3H3CHCHCHC2HC2HC2HC3HC3HC2H4C3PC16HCH3CH7C2H2CHCPC2HCH2CHC2HCHCHC5HCHC6HSCHCH5C5HCPC3H3CH2SH2C2H2C2H3CHC2H3C5H2CFeHSH3CHC4H2C2SC8HCH3C6H7CH6CHSH2FeHCH3CHC3H4C2HFeS2FeS2FeS2FeSFeS3H3C3FeS2FeS2FeS2FeSFeS3CHCH2C3H2C6H4CH2CH3C6H5C2H4C2HCHC6H4CHC2H2C3HCH2C3HC2HC2H2C2HCH3CPHC3HC3HCHPC14H11C2HSCH3CHC2HC8H2C3HC7PC18H21FeC3HPSC6HS2CHC2HCHC2HCH2CH3CHC2H2CHC6HCHC3HC2H3PCFeC2HFeCHC2H2C2H3FeS2FeS2FeS2FeSFeS3FeS2FeS2FeS2FeSFeS3CH3C3H2C7H5C2HC6H4CH2CHCHC7H4C3H3CPC2HCH3C2H2CH3CHCHC6PC3SHCHC6H3C2H7CPCH6CHC5HCPC12HC2H2CH2C2H3CH5C2HC6PC18H21C6H2PCHCHC3HCHC2H2PHC5HC8H5CHCH2C6HCHC3HCHCHC5HC2H4C3HCH2CHC6HC4H5C5H2CHC2H2C3HCH2CHCH2CHC2HFeHC5HSHCSPH2C2H2C2H2CSHCHFeS2FeS2FeSFeS3FeS2C3HFeS2FeS2FeSFeS3C2H2C2FeS2C2H2CHCHC6H4C5H2C2HCH3C2HC6H4C6H4C2H2CHC2H2C2HC2HC3HCHC6SC2H3C4H3C2H2CHC3H2CH4C2HPHC2H2C2PC4H2C7H3CSHC3H3CH8C4H2CHC3H2C8H2CHCH2CHCHC2HCH4CHPHCFeCHCH5C6PC9H6CHCHCHC7PC8H2FeC7H11S2HC2HSH2C2H3CH2C4PHCHC4HCFeHC2H2CSCH3CH4C8HCHFeS2CHFeS2FeS2FeSFeS3FeS2FeS2FeS2FeSFeS3CHC2HC2HC4H2C6H4CH2CHC6H4CHC2HC11H4C2HC2H2C2HCH4C3HCH3CH4FeHC2HPC17H2CH7PC2H2C2H2CH3C2HCH2CHC4H4C2H3CH2CH2CHCHC5PC2H2C3H4CHC4HCSH2C2H2CHCH3C2HCH2CHC6H2CH2C5HCH2CHCHC2HPC3H3C2HCH4C2HSCH2C3HCHCHCH3CHC2HCH2CH4C2H2C3PH2CH3CHCH3C5HC2PC3HC2H3CFeS2FeS2FeS2FeSFeS3CHCHCHFeS2FeS2FeS2FeSFeS3C3H2C9H4CH3C2HC6H4C2H3CH2C6H5C7H2C2HCH2C2H2CPHC7H2C3H4CH2CHPCHCHCHC2HC3PCHC3H2C2H3C8H2CHCH2CH10C2HC6HC3H2C3HCHC2PC10HC4HCH7C2HCH2CHCH3C2SHC5PHCH2C2H2C6PC4H4C7H7C2HC3H5C3HCH3C4HCHCHC3SHFeCH2C2HFeCS2HCHCHFeCHFeS2FeS2FeS2FeSFeS3FeS2CFeS2FeS2FeSFeS3C3H3C2H2C6H4C6H4C3H2C5PH2C6H10C2HCSC2H3SHC4H2C3HC2HC8PC7HC3HCPHC3H10C4H6C3HCHPC2HCH2C14HC2H3C2H10SPHC2HCHC2H2C3HC8HCHCHC3H2CHC3H5SHC2HCHCHC3H3CHCH4CHCHCHCHC2H2C5H2C2H2CHCHC2H2C2H2CHCHCHPCH2CHC5HC3FeCHFeH2C2HCHCH2C2H4CH2C2H2C3HCHC4FeS2FeS2FeSFeS3FeS2CHC2H2FeS2FeS2FeSFeS3FeS2C4H6C2H3C2H2C6H5C3H2C6H4C6H4C3H2C3H3C2HCHC3H3C3H2C2H4CH2CH4C2HCSCH2C7H4C3HC3H2CH2C2HCHC2PCH3C2HC9H5CH4CH2CHC3H3C7H2CH2C3H2C2H2C4H2CHPC2PCH2CHCHCH3C2HC2HCHCH4C2HCHC3HCHCPHCH4C7PC18H7C2H2CFeH4CH2C3HCH3C3HC8H2C2HCSH4C2H3C2PC3H4CHC5FeS2FeS2FeS2FeSFeS3FeS2FeS2FeS2FeSFeS3H2CHC2H3C7H5CHC6H4C2H2C5H2C6H5C9PC8FeCHCH8C3H2CH9C5H2C4PC13HPHC2HCH11CHCFeCHCHSCH2CSC2H2C2HSCHCHCSC2H2C2H2CHC3H2C5PC10HC3H2C2H2CH7CHC2HCH7C3H3CH2CHSHC4HPH2C4H2C3H3CH3FeCH3C4H2SC2PC3HCH2CHC2HC6H2CH3CH4CH2CH2CHC4HC2HC2H3C3HCHCHC3FeS2FeS2FeS2FeSFeS3FeS2H2CH2FeS2FeS2FeSFeS3C2HC2HCHC6H5C2H2C8H4C4H4CHPHC6H7SH2PH3C2HCHCFeH4CH4C3SH3PC3HC8HC2H5C4HC5H8CH2CHC5PH2C8HCHC3H2CHC2H10CH2C5PC13H2C3HCH2CSHCHCHC5HC5HC3H3C2H3CHCH2CH3CH5CH2CHCHC2HCH2CH2C3HC2H3CPHCHFeHCH3C3H2C8H3CHC4HC2H2CHPCHCSC2HC5H3CHCHCH2C5HCFeS2FeS2FeS2FeSFeS3H3FeS2FeS2FeS2FeSFeS3C2HC2HC12H9CHC6H4CH2C2H2C6H6C6HC4HC2H3C5PC14PHC5H16SH2C5HC2FeCH4CH2C2HCHC7PC18H22CH2CHCHCHCSHPHC4HC2H2FeSCHC7H2CH2SHC2HSH2PH5CH2C2H2CH2C11H2C2SC4H2CFeCHCH2C5H2C2HC2H4C2FeS2FeS2FeSFeS3HC3H2FeS2FeS2FeS2FeSFeS3FeS2C2H4CH2C2H2CHC7H5C4H2SHCFeC8H4C3H2CHC2HC6H3C7PC18HC2H17C2H3C4HC3H2C3HC3SHCHCHCHCHC7PC9HC8H20SH2C4HC3HCHPC2HCH2C2HCHC2H5CH2C8H3C3H3CHCH2CH2CHSH2CHCHCPH3PCHFeCHCHCHCFeHCHCH4CSCHCH5CHCHSH2SHCFeS2FeS2FeS2FeSFeS3FeS2FeS2FeS2FeSFeS3C3HC2HC3H2C6H4CH3C7H4CHFeCHC3H2C6H4CHCHC4H2CHC11PC9H3C6H2CH6CH5C2H6CH2C3HCHC5HCH2CHC7H3C3H2C3HCHPH2CH3C2HC2H2CHCH3C2H3C3HCSCHPC7HCHC8HC3H6C2H8C4PC14H15C7HCHCHC2HC2H5PH3C3PC3HC2HC2H2C2HC2H2CHC2HCHCH2CH2CH2CH2PHC2HCHC2HCH2CH3CH3CHC2H2C4HCH4C2FeS2FeS2FeS2FeSFeS3CHCFeS2FeS2FeS2FeSFeS3C2HCHCHCHC7H4C2H2PHC6H6CHC9H10C3H2C2HCHC2HCHCHC3HCH2C2HC4H2C3HC5HC6H2CHC2HCH3CHCHCHCH3C2H4CHCHPC3HC4SCHC7HCHCHC2H7CH6C5HC3HCPHC2HC2HCHPC2H2C2HCH3C3H3C5HCH4C8HC3H3CHCH4C5H2C2H3C2HC4H7CHC6PC4FeCHCSH2CH3C4HC2HPCH4C2HCH3C2
_chemical_formula_sum              "Fe192 S384 C2880 H2304 P96"
_cell_length_a       57.5882
_cell_length_b       57.5733
_cell_length_c       74.4706
_cell_angle_alpha    87.7326
_cell_angle_beta     87.6787
_cell_angle_gamma    85.9749

_space_group_name_H-M_alt    "P 1"
_space_group_IT_number       1

loop_
  _space_group_symop_operation_xyz
  'x, y, z'

loop_
  _atom_site_type_symbol
  _atom_site_label
  _atom_site_symmetry_multiplicity
  _atom_site_fract_x
  _atom_site_fract_y
  _atom_site_fract_z
  _atom_site_occupancy
  Fe  Fe1       1.0  0.36431  0.11762  0.01439  1.0000
  S   S1        1.0  0.33832  0.12679  0.03805  1.0000
  S   S2        1.0  0.40162  0.10306  0.01532  1.0000
  Fe  Fe2       1.0  0.30382  0.12588  0.14599  1.0000
  S   S3        1.0  0.26707  0.12145  0.13905  1.0000
  S   S4        1.0  0.33404  0.12090  0.12474  1.0000
  Fe  Fe3       1.0  0.28979  0.13196  0.18673  1.0000
  S   S5        1.0  0.25201  0.12619  0.18148  1.0000
  S   S6        1.0  0.29571  0.14087  0.21641  1.0000
  Fe  Fe4       1.0  0.26599  0.09690  0.16351  1.0000
  S   S7        1.0  0.25093  0.06201  0.15698  1.0000
  Fe  Fe5       1.0  0.25620  0.15093  0.15759  1.0000
  S   S8        1.0  0.23421  0.18512  0.15035  1.0000
  S   S9        1.0  0.30312  0.10095  0.17034  1.0000
  S   S10       1.0  0.29360  0.15713  0.16296  1.0000
  Fe  Fe6       1.0  0.11146  0.36609  0.00884  1.0000
  S   S11       1.0  0.12152  0.34015  0.03183  1.0000
  S   S12       1.0  0.07930  0.39033  0.00904  1.0000
  Fe  Fe7       1.0  0.11496  0.27211  0.16240  1.0000
  S   S13       1.0  0.13497  0.30415  0.15773  1.0000
  S   S14       1.0  0.13186  0.23462  0.16468  1.0000
  Fe  Fe8       1.0  0.06717  0.30025  0.16652  1.0000
  S   S15       1.0  0.08545  0.33358  0.16351  1.0000
  S   S16       1.0  0.02733  0.30965  0.16669  1.0000
  Fe  Fe9       1.0  0.10545  0.31763  0.14013  1.0000
  S   S17       1.0  0.10470  0.34487  0.11681  1.0000
  Fe  Fe10      1.0  0.11336  0.31793  0.18145  1.0000
  S   S18       1.0  0.13089  0.34188  0.20023  1.0000
  S   S19       1.0  0.08703  0.28440  0.14272  1.0000
  S   S20       1.0  0.09365  0.28569  0.18665  1.0000
  C   C1        1.0  0.03309  0.37566  0.09516  1.0000
  H   H1        1.0  0.28424  0.03563  0.00001  1.0000
  H   H2        1.0  0.19221  0.32731  0.14716  1.0000
  H   H3        1.0  0.01183  0.26173  0.17144  1.0000
  C   C2        1.0  0.03833  0.31243  0.08374  1.0000
  C   C3        1.0  0.09795  0.46197  0.04529  1.0000
  C   C4        1.0  0.14147  0.34057  0.22255  1.0000
  H   H4        1.0  0.33136  0.04827  0.17825  1.0000
  C   C5        1.0  0.20772  0.27865  0.17251  1.0000
  C   C6        1.0  0.02976  0.39808  0.08713  1.0000
  C   C7        1.0  0.11438  0.34170  0.05519  1.0000
  C   C8        1.0  0.11527  0.32102  0.06593  1.0000
  C   C9        1.0  0.11209  0.32155  0.08479  1.0000
  C   C10       1.0  0.10768  0.34285  0.09309  1.0000
  C   C11       1.0  0.10598  0.36349  0.08229  1.0000
  C   C12       1.0  0.10937  0.36294  0.06344  1.0000
  H   H5        1.0  0.11880  0.30454  0.05958  1.0000
  H   H6        1.0  0.11334  0.30556  0.09293  1.0000
  H   H7        1.0  0.10258  0.38004  0.08861  1.0000
  H   H8        1.0  0.10900  0.37892  0.05531  1.0000
  H   H9        1.0  0.03588  0.43449  0.08977  1.0000
  H   H10       1.0  0.21939  0.07464  0.12559  1.0000
  C   C13       1.0  0.20622  0.19905  0.15623  1.0000
  C   C14       1.0  0.18834  0.18716  0.16495  1.0000
  C   C15       1.0  0.16588  0.19841  0.16761  1.0000
  C   C16       1.0  0.16101  0.22187  0.16205  1.0000
  C   C17       1.0  0.17918  0.23411  0.15418  1.0000
  C   C18       1.0  0.20151  0.22274  0.15123  1.0000
  H   H11       1.0  0.19166  0.16927  0.16951  1.0000
  H   H12       1.0  0.15210  0.18879  0.17396  1.0000
  H   H13       1.0  0.17595  0.25225  0.15015  1.0000
  H   H14       1.0  0.21526  0.23244  0.14504  1.0000
  C   C19       1.0  0.31557  0.15154  0.23178  1.0000
  H   H15       1.0  0.24979  0.16254  0.11891  1.0000
  C   C20       1.0  0.04894  0.30848  0.10023  1.0000
  H   H16       1.0  0.19580  0.28316  0.01138  1.0000
  H   H17       1.0  0.34383  0.15625  0.21253  1.0000
  C   C21       1.0  0.99942  0.29750  0.16692  1.0000
  C   C22       1.0  0.27082  0.02341  0.17675  1.0000
  C   C23       1.0  0.25624  0.03159  0.16292  1.0000
  C   C24       1.0  0.24472  0.01511  0.15368  1.0000
  H   H18       1.0  0.42048  0.04643  0.06344  1.0000
  H   H19       1.0  0.27969  0.03572  0.18413  1.0000
  H   H20       1.0  0.23320  0.02110  0.14311  1.0000
  C   C25       1.0  0.33763  0.12321  0.06212  1.0000
  C   C26       1.0  0.31624  0.12749  0.07167  1.0000
  C   C27       1.0  0.31471  0.12639  0.09070  1.0000
  C   C28       1.0  0.33468  0.12119  0.10059  1.0000
  C   C29       1.0  0.35601  0.11617  0.09105  1.0000
  C   C30       1.0  0.35748  0.11705  0.07198  1.0000
  H   H21       1.0  0.30079  0.13208  0.06420  1.0000
  H   H22       1.0  0.29816  0.13000  0.09774  1.0000
  H   H23       1.0  0.37162  0.11199  0.09845  1.0000
  H   H24       1.0  0.37410  0.11362  0.06494  1.0000
  H   H25       1.0  0.29997  0.01843  0.12373  1.0000
  C   C31       1.0  0.01622  0.47046  0.04940  1.0000
  C   C32       1.0  0.16179  0.18197  0.08404  1.0000
  H   H26       1.0  0.10086  0.47043  0.03223  1.0000
  C   C33       1.0  0.31320  0.07095  0.03519  1.0000
  C   C34       1.0  0.36638  0.02892  0.07478  1.0000
  P   P1        1.0  0.32402  0.03293  0.05806  1.0000
  H   H27       1.0  0.08197  0.34082  0.22508  1.0000
  C   C35       1.0  0.31692  0.05935  0.08901  1.0000
  H   H28       1.0  0.08787  0.43056  0.03393  1.0000
  H   H29       1.0  0.31031  0.19179  0.09485  1.0000
  H   H30       1.0  0.27631  0.08751  0.05601  1.0000
  C   C36       1.0  0.10181  0.47348  0.06105  1.0000
  C   C37       1.0  0.30690  0.04563  0.07659  1.0000
  H   H31       1.0  0.21060  0.10629  0.03210  1.0000
  C   C38       1.0  0.25960  0.16734  0.10690  1.0000
  H   H32       1.0  0.08152  0.41029  0.06358  1.0000
  C   C39       1.0  0.29477  0.00091  0.12233  1.0000
  C   C40       1.0  0.27249  0.99793  0.11637  1.0000
  H   H33       1.0  0.28686  0.07833  0.99510  1.0000
  C   C41       1.0  0.32256  0.00172  0.05777  1.0000
  H   H34       1.0  0.09379  0.23645  0.10372  1.0000
  C   C42       1.0  0.01400  0.31529  0.08313  1.0000
  H   H35       1.0  0.19820  0.13850  0.15103  1.0000
  H   H36       1.0  0.32145  0.08102  0.04481  1.0000
  H   H37       1.0  0.17638  0.15250  0.09912  1.0000
  C   C43       1.0  0.21923  0.24005  0.20385  1.0000
  C   C44       1.0  0.35463  0.03724  0.05943  1.0000
  H   H38       1.0  0.02613  0.36090  0.08926  1.0000
  H   H39       1.0  0.00648  0.31912  0.07023  1.0000
  C   C45       1.0  0.28043  0.17796  0.10869  1.0000
  C   C46       1.0  0.18851  0.30846  0.19095  1.0000
  C   C47       1.0  0.47295  0.11319  0.00149  1.0000
  C   C48       1.0  0.25358  0.21918  0.19062  1.0000
  H   H40       1.0  0.35118  0.02753  0.11530  1.0000
  C   C49       1.0  0.19993  0.28619  0.18960  1.0000
  H   H41       1.0  0.30157  0.99823  0.08248  1.0000
  C   C50       1.0  0.02863  0.46868  0.03294  1.0000
  H   H42       1.0  0.15586  0.37409  0.21910  1.0000
  C   C51       1.0  0.03840  0.41700  0.09546  1.0000
  H   H43       1.0  0.29710  0.18397  0.06454  1.0000
  C   C52       1.0  0.30123  0.03418  0.02533  1.0000
  H   H44       1.0  0.12257  0.24678  0.20278  1.0000
  C   C53       1.0  0.99602  0.40667  0.00612  1.0000
  H   H45       1.0  0.28393  0.99340  0.19264  1.0000
  C   C54       1.0  0.03525  0.30741  0.11609  1.0000
  C   C55       1.0  0.28631  0.17982  0.07636  1.0000
  C   C56       1.0  0.28282  0.04294  0.07802  1.0000
  C   C57       1.0  0.08721  0.42785  0.06289  1.0000
  H   H46       1.0  0.27065  0.21925  0.18395  1.0000
  H   H47       1.0  0.11279  0.24564  0.23550  1.0000
  H   H48       1.0  0.04335  0.30487  0.12896  1.0000
  H   H49       1.0  0.18103  0.31441  0.20361  1.0000
  C   C58       1.0  0.39087  0.05098  0.04668  1.0000
  C   C59       1.0  0.20912  0.21868  0.20713  1.0000
  H   H50       1.0  0.25400  0.17299  0.22838  1.0000
  H   H51       1.0  0.10180  0.46986  0.09019  1.0000
  C   C60       1.0  0.21793  0.28239  0.22637  1.0000
  H   H52       1.0  0.04034  0.41021  0.03282  1.0000
  H   H53       1.0  0.41309  0.99179  0.03193  1.0000
  C   C61       1.0  0.15747  0.25677  0.20581  1.0000
  H   H54       1.0  0.14461  0.18088  0.09041  1.0000
  H   H55       1.0  0.31108  0.07940  0.11288  1.0000
  C   C62       1.0  0.22115  0.19783  0.20214  1.0000
  C   C63       1.0  0.09451  0.37135  0.23614  1.0000
  S   S21       1.0  0.35359  0.08948  0.99697  1.0000
  H   H56       1.0  0.39874  0.02694  0.08851  1.0000
  H   H57       1.0  0.05668  0.37399  0.05924  1.0000
  H   H58       1.0  0.99820  0.42050  0.01514  1.0000
  C   C64       1.0  0.36718  0.04785  0.04516  1.0000
  C   C65       1.0  0.34037  0.01437  0.14173  1.0000
  C   C66       1.0  0.20981  0.14205  0.12327  1.0000
  H   H59       1.0  0.24960  0.25634  0.19257  1.0000
  H   H60       1.0  0.21544  0.26124  0.17072  1.0000
  H   H61       1.0  0.03705  0.32915  0.01873  1.0000
  H   H62       1.0  0.20039  0.13395  0.05616  1.0000
  H   H63       1.0  0.22306  0.18614  0.06110  1.0000
  C   C67       1.0  0.30329  0.06902  0.10319  1.0000
  H   H64       1.0  0.05751  0.42791  0.11765  1.0000
  C   C68       1.0  0.20449  0.12945  0.13917  1.0000
  H   H65       1.0  0.12919  0.30714  0.23057  1.0000
  C   C69       1.0  0.04572  0.37207  0.11077  1.0000
  H   H66       1.0  0.17676  0.34026  0.17698  1.0000
  C   C70       1.0  0.38496  0.01783  0.99849  1.0000
  C   C71       1.0  0.21640  0.09345  0.12477  1.0000
  H   H67       1.0  0.22839  0.09626  0.09739  1.0000
  H   H68       1.0  0.45829  0.10338  0.00588  1.0000
  C   C72       1.0  0.26559  0.16895  0.07456  1.0000
  C   C73       1.0  0.08377  0.35031  0.23720  1.0000
  H   H69       1.0  0.04892  0.35466  0.11666  1.0000
  H   H70       1.0  0.04903  0.31371  0.07147  1.0000
  C   C74       1.0  0.99666  0.27362  0.16955  1.0000
  C   C75       1.0  0.20506  0.29346  0.15728  1.0000
  C   C76       1.0  0.05073  0.41336  0.11127  1.0000
  C   C77       1.0  0.16560  0.19912  0.07066  1.0000
  C   C78       1.0  0.01101  0.31018  0.11555  1.0000
  H   H71       1.0  0.06777  0.30668  0.10080  1.0000
  H   H72       1.0  0.08967  0.42970  0.09151  1.0000
  C   C79       1.0  0.27322  0.99931  0.18153  1.0000
  C   C80       1.0  0.38995  0.03256  0.07638  1.0000
  C   C81       1.0  0.09065  0.43930  0.04621  1.0000
  C   C82       1.0  0.01211  0.45035  0.05991  1.0000
  C   C83       1.0  0.25204  0.16252  0.08986  1.0000
  H   H73       1.0  0.06473  0.38782  0.13076  1.0000
  H   H74       1.0  0.18829  0.30661  0.23245  1.0000
  H   H75       1.0  0.35469  0.06774  0.12467  1.0000
  H   H76       1.0  0.21096  0.28741  0.14417  1.0000
  H   H77       1.0  0.00095  0.31006  0.12816  1.0000
  H   H78       1.0  0.28640  0.18092  0.12198  1.0000
  H   H79       1.0  0.03133  0.48409  0.02451  1.0000
  C   C84       1.0  0.30369  0.08230  0.01997  1.0000
  C   C85       1.0  0.34737  0.03160  0.12915  1.0000
  H   H80       1.0  0.99618  0.34562  0.02165  1.0000
  C   C86       1.0  0.34402  0.06026  0.15213  1.0000
  C   C87       1.0  0.19440  0.31586  0.15892  1.0000
  C   C88       1.0  0.09855  0.46175  0.07778  1.0000
  H   H81       1.0  0.21310  0.18145  0.20433  1.0000
  C   C89       1.0  0.39320  0.99441  0.99790  1.0000
  C   C90       1.0  0.20792  0.10520  0.13996  1.0000
  C   C91       1.0  0.13542  0.25085  0.21220  1.0000
  H   H82       1.0  0.35899  0.05358  0.03278  1.0000
  H   H83       1.0  0.20734  0.16089  0.12308  1.0000
  C   C92       1.0  0.33622  0.04346  0.16461  1.0000
  H   H84       1.0  0.04640  0.44536  0.01421  1.0000
  C   C93       1.0  0.29344  0.06958  0.00721  1.0000
  H   H85       1.0  0.26074  0.01299  0.11353  1.0000
  C   C94       1.0  0.33799  0.15778  0.22644  1.0000
  C   C95       1.0  0.18592  0.32325  0.17572  1.0000
  C   C96       1.0  0.05466  0.39086  0.11878  1.0000
  H   H86       1.0  0.30497  0.10094  0.01784  1.0000
  H   H87       1.0  0.29983  0.01560  0.02713  1.0000
  C   C97       1.0  0.29382  0.18418  0.09343  1.0000
  C   C98       1.0  0.11568  0.25185  0.08296  1.0000
  C   C99       1.0  0.34934  0.05440  0.13438  1.0000
  H   H88       1.0  0.15138  0.21132  0.06665  1.0000
  C   C100      1.0  0.18003  0.16603  0.08911  1.0000
  C   C101      1.0  0.33434  0.02058  0.15944  1.0000
  C   C102      1.0  0.13001  0.24997  0.23066  1.0000
  C   C103      1.0  0.24336  0.19808  0.19393  1.0000
  C   C104      1.0  0.24160  0.24008  0.19554  1.0000
  H   H89       1.0  0.26644  0.11486  0.08003  1.0000
  H   H90       1.0  0.44345  0.07240  0.24099  1.0000
  H   H91       1.0  0.14606  0.46714  0.04534  1.0000
  H   H92       1.0  0.10315  0.25096  0.07258  1.0000
  C   C105      1.0  0.29208  0.04555  0.00995  1.0000
  H   H93       1.0  0.99235  0.35500  0.11695  1.0000
  H   H94       1.0  0.34427  0.99854  0.03342  1.0000
  C   C106      1.0  0.02085  0.42833  0.05422  1.0000
  C   C107      1.0  0.24763  0.99095  0.15814  1.0000
  C   C108      1.0  0.13804  0.32187  0.23475  1.0000
  C   C109      1.0  0.31225  0.04680  0.03792  1.0000
  H   H95       1.0  0.17958  0.46958  0.02397  1.0000
  H   H96       1.0  0.16131  0.25733  0.19144  1.0000
  P   P2        1.0  0.20339  0.26731  0.20953  1.0000
  C   C110      1.0  0.00308  0.36893  0.04242  1.0000
  C   C111      1.0  0.18771  0.20043  0.06241  1.0000
  C   C112      1.0  0.35303  0.16578  0.23915  1.0000
  C   C113      1.0  0.17448  0.26136  0.21791  1.0000
  H   H97       1.0  0.35719  0.01974  0.08549  1.0000
  C   C114      1.0  0.09148  0.43895  0.07864  1.0000
  C   C115      1.0  0.03369  0.42683  0.03782  1.0000
  H   H98       1.0  0.27460  0.03310  0.06824  1.0000
  H   H99       1.0  0.34562  0.07798  0.15608  1.0000
  H   H100      1.0  0.10092  0.37804  0.22319  1.0000
  C   C116      1.0  0.14984  0.48395  0.03933  1.0000
  C   C117      1.0  0.22172  0.10593  0.10882  1.0000
  H   H101      1.0  0.32797  0.00793  0.16925  1.0000
  H   H102      1.0  0.37032  0.17027  0.23475  1.0000
  C   C118      1.0  0.03723  0.44687  0.02715  1.0000
  C   C119      1.0  0.40220  0.04361  0.06232  1.0000
  H   H103      1.0  0.19182  0.21792  0.21324  1.0000
  C   C120      1.0  0.16412  0.33433  0.11678  1.0000
  C   C121      1.0  0.17874  0.35048  0.10885  1.0000
  C   C122      1.0  0.19402  0.34404  0.09459  1.0000
  C   C123      1.0  0.19454  0.32150  0.08817  1.0000
  C   C124      1.0  0.17958  0.30524  0.09588  1.0000
  C   C125      1.0  0.16449  0.31180  0.11037  1.0000
  P   P3        1.0  0.18057  0.27613  0.08744  1.0000
  C   C126      1.0  0.18590  0.27840  0.06337  1.0000
  C   C127      1.0  0.20386  0.25823  0.09766  1.0000
  C   C128      1.0  0.20212  0.23409  0.10028  1.0000
  C   C129      1.0  0.22034  0.22014  0.10779  1.0000
  C   C130      1.0  0.24045  0.23011  0.11271  1.0000
  C   C131      1.0  0.24242  0.25406  0.11006  1.0000
  C   C132      1.0  0.22423  0.26809  0.10252  1.0000
  C   C133      1.0  0.17417  0.29630  0.05320  1.0000
  C   C134      1.0  0.17765  0.29790  0.03453  1.0000
  C   C135      1.0  0.19314  0.28184  0.02587  1.0000
  C   C136      1.0  0.20518  0.26417  0.03591  1.0000
  C   C137      1.0  0.20159  0.26243  0.05461  1.0000
  C   C138      1.0  0.15312  0.26323  0.09235  1.0000
  C   C139      1.0  0.14772  0.25473  0.10985  1.0000
  C   C140      1.0  0.12648  0.24498  0.11385  1.0000
  C   C141      1.0  0.11039  0.24369  0.10046  1.0000
  H   H104      1.0  0.33509  0.06304  0.08771  1.0000
  C   C142      1.0  0.13701  0.26144  0.07887  1.0000
  H   H105      1.0  0.15213  0.33943  0.12776  1.0000
  H   H106      1.0  0.17803  0.36802  0.11370  1.0000
  H   H107      1.0  0.20530  0.35659  0.08838  1.0000
  H   H108      1.0  0.20648  0.31685  0.07708  1.0000
  H   H109      1.0  0.15263  0.29989  0.11660  1.0000
  H   H110      1.0  0.18664  0.22600  0.09674  1.0000
  H   H111      1.0  0.21863  0.20167  0.11035  1.0000
  H   H112      1.0  0.25421  0.21932  0.11906  1.0000
  H   H113      1.0  0.25800  0.26174  0.11400  1.0000
  H   H114      1.0  0.22616  0.28656  0.10055  1.0000
  H   H115      1.0  0.16219  0.30902  0.05967  1.0000
  H   H116      1.0  0.16820  0.31161  0.02679  1.0000
  C   C143      1.0  0.25621  0.18581  0.23836  1.0000
  H   H117      1.0  0.21733  0.25186  0.02916  1.0000
  H   H118      1.0  0.21110  0.24866  0.06213  1.0000
  H   H119      1.0  0.15983  0.25577  0.12049  1.0000
  H   H120      1.0  0.12237  0.23861  0.12743  1.0000
  H   H121      1.0  0.28386  0.20150  0.22312  1.0000
  H   H122      1.0  0.26911  0.07313  0.11595  1.0000
  H   H123      1.0  0.14063  0.26759  0.06522  1.0000
  C   C144      1.0  0.02007  0.37742  0.05297  1.0000
  C   C145      1.0  0.20612  0.18483  0.06771  1.0000
  H   H124      1.0  0.26065  0.16490  0.06123  1.0000
  C   C146      1.0  0.03218  0.34206  0.02867  1.0000
  C   C147      1.0  0.04910  0.35000  0.03939  1.0000
  C   C148      1.0  0.04311  0.36759  0.05149  1.0000
  C   C149      1.0  0.15305  0.35953  0.22837  1.0000
  C   C150      1.0  0.27951  0.06571  0.10481  1.0000
  H   H125      1.0  0.24865  0.08309  0.03182  1.0000
  H   H126      1.0  0.19054  0.21346  0.05181  1.0000
  C   C151      1.0  0.26920  0.05298  0.09207  1.0000
  P   P4        1.0  0.01333  0.40226  0.06692  1.0000
  H   H127      1.0  0.20450  0.09547  0.15246  1.0000
  H   H128      1.0  0.06706  0.34303  0.03789  1.0000
  H   H129      1.0  0.40050  0.05912  0.03565  1.0000
  H   H130      1.0  0.25067  0.05075  0.09318  1.0000
  H   H131      1.0  0.25251  0.18191  0.18986  1.0000
  C   C152      1.0  0.25980  0.09768  0.05594  1.0000
  C   C153      1.0  0.24417  0.09520  0.04240  1.0000
  C   C154      1.0  0.22278  0.10833  0.04255  1.0000
  C   C155      1.0  0.21710  0.12408  0.05617  1.0000
  C   C156      1.0  0.23298  0.12693  0.06960  1.0000
  C   C157      1.0  0.25422  0.11339  0.06950  1.0000
  P   P5        1.0  0.22619  0.14683  0.08748  1.0000
  C   C158      1.0  0.20249  0.16754  0.08119  1.0000
  C   C159      1.0  0.21869  0.13042  0.10796  1.0000
  Fe  Fe11      1.0  0.39105  0.07643  0.99653  1.0000
  C   C160      1.0  0.20624  0.30130  0.23512  1.0000
  H   H132      1.0  0.25026  0.26055  0.22515  1.0000
  S   S22       1.0  0.40492  0.03911  0.00074  1.0000
  C   C161      1.0  0.00915  0.35134  0.03032  1.0000
  C   C162      1.0  0.31022  0.98942  0.07128  1.0000
  H   H133      1.0  0.00173  0.45191  0.07232  1.0000
  H   H134      1.0  0.38726  0.99519  0.12994  1.0000
  H   H135      1.0  0.41000  0.20353  0.23867  1.0000
  C   C163      1.0  0.10289  0.48031  0.99457  1.0000
  C   C164      1.0  0.00003  0.31394  0.09907  1.0000
  S   S23       1.0  0.13327  0.39177  0.99309  1.0000
  C   C165      1.0  0.16915  0.25978  0.23648  1.0000
  C   C166      1.0  0.27311  0.20192  0.23542  1.0000
  S   S24       1.0  0.08934  0.45351  0.99711  1.0000
  H   H136      1.0  0.03272  0.39972  0.00077  1.0000
  C   C167      1.0  0.01555  0.39482  0.99809  1.0000
  H   H137      1.0  0.35460  0.04177  0.99736  1.0000
  C   C168      1.0  0.36116  0.02384  0.99698  1.0000
  C   C169      1.0  0.24087  0.27543  0.23102  1.0000
  C   C170      1.0  0.16911  0.48527  0.02739  1.0000
  H   H138      1.0  0.32729  0.01119  0.99375  1.0000
  H   H139      1.0  0.46516  0.06303  0.99505  1.0000
  C   C171      1.0  0.34567  0.00649  0.99496  1.0000
  H   H140      1.0  0.00931  0.48736  0.05379  1.0000
  H   H141      1.0  0.41165  0.98977  0.99867  1.0000
  C   C172      1.0  0.33439  0.98943  0.04385  1.0000
  Fe  Fe12      1.0  0.36758  0.18889  0.30244  1.0000
  S   S25       1.0  0.37696  0.22590  0.30648  1.0000
  S   S26       1.0  0.36624  0.17757  0.27290  1.0000
  Fe  Fe13      1.0  0.36883  0.17732  0.34385  1.0000
  S   S27       1.0  0.37760  0.21339  0.34960  1.0000
  S   S28       1.0  0.36566  0.14863  0.36613  1.0000
  Fe  Fe14      1.0  0.35046  0.22587  0.32966  1.0000
  S   S29       1.0  0.32054  0.25207  0.33865  1.0000
  Fe  Fe15      1.0  0.40353  0.21014  0.32601  1.0000
  S   S30       1.0  0.44137  0.21584  0.33326  1.0000
  S   S31       1.0  0.34020  0.18949  0.32498  1.0000
  S   S32       1.0  0.39548  0.17337  0.32089  1.0000
  C   C173      1.0  0.45643  0.13672  0.32437  1.0000
  C   C174      1.0  0.44127  0.04731  0.43407  1.0000
  H   H142      1.0  0.30320  0.06786  0.46309  1.0000
  C   C175      1.0  0.44409  0.15183  0.39848  1.0000
  C   C176      1.0  0.48525  0.05939  0.41509  1.0000
  Fe  Fe16      1.0  0.38148  0.12171  0.47351  1.0000
  S   S33       1.0  0.38076  0.15041  0.45106  1.0000
  S   S34       1.0  0.39641  0.08523  0.46907  1.0000
  Fe  Fe17      1.0  0.22913  0.36573  0.31961  1.0000
  S   S35       1.0  0.19825  0.34430  0.32442  1.0000
  S   S36       1.0  0.26641  0.34911  0.31456  1.0000
  Fe  Fe18      1.0  0.19786  0.41178  0.31570  1.0000
  S   S37       1.0  0.16539  0.39172  0.31917  1.0000
  S   S38       1.0  0.18837  0.45167  0.31312  1.0000
  Fe  Fe19      1.0  0.18334  0.37293  0.34237  1.0000
  S   S39       1.0  0.16036  0.36545  0.36776  1.0000
  Fe  Fe20      1.0  0.18277  0.36491  0.30084  1.0000
  S   S40       1.0  0.16578  0.34142  0.28121  1.0000
  S   S41       1.0  0.21546  0.39318  0.33934  1.0000
  S   S42       1.0  0.21395  0.38603  0.29556  1.0000
  Fe  Fe21      1.0  0.12295  0.39657  0.47303  1.0000
  S   S43       1.0  0.08504  0.40967  0.47611  1.0000
  S   S44       1.0  0.14777  0.40186  0.44833  1.0000
  C   C177      1.0  0.01708  0.38825  0.48165  1.0000
  H   H143      1.0  0.31786  0.16301  0.27671  1.0000
  C   C178      1.0  0.41464  0.21647  0.26493  1.0000
  H   H144      1.0  0.09446  0.39831  0.32704  1.0000
  H   H145      1.0  0.47655  0.25385  0.34734  1.0000
  P   P6        1.0  0.17215  0.47460  0.38000  1.0000
  H   H146      1.0  0.16114  0.45663  0.27992  1.0000
  H   H147      1.0  0.24896  0.31589  0.26197  1.0000
  H   H148      1.0  0.06393  0.42651  0.26962  1.0000
  H   H149      1.0  0.35975  0.28475  0.33838  1.0000
  C   C179      1.0  0.15687  0.34164  0.25845  1.0000
  H   H150      1.0  0.48530  0.20239  0.34794  1.0000
  H   H151      1.0  0.18878  0.47216  0.46190  1.0000
  C   C180      1.0  0.32489  0.17129  0.43100  1.0000
  H   H152      1.0  0.18873  0.40082  0.48080  1.0000
  H   H153      1.0  0.28210  0.14132  0.46112  1.0000
  H   H154      1.0  0.14259  0.30804  0.26190  1.0000
  H   H155      1.0  0.43126  0.14745  0.40890  1.0000
  C   C181      1.0  0.15731  0.37602  0.39007  1.0000
  C   C182      1.0  0.17294  0.39067  0.39696  1.0000
  C   C183      1.0  0.16962  0.39844  0.41472  1.0000
  C   C184      1.0  0.15085  0.39152  0.42596  1.0000
  C   C185      1.0  0.13524  0.37689  0.41908  1.0000
  C   C186      1.0  0.13848  0.36922  0.40129  1.0000
  H   H156      1.0  0.18766  0.39588  0.38864  1.0000
  H   H157      1.0  0.18185  0.40971  0.41986  1.0000
  H   H158      1.0  0.12074  0.37136  0.42748  1.0000
  H   H159      1.0  0.12634  0.35780  0.39621  1.0000
  H   H160      1.0  0.07204  0.34650  0.28227  1.0000
  C   C187      1.0  0.14273  0.45681  0.40746  1.0000
  C   C188      1.0  0.45819  0.09442  0.43682  1.0000
  H   H161      1.0  0.44782  0.20113  0.40675  1.0000
  C   C189      1.0  0.42671  0.30586  0.39486  1.0000
  H   H162      1.0  0.11634  0.34351  0.29089  1.0000
  C   C190      1.0  0.30548  0.27870  0.33116  1.0000
  C   C191      1.0  0.31358  0.29240  0.31659  1.0000
  C   C192      1.0  0.30139  0.31378  0.31171  1.0000
  C   C193      1.0  0.28072  0.32164  0.32109  1.0000
  C   C194      1.0  0.27245  0.30773  0.33547  1.0000
  C   C195      1.0  0.28482  0.28654  0.34051  1.0000
  H   H163      1.0  0.32939  0.28670  0.30925  1.0000
  H   H164      1.0  0.30803  0.32437  0.30060  1.0000
  H   H165      1.0  0.25671  0.31348  0.34292  1.0000
  H   H166      1.0  0.27836  0.27620  0.35183  1.0000
  C   C196      1.0  0.47043  0.21766  0.32404  1.0000
  H   H167      1.0  0.39968  0.36212  0.37126  1.0000
  C   C197      1.0  0.47556  0.22859  0.30736  1.0000
  C   C198      1.0  0.42663  0.21322  0.28086  1.0000
  H   H168      1.0  0.46160  0.23596  0.29922  1.0000
  C   C199      1.0  0.37017  0.14968  0.38971  1.0000
  C   C200      1.0  0.37775  0.16936  0.39759  1.0000
  C   C201      1.0  0.38152  0.16907  0.41625  1.0000
  C   C202      1.0  0.37787  0.14911  0.42732  1.0000
  C   C203      1.0  0.37058  0.12939  0.41939  1.0000
  C   C204      1.0  0.36627  0.12990  0.40084  1.0000
  H   H169      1.0  0.38034  0.18490  0.38935  1.0000
  H   H170      1.0  0.38684  0.18458  0.42223  1.0000
  H   H171      1.0  0.36738  0.11408  0.42769  1.0000
  H   H172      1.0  0.35929  0.11505  0.39513  1.0000
  H   H173      1.0  0.24105  0.43421  0.35066  1.0000
  C   C205      1.0  0.44300  0.19436  0.28305  1.0000
  C   C206      1.0  0.34600  0.16788  0.25743  1.0000
  C   C207      1.0  0.11337  0.41200  0.28512  1.0000
  H   H174      1.0  0.42430  0.13822  0.26430  1.0000
  C   C208      1.0  0.32408  0.00572  0.47457  1.0000
  H   H175      1.0  0.26986  0.28236  0.24679  1.0000
  C   C209      1.0  0.43127  0.03024  0.42447  1.0000
  H   H176      1.0  0.13373  0.32050  0.31599  1.0000
  C   C210      1.0  0.43910  0.04656  0.45290  1.0000
  C   C211      1.0  0.01756  0.42263  0.29908  1.0000
  C   C212      1.0  0.32569  0.07781  0.41114  1.0000
  H   H177      1.0  0.99234  0.41043  0.46683  1.0000
  C   C213      1.0  0.43637  0.18264  0.25291  1.0000
  C   C214      1.0  0.42809  0.21985  0.38621  1.0000
  H   H178      1.0  0.45185  0.19199  0.29559  1.0000
  C   C215      1.0  0.41700  0.32814  0.36757  1.0000
  C   C216      1.0  0.27389  0.09828  0.42641  1.0000
  C   C217      1.0  0.10303  0.37223  0.30721  1.0000
  C   C218      1.0  0.20792  0.27401  0.28250  1.0000
  C   C219      1.0  0.21145  0.29220  0.29370  1.0000
  C   C220      1.0  0.23288  0.29328  0.30157  1.0000
  C   C221      1.0  0.25076  0.27608  0.29841  1.0000
  C   C222      1.0  0.24756  0.25775  0.28705  1.0000
  C   C223      1.0  0.22589  0.25690  0.27909  1.0000
  P   P7        1.0  0.27074  0.23519  0.28330  1.0000
  C   C224      1.0  0.29878  0.24675  0.27816  1.0000
  C   C225      1.0  0.27409  0.21634  0.30324  1.0000
  C   C226      1.0  0.28029  0.19241  0.30163  1.0000
  C   C227      1.0  0.28325  0.17784  0.31696  1.0000
  C   C228      1.0  0.28059  0.18708  0.33404  1.0000
  C   C229      1.0  0.27498  0.21090  0.33578  1.0000
  C   C230      1.0  0.27170  0.22545  0.32049  1.0000
  C   C231      1.0  0.31863  0.23124  0.27639  1.0000
  C   C232      1.0  0.34025  0.23954  0.27133  1.0000
  C   C233      1.0  0.09765  0.38333  0.25173  1.0000
  C   C234      1.0  0.47408  0.31275  0.35108  1.0000
  H   H179      1.0  0.10606  0.39956  0.25052  1.0000
  C   C235      1.0  0.26391  0.21728  0.26501  1.0000
  H   H180      1.0  0.44105  0.13468  0.33301  1.0000
  H   H181      1.0  0.40144  0.23069  0.26347  1.0000
  H   H182      1.0  0.05356  0.48812  0.48095  1.0000
  H   H183      1.0  0.44462  0.27480  0.32352  1.0000
  C   C236      1.0  0.24651  0.20139  0.26764  1.0000
  H   H184      1.0  0.19127  0.27345  0.27634  1.0000
  H   H185      1.0  0.19762  0.30557  0.29620  1.0000
  H   H186      1.0  0.23564  0.30756  0.31013  1.0000
  H   H187      1.0  0.26720  0.27732  0.30471  1.0000
  H   H188      1.0  0.22271  0.24330  0.27011  1.0000
  H   H189      1.0  0.28326  0.18493  0.28857  1.0000
  H   H190      1.0  0.28829  0.15949  0.31556  1.0000
  H   H191      1.0  0.28359  0.17594  0.34590  1.0000
  H   H192      1.0  0.27384  0.21832  0.34896  1.0000
  H   H193      1.0  0.26797  0.24383  0.32234  1.0000
  H   H194      1.0  0.31739  0.21263  0.27857  1.0000
  H   H195      1.0  0.35531  0.22733  0.26968  1.0000
  C   C237      1.0  0.29738  0.08381  0.46965  1.0000
  C   C238      1.0  0.13186  0.46622  0.33675  1.0000
  C   C239      1.0  0.32286  0.27899  0.27027  1.0000
  H   H196      1.0  0.99990  0.43002  0.30133  1.0000
  H   H197      1.0  0.03209  0.39540  0.47489  1.0000
  Fe  Fe22      1.0  0.36772  0.07369  0.48796  1.0000
  C   C240      1.0  0.34466  0.01479  0.47959  1.0000
  H   H198      1.0  0.23639  0.20065  0.28021  1.0000
  C   C241      1.0  0.11197  0.36767  0.33885  1.0000
  C   C242      1.0  0.18960  0.43565  0.46935  1.0000
  H   H199      1.0  0.18215  0.26253  0.24609  1.0000
  H   H200      1.0  0.23598  0.42570  0.40825  1.0000
  C   C243      1.0  0.41497  0.09757  0.37299  1.0000
  H   H201      1.0  0.44731  0.16867  0.35422  1.0000
  C   C244      1.0  0.07084  0.48559  0.45510  1.0000
  C   C245      1.0  0.43145  0.10518  0.25225  1.0000
  H   H202      1.0  0.42922  0.14566  0.44850  1.0000
  C   C246      1.0  0.41661  0.01259  0.45236  1.0000
  H   H203      1.0  0.17072  0.41538  0.27263  1.0000
  H   H204      1.0  0.41168  0.24203  0.36602  1.0000
  P   P8        1.0  0.45624  0.07031  0.42229  1.0000
  H   H205      1.0  0.21561  0.08134  0.40753  1.0000
  C   C247      1.0  0.30470  0.14080  0.40892  1.0000
  C   C248      1.0  0.44183  0.25721  0.37592  1.0000
  C   C249      1.0  0.30853  0.15374  0.25007  1.0000
  C   C250      1.0  0.42623  0.27742  0.32698  1.0000
  C   C251      1.0  0.25641  0.11558  0.42204  1.0000
  C   C252      1.0  0.14435  0.47632  0.34978  1.0000
  C   C253      1.0  0.41901  0.01294  0.43361  1.0000
  C   C254      1.0  0.32431  0.08565  0.42880  1.0000
  C   C255      1.0  0.41026  0.27688  0.31336  1.0000
  C   C256      1.0  0.26984  0.07476  0.42444  1.0000
  H   H206      1.0  0.46377  0.14720  0.46701  1.0000
  C   C257      1.0  0.10810  0.43536  0.28946  1.0000
  C   C258      1.0  0.23553  0.10948  0.41514  1.0000
  C   C259      1.0  0.32071  0.17791  0.41311  1.0000
  C   C260      1.0  0.43897  0.09970  0.37314  1.0000
  H   H207      1.0  0.12469  0.47693  0.32577  1.0000
  C   C261      1.0  0.30837  0.13423  0.42701  1.0000
  C   C262      1.0  0.46235  0.23368  0.39891  1.0000
  C   C263      1.0  0.14769  0.44431  0.28108  1.0000
  C   C264      1.0  0.41707  0.32425  0.40510  1.0000
  H   H208      1.0  0.40653  0.07207  0.41437  1.0000
  C   C265      1.0  0.44061  0.11259  0.43733  1.0000
  H   H209      1.0  0.12131  0.46943  0.29084  1.0000
  C   C266      1.0  0.38635  0.27996  0.31742  1.0000
  C   C267      1.0  0.45389  0.14395  0.30637  1.0000
  H   H210      1.0  0.41573  0.20663  0.38542  1.0000
  H   H211      1.0  0.44769  0.10819  0.36182  1.0000
  C   C268      1.0  0.48414  0.15792  0.38882  1.0000
  H   H212      1.0  0.44662  0.05943  0.46067  1.0000
  C   C269      1.0  0.46771  0.15186  0.40238  1.0000
  H   H213      1.0  0.25698  0.41743  0.37918  1.0000
  C   C270      1.0  0.46155  0.12933  0.26142  1.0000
  C   C271      1.0  0.34345  0.06139  0.40581  1.0000
  C   C272      1.0  0.36002  0.05280  0.41804  1.0000
  C   C273      1.0  0.35919  0.06107  0.43545  1.0000
  C   C274      1.0  0.40736  0.34647  0.37785  1.0000
  C   C275      1.0  0.45158  0.09118  0.38796  1.0000
  H   H214      1.0  0.08527  0.47442  0.46015  1.0000
  C   C276      1.0  0.44626  0.21670  0.39813  1.0000
  C   C277      1.0  0.29493  0.10508  0.45979  1.0000
  C   C278      1.0  0.42682  0.30769  0.37599  1.0000
  H   H215      1.0  0.34161  0.08423  0.45418  1.0000
  C   C279      1.0  0.41597  0.07906  0.40275  1.0000
  H   H216      1.0  0.34420  0.05518  0.39224  1.0000
  H   H217      1.0  0.37350  0.03973  0.41406  1.0000
  H   H218      1.0  0.37194  0.05435  0.44500  1.0000
  S   S45       1.0  0.34372  0.04541  0.48211  1.0000
  H   H219      1.0  0.41124  0.99982  0.42620  1.0000
  H   H220      1.0  0.41315  0.10254  0.25082  1.0000
  C   C280      1.0  0.24041  0.30660  0.25200  1.0000
  C   C281      1.0  0.12521  0.45147  0.28732  1.0000
  H   H221      1.0  0.35929  0.26979  0.26474  1.0000
  C   C282      1.0  0.13604  0.40496  0.27902  1.0000
  C   C283      1.0  0.04943  0.39533  0.30782  1.0000
  C   C284      1.0  0.48191  0.27151  0.34640  1.0000
  C   C285      1.0  0.09006  0.37425  0.26858  1.0000
  C   C286      1.0  0.19004  0.41904  0.48355  1.0000
  H   H222      1.0  0.43285  0.03035  0.40993  1.0000
  H   H223      1.0  0.42446  0.02950  0.47649  1.0000
  H   H224      1.0  0.23548  0.46847  0.31626  1.0000
  C   C287      1.0  0.37834  0.28299  0.33518  1.0000
  H   H225      1.0  0.28276  0.06108  0.42833  1.0000
  C   C288      1.0  0.47205  0.09149  0.24893  1.0000
  H   H226      1.0  0.39980  0.35870  0.40457  1.0000
  C   C289      1.0  0.41951  0.20118  0.25095  1.0000
  H   H227      1.0  0.41691  0.32268  0.41966  1.0000
  P   P9        1.0  0.09222  0.39043  0.28866  1.0000
  C   C290      1.0  0.11430  0.35022  0.30427  1.0000
  C   C291      1.0  0.31085  0.16257  0.40202  1.0000
  H   H228      1.0  0.41854  0.15785  0.37808  1.0000
  C   C292      1.0  0.45306  0.16353  0.36759  1.0000
  C   C293      1.0  0.28567  0.12502  0.46857  1.0000
  C   C294      1.0  0.30109  0.27073  0.27496  1.0000
  C   C295      1.0  0.22304  0.48342  0.31567  1.0000
  H   H229      1.0  0.41645  0.27393  0.29966  1.0000
  P   P10       1.0  0.30059  0.10598  0.43573  1.0000
  H   H230      1.0  0.20400  0.45827  0.35098  1.0000
  C   C296      1.0  0.15823  0.47385  0.40225  1.0000
  C   C297      1.0  0.40741  0.34454  0.39661  1.0000
  H   H231      1.0  0.47282  0.26684  0.38852  1.0000
  C   C298      1.0  0.47956  0.11435  0.45830  1.0000
  H   H232      1.0  0.29745  0.12900  0.40003  1.0000
  C   C299      1.0  0.39423  0.28359  0.34882  1.0000
  H   H233      1.0  0.38503  0.08515  0.38749  1.0000
  H   H234      1.0  0.47006  0.09318  0.38784  1.0000
  H   H235      1.0  0.01612  0.39877  0.32207  1.0000
  C   C300      1.0  0.31922  0.14935  0.43784  1.0000
  H   H236      1.0  0.02383  0.44370  0.27505  1.0000
  C   C301      1.0  0.05378  0.42068  0.28131  1.0000
  C   C302      1.0  0.32352  0.16187  0.26275  1.0000
  C   C303      1.0  0.19933  0.48005  0.31429  1.0000
  H   H237      1.0  0.32597  0.19454  0.40764  1.0000
  C   C304      1.0  0.36430  0.99941  0.48267  1.0000
  H   H238      1.0  0.42511  0.11207  0.42963  1.0000
  H   H239      1.0  0.09107  0.44112  0.29489  1.0000
  H   H240      1.0  0.43378  0.29025  0.40178  1.0000
  H   H241      1.0  0.14064  0.38687  0.27624  1.0000
  C   C305      1.0  0.07576  0.34139  0.25386  1.0000
  H   H242      1.0  0.19955  0.45077  0.40895  1.0000
  S   S46       1.0  0.11870  0.36492  0.49164  1.0000
  H   H243      1.0  0.40504  0.10448  0.36165  1.0000
  H   H244      1.0  0.18826  0.43016  0.45568  1.0000
  H   H245      1.0  0.16956  0.37484  0.25028  1.0000
  H   H246      1.0  0.11172  0.37454  0.35221  1.0000
  C   C306      1.0  0.12428  0.33707  0.31852  1.0000
  H   H247      1.0  0.25883  0.13378  0.42404  1.0000
  C   C307      1.0  0.21742  0.31330  0.24786  1.0000
  C   C308      1.0  0.12307  0.34574  0.33580  1.0000
  H   H248      1.0  0.13137  0.33582  0.34676  1.0000
  C   C309      1.0  0.47856  0.11188  0.25639  1.0000
  C   C310      1.0  0.99445  0.39677  0.47711  1.0000
  C   C311      1.0  0.44279  0.13167  0.44805  1.0000
  C   C312      1.0  0.43680  0.15776  0.38112  1.0000
  C   C313      1.0  0.18980  0.45929  0.47288  1.0000
  C   C314      1.0  0.46685  0.28993  0.35263  1.0000
  C   C315      1.0  0.42580  0.24006  0.37521  1.0000
  H   H249      1.0  0.31293  0.08424  0.40153  1.0000
  H   H250      1.0  0.32398  0.14405  0.45140  1.0000
  H   H251      1.0  0.29135  0.14893  0.25451  1.0000
  H   H252      1.0  0.37395  0.27951  0.30690  1.0000
  C   C316      1.0  0.46025  0.25380  0.38777  1.0000
  H   H253      1.0  0.47291  0.14708  0.41589  1.0000
  H   H254      1.0  0.12182  0.44204  0.42908  1.0000
  H   H255      1.0  0.33365  0.18268  0.43936  1.0000
  C   C317      1.0  0.12954  0.44220  0.33743  1.0000
  C   C318      1.0  0.13971  0.42826  0.35114  1.0000
  C   C319      1.0  0.15253  0.43822  0.36396  1.0000
  C   C320      1.0  0.15472  0.46236  0.36358  1.0000
  C   C321      1.0  0.44021  0.08049  0.40280  1.0000
  H   H256      1.0  0.30860  0.16734  0.38793  1.0000
  C   C322      1.0  0.41832  0.28115  0.34480  1.0000
  C   C323      1.0  0.19935  0.45698  0.38002  1.0000
  C   C324      1.0  0.20850  0.44757  0.39615  1.0000
  C   C325      1.0  0.22922  0.43333  0.39583  1.0000
  C   C326      1.0  0.24104  0.42861  0.37947  1.0000
  C   C327      1.0  0.23206  0.43799  0.36340  1.0000
  C   C328      1.0  0.21108  0.45174  0.36363  1.0000
  C   C329      1.0  0.34164  0.07772  0.44074  1.0000
  C   C330      1.0  0.07862  0.35345  0.26948  1.0000
  P   P11       1.0  0.43855  0.28394  0.36242  1.0000
  H   H257      1.0  0.38025  0.00617  0.48672  1.0000
  C   C331      1.0  0.40359  0.08691  0.38768  1.0000
  C   C332      1.0  0.44787  0.17884  0.26916  1.0000
  H   H258      1.0  0.13839  0.44385  0.39828  1.0000
  H   H259      1.0  0.38766  0.28601  0.36250  1.0000
  C   C333      1.0  0.03106  0.43037  0.28430  1.0000
  H   H260      1.0  0.12055  0.43424  0.32705  1.0000
  H   H261      1.0  0.13839  0.40956  0.35155  1.0000
  H   H262      1.0  0.16116  0.42697  0.37394  1.0000
  C   C334      1.0  0.13312  0.45577  0.42500  1.0000
  C   C335      1.0  0.10221  0.38100  0.32458  1.0000
  H   H263      1.0  0.22215  0.12291  0.41168  1.0000
  H   H264      1.0  0.42321  0.22517  0.29165  1.0000
  C   C336      1.0  0.46230  0.13262  0.45846  1.0000
  H   H265      1.0  0.08414  0.48582  0.42766  1.0000
  H   H266      1.0  0.41665  0.32985  0.35303  1.0000
  C   C337      1.0  0.23182  0.08606  0.41284  1.0000
  H   H267      1.0  0.43654  0.14712  0.30125  1.0000
  C   C338      1.0  0.34244  0.26340  0.26843  1.0000
  C   C339      1.0  0.24893  0.06871  0.41756  1.0000
  C   C340      1.0  0.42661  0.02943  0.46198  1.0000
  H   H268      1.0  0.24594  0.05053  0.41600  1.0000
  H   H269      1.0  0.05591  0.38127  0.31675  1.0000
  C   C341      1.0  0.13878  0.47174  0.43748  1.0000
  C   C342      1.0  0.02672  0.40506  0.31079  1.0000
  C   C343      1.0  0.06329  0.40342  0.29325  1.0000
  H   H270      1.0  0.28628  0.28323  0.27601  1.0000
  C   C344      1.0  0.15310  0.42106  0.27695  1.0000
  H   H271      1.0  0.47748  0.02304  0.41524  1.0000
  C   C345      1.0  0.14562  0.32247  0.25257  1.0000
  C   C346      1.0  0.24268  0.18576  0.25435  1.0000
  H   H272      1.0  0.13166  0.47047  0.45115  1.0000
  C   C347      1.0  0.47868  0.13236  0.33114  1.0000
  C   C348      1.0  0.47358  0.14710  0.29505  1.0000
  C   C349      1.0  0.47667  0.16298  0.37132  1.0000
  H   H273      1.0  0.48525  0.07815  0.24492  1.0000
  C   C350      1.0  0.14688  0.25444  0.24280  1.0000
  H   H274      1.0  0.00350  0.47540  0.45532  1.0000
  H   H275      1.0  0.48071  0.12684  0.34507  1.0000
  H   H276      1.0  0.22970  0.17312  0.25660  1.0000
  C   C351      1.0  0.43789  0.12557  0.25973  1.0000
  H   H277      1.0  0.06739  0.32509  0.25462  1.0000
  H   H278      1.0  0.20814  0.32768  0.25468  1.0000
  C   C352      1.0  0.11729  0.48150  0.48949  1.0000
  H   H279      1.0  0.32452  0.29754  0.26813  1.0000
  H   H280      1.0  0.30882  0.01733  0.47219  1.0000
  P   P12       1.0  0.46988  0.15524  0.27163  1.0000
  H   H281      1.0  0.47649  0.23122  0.40811  1.0000
  H   H282      1.0  0.14273  0.25363  0.25712  1.0000
  H   H283      1.0  0.29039  0.22971  0.24609  1.0000
  H   H284      1.0  0.46290  0.32733  0.35573  1.0000
  C   C353      1.0  0.19054  0.46633  0.49060  1.0000
  C   C354      1.0  0.47737  0.09515  0.44779  1.0000
  H   H285      1.0  0.40696  0.99929  0.45943  1.0000
  C   C355      1.0  0.25210  0.28767  0.24357  1.0000
  C   C356      1.0  0.27687  0.21774  0.24860  1.0000
  C   C357      1.0  0.16074  0.36008  0.24613  1.0000
  H   H286      1.0  0.12349  0.46387  0.48685  1.0000
  C   C358      1.0  0.44851  0.08820  0.24676  1.0000
  C   C359      1.0  0.29277  0.08294  0.48823  1.0000
  S   S47       1.0  0.35106  0.11014  0.49094  1.0000
  C   C360      1.0  0.28102  0.12411  0.48716  1.0000
  C   C361      1.0  0.48911  0.20965  0.33475  1.0000
  H   H287      1.0  0.48921  0.16666  0.36054  1.0000
  H   H288      1.0  0.44018  0.17115  0.24186  1.0000
  C   C362      1.0  0.09181  0.33902  0.53678  1.0000
  Fe  Fe23      1.0  0.37364  0.11228  0.51497  1.0000
  S   S48       1.0  0.35883  0.12168  0.54327  1.0000
  S   S49       1.0  0.38797  0.07497  0.51284  1.0000
  Fe  Fe24      1.0  0.38064  0.19744  0.63426  1.0000
  S   S50       1.0  0.40044  0.22803  0.64160  1.0000
  S   S51       1.0  0.38589  0.19049  0.60394  1.0000
  Fe  Fe25      1.0  0.36450  0.18878  0.67437  1.0000
  S   S52       1.0  0.38418  0.21816  0.68373  1.0000
  S   S53       1.0  0.33999  0.16648  0.69210  1.0000
  Fe  Fe26      1.0  0.36919  0.23855  0.65964  1.0000
  S   S54       1.0  0.35419  0.27656  0.66236  1.0000
  Fe  Fe27      1.0  0.41381  0.20538  0.66473  1.0000
  S   S55       1.0  0.45252  0.19497  0.67015  1.0000
  S   S56       1.0  0.34863  0.20966  0.65086  1.0000
  S   S57       1.0  0.39485  0.17437  0.65693  1.0000
  Fe  Fe28      1.0  0.12765  0.38737  0.51433  1.0000
  S   S58       1.0  0.09050  0.39942  0.52019  1.0000
  S   S59       1.0  0.15536  0.37641  0.53489  1.0000
  Fe  Fe29      1.0  0.18563  0.38717  0.63961  1.0000
  S   S60       1.0  0.22289  0.39673  0.63658  1.0000
  S   S61       1.0  0.15780  0.39705  0.61873  1.0000
  Fe  Fe30      1.0  0.19180  0.36820  0.67936  1.0000
  S   S62       1.0  0.22928  0.37750  0.67859  1.0000
  S   S63       1.0  0.17585  0.34305  0.70081  1.0000
  Fe  Fe31      1.0  0.21657  0.41146  0.66418  1.0000
  S   S64       1.0  0.22935  0.44718  0.67108  1.0000
  Fe  Fe32      1.0  0.23258  0.36221  0.65114  1.0000
  S   S65       1.0  0.25837  0.33279  0.64066  1.0000
  S   S66       1.0  0.17889  0.40302  0.66686  1.0000
  S   S67       1.0  0.19543  0.35194  0.65219  1.0000
  C   C363      1.0  0.22913  0.47847  0.67129  1.0000
  C   C364      1.0  0.34246  0.06839  0.73152  1.0000
  H   H289      1.0  0.29150  0.46506  0.54281  1.0000
  H   H290      1.0  0.10987  0.44169  0.54604  1.0000
  C   C365      1.0  0.16518  0.34301  0.72378  1.0000
  C   C366      1.0  0.15586  0.32270  0.73145  1.0000
  H   H291      1.0  0.17298  0.37802  0.72905  1.0000
  H   H292      1.0  0.15474  0.30782  0.72321  1.0000
  C   C367      1.0  0.15543  0.38216  0.55824  1.0000
  C   C368      1.0  0.13809  0.39662  0.56666  1.0000
  C   C369      1.0  0.13930  0.40123  0.58507  1.0000
  C   C370      1.0  0.15745  0.39091  0.59546  1.0000
  C   C371      1.0  0.17449  0.37603  0.58714  1.0000
  C   C372      1.0  0.17357  0.37187  0.56862  1.0000
  H   H293      1.0  0.12378  0.40424  0.55898  1.0000
  H   H294      1.0  0.12595  0.41271  0.59133  1.0000
  H   H295      1.0  0.18852  0.36790  0.59491  1.0000
  H   H296      1.0  0.18704  0.36059  0.56228  1.0000
  C   C373      1.0  0.15972  0.46693  0.53281  1.0000
  C   C374      1.0  0.48438  0.15317  0.60874  1.0000
  C   C375      1.0  0.47584  0.10613  0.55530  1.0000
  C   C376      1.0  0.32678  0.29147  0.65717  1.0000
  C   C377      1.0  0.30873  0.28031  0.64985  1.0000
  C   C378      1.0  0.28765  0.29307  0.64550  1.0000
  C   C379      1.0  0.28398  0.31700  0.64881  1.0000
  C   C380      1.0  0.30174  0.32797  0.65671  1.0000
  C   C381      1.0  0.32303  0.31534  0.66063  1.0000
  H   H297      1.0  0.31135  0.26201  0.64710  1.0000
  H   H298      1.0  0.27415  0.28448  0.63925  1.0000
  H   H299      1.0  0.29945  0.34639  0.65914  1.0000
  H   H300      1.0  0.33686  0.32425  0.66618  1.0000
  H   H301      1.0  0.43248  0.08194  0.53435  1.0000
  C   C382      1.0  0.47983  0.20830  0.66879  1.0000
  H   H302      1.0  0.01954  0.45235  0.59442  1.0000
  H   H303      1.0  0.00956  0.39967  0.55180  1.0000
  H   H304      1.0  0.46594  0.24335  0.66310  1.0000
  C   C383      1.0  0.33687  0.16118  0.71594  1.0000
  C   C384      1.0  0.35184  0.16977  0.72807  1.0000
  C   C385      1.0  0.31868  0.14788  0.72290  1.0000
  H   H305      1.0  0.36605  0.17984  0.72304  1.0000
  H   H306      1.0  0.30700  0.14104  0.71373  1.0000
  C   C386      1.0  0.36788  0.14008  0.56016  1.0000
  C   C387      1.0  0.35950  0.13679  0.57808  1.0000
  C   C388      1.0  0.36495  0.15177  0.59170  1.0000
  C   C389      1.0  0.37887  0.17040  0.58759  1.0000
  C   C390      1.0  0.38742  0.17356  0.56971  1.0000
  C   C391      1.0  0.38199  0.15857  0.55611  1.0000
  H   H307      1.0  0.34844  0.12270  0.58143  1.0000
  H   H308      1.0  0.35815  0.14907  0.60532  1.0000
  H   H309      1.0  0.39819  0.18787  0.56632  1.0000
  H   H310      1.0  0.38841  0.16159  0.54242  1.0000
  C   C392      1.0  0.15682  0.47835  0.69663  1.0000
  C   C393      1.0  0.20749  0.48366  0.53033  1.0000
  C   C394      1.0  0.02023  0.37182  0.58617  1.0000
  H   H311      1.0  0.35595  0.06237  0.72191  1.0000
  C   C395      1.0  0.24339  0.30041  0.68192  1.0000
  H   H312      1.0  0.01046  0.30918  0.57195  1.0000
  H   H313      1.0  0.10327  0.33396  0.65410  1.0000
  C   C396      1.0  0.00634  0.43705  0.50745  1.0000
  H   H314      1.0  0.12617  0.32529  0.52855  1.0000
  C   C397      1.0  0.20129  0.43742  0.54385  1.0000
  Fe  Fe33      1.0  0.09598  0.42823  0.49990  1.0000
  C   C398      1.0  0.46252  0.20106  0.53472  1.0000
  P   P13       1.0  0.19006  0.45924  0.52777  1.0000
  C   C399      1.0  0.02025  0.37055  0.49492  1.0000
  C   C400      1.0  0.19291  0.43770  0.56182  1.0000
  C   C401      1.0  0.20283  0.42220  0.57474  1.0000
  C   C402      1.0  0.22101  0.40611  0.56979  1.0000
  C   C403      1.0  0.17016  0.45779  0.70092  1.0000
  H   H315      1.0  0.22704  0.42127  0.52538  1.0000
  H   H316      1.0  0.07171  0.44500  0.60621  1.0000
  H   H317      1.0  0.13997  0.47719  0.69092  1.0000
  C   C404      1.0  0.09601  0.48609  0.49882  1.0000
  C   C405      1.0  0.19204  0.45881  0.70815  1.0000
  H   H318      1.0  0.17875  0.44992  0.56591  1.0000
  H   H319      1.0  0.19611  0.42229  0.58856  1.0000
  H   H320      1.0  0.22828  0.39375  0.57978  1.0000
  H   H321      1.0  0.46193  0.20287  0.52020  1.0000
  H   H322      1.0  0.04129  0.42267  0.50183  1.0000
  H   H323      1.0  0.44352  0.24277  0.62054  1.0000
  C   C406      1.0  0.22064  0.24082  0.60557  1.0000
  C   C407      1.0  0.21970  0.25510  0.58995  1.0000
  C   C408      1.0  0.24008  0.25876  0.57972  1.0000
  C   C409      1.0  0.26145  0.24840  0.58520  1.0000
  C   C410      1.0  0.26265  0.23466  0.60118  1.0000
  C   C411      1.0  0.24200  0.23045  0.61110  1.0000
  P   P14       1.0  0.29035  0.22116  0.60785  1.0000
  C   C412      1.0  0.31239  0.24202  0.60707  1.0000
  C   C413      1.0  0.28897  0.21070  0.63106  1.0000
  C   C414      1.0  0.29879  0.18852  0.63621  1.0000
  C   C415      1.0  0.29915  0.18147  0.65442  1.0000
  C   C416      1.0  0.29023  0.19663  0.66760  1.0000
  C   C417      1.0  0.28058  0.21877  0.66259  1.0000
  C   C418      1.0  0.27991  0.22575  0.64440  1.0000
  C   C419      1.0  0.30634  0.26610  0.60679  1.0000
  C   C420      1.0  0.32364  0.28192  0.60741  1.0000
  C   C421      1.0  0.34701  0.27383  0.60848  1.0000
  C   C422      1.0  0.35313  0.24992  0.60872  1.0000
  C   C423      1.0  0.33589  0.23408  0.60821  1.0000
  C   C424      1.0  0.29745  0.19789  0.59256  1.0000
  C   C425      1.0  0.28488  0.17781  0.59387  1.0000
  C   C426      1.0  0.28998  0.15980  0.58195  1.0000
  C   C427      1.0  0.30739  0.16189  0.56846  1.0000
  C   C428      1.0  0.31957  0.18204  0.56681  1.0000
  C   C429      1.0  0.31456  0.20005  0.57871  1.0000
  H   H324      1.0  0.20479  0.23777  0.61338  1.0000
  H   H325      1.0  0.20316  0.26322  0.58572  1.0000
  H   H326      1.0  0.23932  0.26966  0.56752  1.0000
  H   H327      1.0  0.27710  0.25124  0.57706  1.0000
  H   H328      1.0  0.24229  0.21914  0.62306  1.0000
  H   H329      1.0  0.30710  0.17702  0.62637  1.0000
  H   H330      1.0  0.30744  0.16466  0.65844  1.0000
  H   H331      1.0  0.29153  0.19142  0.68170  1.0000
  H   H332      1.0  0.27426  0.23079  0.67281  1.0000
  H   H333      1.0  0.27290  0.24315  0.64076  1.0000
  H   H334      1.0  0.28832  0.27281  0.60684  1.0000
  H   H335      1.0  0.31881  0.30044  0.60787  1.0000
  H   H336      1.0  0.36031  0.28606  0.60959  1.0000
  H   H337      1.0  0.37121  0.24355  0.60967  1.0000
  H   H338      1.0  0.34089  0.21559  0.60895  1.0000
  H   H339      1.0  0.27125  0.17603  0.60419  1.0000
  H   H340      1.0  0.28055  0.14415  0.58319  1.0000
  H   H341      1.0  0.31170  0.14781  0.55937  1.0000
  H   H342      1.0  0.33321  0.18351  0.55644  1.0000
  H   H343      1.0  0.32415  0.21553  0.57700  1.0000
  C   C430      1.0  0.30597  0.23205  0.72966  1.0000
  C   C431      1.0  0.17201  0.22715  0.73461  1.0000
  H   H344      1.0  0.15802  0.48067  0.58961  1.0000
  H   H345      1.0  0.41618  0.15374  0.70480  1.0000
  C   C432      1.0  0.23118  0.30963  0.73299  1.0000
  C   C433      1.0  0.21153  0.48251  0.60751  1.0000
  C   C434      1.0  0.19151  0.44970  0.50493  1.0000
  H   H346      1.0  0.30338  0.27253  0.68691  1.0000
  H   H347      1.0  0.15143  0.43138  0.53922  1.0000
  H   H348      1.0  0.47869  0.14927  0.50486  1.0000
  C   C435      1.0  0.29075  0.48578  0.56633  1.0000
  H   H349      1.0  0.02162  0.48096  0.50297  1.0000
  C   C436      1.0  0.38983  0.10616  0.73662  1.0000
  H   H350      1.0  0.31686  0.37549  0.69625  1.0000
  C   C437      1.0  0.99413  0.34271  0.57860  1.0000
  H   H351      1.0  0.30107  0.48279  0.66087  1.0000
  C   C438      1.0  0.22736  0.48670  0.51916  1.0000
  C   C439      1.0  0.16590  0.36226  0.73461  1.0000
  H   H352      1.0  0.23390  0.22368  0.73854  1.0000
  C   C440      1.0  0.48382  0.13093  0.50380  1.0000
  C   C441      1.0  0.31926  0.24146  0.69917  1.0000
  H   H353      1.0  0.46343  0.20541  0.63063  1.0000
  C   C442      1.0  0.46971  0.17957  0.54281  1.0000
  C   C443      1.0  0.19565  0.26002  0.73686  1.0000
  H   H354      1.0  0.43236  0.14588  0.59005  1.0000
  C   C444      1.0  0.46398  0.12722  0.56030  1.0000
  C   C445      1.0  0.32091  0.33845  0.70178  1.0000
  C   C446      1.0  0.12134  0.45530  0.54234  1.0000
  H   H355      1.0  0.22774  0.46694  0.57459  1.0000
  C   C447      1.0  0.40902  0.14032  0.71360  1.0000
  C   C448      1.0  0.47269  0.21737  0.62182  1.0000
  C   C449      1.0  0.45275  0.15390  0.63122  1.0000
  H   H356      1.0  0.33977  0.33768  0.70066  1.0000
  C   C450      1.0  0.22787  0.29376  0.66941  1.0000
  C   C451      1.0  0.47351  0.25438  0.60536  1.0000
  H   H357      1.0  0.25070  0.31714  0.67990  1.0000
  H   H358      1.0  0.22327  0.30549  0.65817  1.0000
  H   H359      1.0  0.20268  0.44289  0.71097  1.0000
  H   H360      1.0  0.02256  0.38935  0.59019  1.0000
  C   C452      1.0  0.27229  0.34025  0.70450  1.0000
  C   C453      1.0  0.03950  0.35591  0.58319  1.0000
  C   C454      1.0  0.03576  0.33313  0.57840  1.0000
  P   P15       1.0  0.06885  0.36428  0.58564  1.0000
  C   C455      1.0  0.06889  0.39565  0.58270  1.0000
  C   C456      1.0  0.07959  0.35456  0.60741  1.0000
  C   C457      1.0  0.09991  0.36321  0.61361  1.0000
  C   C458      1.0  0.10839  0.35579  0.63034  1.0000
  C   C459      1.0  0.09662  0.33968  0.64111  1.0000
  C   C460      1.0  0.07637  0.33094  0.63511  1.0000
  C   C461      1.0  0.06787  0.33831  0.61832  1.0000
  C   C462      1.0  0.06700  0.40606  0.56545  1.0000
  C   C463      1.0  0.06678  0.43024  0.56281  1.0000
  C   C464      1.0  0.06869  0.44429  0.57748  1.0000
  C   C465      1.0  0.07018  0.43415  0.59481  1.0000
  C   C466      1.0  0.06995  0.40995  0.59747  1.0000
  C   C467      1.0  0.08704  0.35144  0.56768  1.0000
  C   C468      1.0  0.07782  0.34872  0.55072  1.0000
  C   C469      1.0  0.18785  0.26904  0.72029  1.0000
  C   C470      1.0  0.12441  0.33454  0.55633  1.0000
  H   H361      1.0  0.21742  0.23999  0.68705  1.0000
  C   C471      1.0  0.11052  0.34425  0.57033  1.0000
  H   H362      1.0  0.05035  0.32045  0.57629  1.0000
  H   H363      1.0  0.10933  0.37569  0.60550  1.0000
  H   H364      1.0  0.12419  0.36255  0.63491  1.0000
  C   C472      1.0  0.00858  0.41055  0.53963  1.0000
  H   H365      1.0  0.05221  0.33125  0.61397  1.0000
  H   H366      1.0  0.06583  0.39542  0.55400  1.0000
  H   H367      1.0  0.06559  0.43799  0.54931  1.0000
  H   H368      1.0  0.06911  0.46299  0.57538  1.0000
  H   H369      1.0  0.07078  0.40254  0.61103  1.0000
  H   H370      1.0  0.05990  0.35431  0.54805  1.0000
  H   H371      1.0  0.41142  0.11911  0.54269  1.0000
  C   C473      1.0  0.29055  0.25200  0.72941  1.0000
  C   C474      1.0  0.25457  0.48724  0.58440  1.0000
  H   H372      1.0  0.11849  0.34645  0.58296  1.0000
  H   H373      1.0  0.36399  0.10530  0.71625  1.0000
  C   C475      1.0  0.48156  0.23222  0.66532  1.0000
  H   H374      1.0  0.45005  0.23664  0.53908  1.0000
  C   C476      1.0  0.17239  0.47631  0.59836  1.0000
  P   P16       1.0  0.27000  0.29279  0.71268  1.0000
  C   C477      1.0  0.19272  0.48826  0.59634  1.0000
  C   C478      1.0  0.28341  0.46699  0.64002  1.0000
  H   H375      1.0  0.43562  0.02320  0.51062  1.0000
  C   C479      1.0  0.44073  0.13187  0.55549  1.0000
  H   H376      1.0  0.33232  0.21153  0.71468  1.0000
  H   H377      1.0  0.24348  0.39308  0.54812  1.0000
  C   C480      1.0  0.28926  0.48570  0.64992  1.0000
  H   H378      1.0  0.38120  0.13482  0.69617  1.0000
  C   C481      1.0  0.19058  0.42603  0.50131  1.0000
  C   C482      1.0  0.28506  0.31866  0.70652  1.0000
  H   H379      1.0  0.06729  0.31841  0.64348  1.0000
  C   C483      1.0  0.02663  0.42350  0.51145  1.0000
  H   H380      1.0  0.14271  0.32980  0.55826  1.0000
  C   C484      1.0  0.31923  0.06473  0.72841  1.0000
  H   H381      1.0  0.43141  0.14828  0.55861  1.0000
  C   C485      1.0  0.14489  0.44950  0.53834  1.0000
  C   C486      1.0  0.16444  0.23612  0.71794  1.0000
  C   C487      1.0  0.17220  0.25717  0.71087  1.0000
  C   C488      1.0  0.38932  0.12960  0.70872  1.0000
  C   C489      1.0  0.28374  0.36064  0.70077  1.0000
  H   H382      1.0  0.04240  0.39780  0.52957  1.0000
  C   C490      1.0  0.28485  0.10313  0.49703  1.0000
  H   H383      1.0  0.25345  0.34139  0.70587  1.0000
  C   C491      1.0  0.47322  0.09145  0.50024  1.0000
  C   C492      1.0  0.25850  0.46462  0.55747  1.0000
  C   C493      1.0  0.01318  0.32665  0.57597  1.0000
  C   C494      1.0  0.23996  0.26353  0.69825  1.0000
  C   C495      1.0  0.45590  0.22007  0.54534  1.0000
  C   C496      1.0  0.46444  0.08985  0.54607  1.0000
  H   H384      1.0  0.19357  0.28551  0.71481  1.0000
  S   S68       1.0  0.07940  0.46325  0.50697  1.0000
  C   C497      1.0  0.24948  0.28536  0.69649  1.0000
  H   H385      1.0  0.18929  0.41297  0.51214  1.0000
  C   C498      1.0  0.11512  0.33207  0.53954  1.0000
  H   H386      1.0  0.19994  0.48695  0.65449  1.0000
  H   H387      1.0  0.03338  0.48135  0.53427  1.0000
  H   H388      1.0  0.15220  0.22695  0.71068  1.0000
  H   H389      1.0  0.16597  0.26446  0.69816  1.0000
  H   H390      1.0  0.27050  0.19848  0.73723  1.0000
  C   C499      1.0  0.47639  0.15521  0.62665  1.0000
  C   C500      1.0  0.18906  0.45308  0.62300  1.0000
  C   C501      1.0  0.17062  0.45862  0.61163  1.0000
  C   C502      1.0  0.99765  0.36520  0.58380  1.0000
  C   C503      1.0  0.43709  0.15036  0.61793  1.0000
  H   H391      1.0  0.41862  0.15009  0.62136  1.0000
  C   C504      1.0  0.20947  0.46489  0.62096  1.0000
  P   P17       1.0  0.47865  0.14878  0.57186  1.0000
  C   C505      1.0  0.46683  0.11502  0.50241  1.0000
  C   C506      1.0  0.24519  0.47251  0.57242  1.0000
  C   C507      1.0  0.46395  0.19619  0.57219  1.0000
  H   H392      1.0  0.27375  0.37718  0.69902  1.0000
  H   H393      1.0  0.46421  0.19473  0.58672  1.0000
  H   H394      1.0  0.46488  0.27097  0.60129  1.0000
  C   C508      1.0  0.02748  0.40981  0.52730  1.0000
  H   H395      1.0  0.16375  0.44100  0.69839  1.0000
  H   H396      1.0  0.44651  0.15622  0.64502  1.0000
  S   S69       1.0  0.13381  0.41790  0.49569  1.0000
  H   H397      1.0  0.28161  0.10248  0.51147  1.0000
  H   H398      1.0  0.47378  0.07388  0.54184  1.0000
  C   C509      1.0  0.99527  0.44069  0.57603  1.0000
  C   C510      1.0  0.22949  0.40570  0.55195  1.0000
  H   H399      1.0  0.18755  0.43949  0.63341  1.0000
  H   H400      1.0  0.15503  0.44907  0.61314  1.0000
  C   C511      1.0  0.41928  0.13394  0.72991  1.0000
  C   C512      1.0  0.21986  0.42147  0.53904  1.0000
  H   H401      1.0  0.22328  0.46029  0.63013  1.0000
  H   H402      1.0  0.25122  0.45326  0.54828  1.0000
  H   H403      1.0  0.08467  0.33727  0.52368  1.0000
  C   C513      1.0  0.21854  0.27203  0.67121  1.0000
  H   H404      1.0  0.44882  0.12116  0.50276  1.0000
  C   C514      1.0  0.28122  0.47128  0.55438  1.0000
  C   C515      1.0  0.22467  0.25684  0.68560  1.0000
  H   H405      1.0  0.45130  0.23226  0.57235  1.0000
  H   H406      1.0  0.29075  0.44955  0.64326  1.0000
  H   H407      1.0  0.26363  0.45601  0.61849  1.0000
  C   C516      1.0  0.30803  0.35972  0.69930  1.0000
  C   C517      1.0  0.47030  0.17692  0.56160  1.0000
  C   C518      1.0  0.44118  0.09444  0.54172  1.0000
  C   C519      1.0  0.44504  0.14793  0.60006  1.0000
  C   C520      1.0  0.46881  0.14914  0.59529  1.0000
  H   H408      1.0  0.20657  0.26704  0.66143  1.0000
  H   H409      1.0  0.24443  0.25163  0.70940  1.0000
  C   C521      1.0  0.26775  0.47068  0.62616  1.0000
  Fe  Fe34      1.0  0.41560  0.08914  0.49436  1.0000
  H   H410      1.0  0.42614  0.07096  0.73693  1.0000
  S   S70       1.0  0.45188  0.07190  0.49689  1.0000
  H   H411      1.0  0.47468  0.16492  0.53445  1.0000
  H   H412      1.0  0.29568  0.06658  0.49579  1.0000
  H   H413      1.0  0.09403  0.48282  0.54327  1.0000
  C   C522      1.0  0.37962  0.11273  0.72020  1.0000
  H   H414      1.0  0.43450  0.14238  0.73370  1.0000
  C   C523      1.0  0.40723  0.00562  0.52355  1.0000
  C   C524      1.0  0.42664  0.00721  0.51176  1.0000
  C   C525      1.0  0.25437  0.30025  0.73337  1.0000
  C   C526      1.0  0.11246  0.47848  0.54081  1.0000
  H   H415      1.0  0.16548  0.21102  0.73998  1.0000
  H   H416      1.0  0.33032  0.23743  0.68740  1.0000
  C   C527      1.0  0.30954  0.31801  0.70545  1.0000
  C   C528      1.0  0.30409  0.26144  0.69897  1.0000
  S   S71       1.0  0.04859  0.35979  0.50141  1.0000
  C   C529      1.0  0.29011  0.26728  0.71421  1.0000
  C   C530      1.0  0.35748  0.01133  0.54497  1.0000
  C   C531      1.0  0.35188  0.02657  0.53036  1.0000
  C   C532      1.0  0.34222  0.04914  0.53320  1.0000
  C   C533      1.0  0.33873  0.05698  0.55067  1.0000
  C   C534      1.0  0.34428  0.04200  0.56533  1.0000
  C   C535      1.0  0.35352  0.01921  0.56253  1.0000
  C   C536      1.0  0.30159  0.07232  0.74068  1.0000
  H   H417      1.0  0.18975  0.48478  0.49314  1.0000
  C   C537      1.0  0.00360  0.44375  0.59310  1.0000
  H   H418      1.0  0.00491  0.44723  0.56432  1.0000
  H   H419      1.0  0.48834  0.15857  0.63699  1.0000
  H   H420      1.0  0.40165  0.02045  0.53154  1.0000
  C   C538      1.0  0.24580  0.48806  0.68145  1.0000
  C   C539      1.0  0.42936  0.11547  0.54636  1.0000
  C   C540      1.0  0.45663  0.21763  0.56407  1.0000
  C   C541      1.0  0.99132  0.43584  0.60844  1.0000
  C   C542      1.0  0.20056  0.48038  0.71115  1.0000
  C   C543      1.0  0.46146  0.23853  0.61620  1.0000
  H   H421      1.0  0.22220  0.31180  0.72047  1.0000
  H   H422      1.0  0.21779  0.48112  0.71636  1.0000
  H   H423      1.0  0.99779  0.43821  0.62168  1.0000
  H   H424      1.0  0.35529  0.02112  0.51671  1.0000
  H   H425      1.0  0.33802  0.06075  0.52179  1.0000
  H   H426      1.0  0.33206  0.07481  0.55278  1.0000
  H   H427      1.0  0.34168  0.04818  0.57886  1.0000
  C   C544      1.0  0.00042  0.36112  0.50324  1.0000
  H   H428      1.0  0.28356  0.06962  0.73827  1.0000
  H   H429      1.0  0.31487  0.05611  0.71645  1.0000
  H   H430      1.0  0.25810  0.47657  0.68873  1.0000
  H   H431      1.0  0.00264  0.34718  0.51331  1.0000
  H   H432      1.0  0.35788  0.00807  0.57410  1.0000
  H   H433      1.0  0.32008  0.30192  0.70748  1.0000
  C   C545      1.0  0.32035  0.22687  0.71456  1.0000
  H   H434      1.0  0.23232  0.47460  0.50868  1.0000
  S   S72       1.0  0.40282  0.12665  0.49785  1.0000
  H   H435      1.0  0.00520  0.44642  0.49460  1.0000
  H   H436      1.0  0.44779  0.03324  0.73194  1.0000
  Fe  Fe35      1.0  0.08136  0.37979  0.49624  1.0000
  H   H437      1.0  0.32777  0.99149  0.52052  1.0000
  C   C546      1.0  0.43000  0.03366  0.73734  1.0000
  H   H438      1.0  0.27453  0.13970  0.49394  1.0000
  H   H439      1.0  0.27899  0.25517  0.74098  1.0000
  H   H440      1.0  0.44951  0.98944  0.49232  1.0000
  C   C547      1.0  0.31533  0.14344  0.74162  1.0000
  H   H441      1.0  0.30683  0.22050  0.74151  1.0000
  C   C548      1.0  0.40986  0.11682  0.74132  1.0000
  C   C549      1.0  0.41949  0.01284  0.74148  1.0000
  C   C550      1.0  0.41764  0.05509  0.74018  1.0000
  H   H442      1.0  0.42911  0.99628  0.73931  1.0000
  H   H443      1.0  0.42553  0.02834  0.96134  1.0000
  H   H444      1.0  0.07414  0.45125  0.93040  1.0000
  H   H445      1.0  0.10848  0.46726  0.88276  1.0000
  C   C551      1.0  0.18391  0.27318  0.77898  1.0000
  C   C552      1.0  0.21956  0.31727  0.74875  1.0000
  H   H446      1.0  0.20358  0.30450  0.81229  1.0000
  Fe  Fe36      1.0  0.36283  0.11174  0.97243  1.0000
  S   S73       1.0  0.33549  0.11176  0.95036  1.0000
  S   S74       1.0  0.39992  0.09630  0.97095  1.0000
  Fe  Fe37      1.0  0.30530  0.12289  0.84201  1.0000
  S   S75       1.0  0.27326  0.10252  0.84307  1.0000
  S   S76       1.0  0.32949  0.13072  0.86473  1.0000
  Fe  Fe38      1.0  0.30517  0.12893  0.79992  1.0000
  S   S77       1.0  0.27356  0.10819  0.79849  1.0000
  S   S78       1.0  0.32687  0.14758  0.77763  1.0000
  Fe  Fe39      1.0  0.25934  0.12923  0.82212  1.0000
  S   S79       1.0  0.22139  0.14445  0.82131  1.0000
  Fe  Fe40      1.0  0.28967  0.08307  0.81949  1.0000
  S   S80       1.0  0.29903  0.04334  0.82029  1.0000
  S   S81       1.0  0.29024  0.15082  0.82265  1.0000
  S   S82       1.0  0.32235  0.10261  0.81926  1.0000
  H   H447      1.0  0.28536  0.01694  0.94858  1.0000
  H   H448      1.0  0.06331  0.30316  0.86030  1.0000
  H   H449      1.0  0.28436  0.29402  0.74998  1.0000
  C   C553      1.0  0.31796  0.01640  0.77370  1.0000
  C   C554      1.0  0.99345  0.44688  0.96393  1.0000
  C   C555      1.0  0.18563  0.29164  0.79036  1.0000
  Fe  Fe41      1.0  0.12106  0.37536  0.96816  1.0000
  S   S83       1.0  0.14419  0.36513  0.94372  1.0000
  S   S84       1.0  0.08977  0.40052  0.96560  1.0000
  Fe  Fe42      1.0  0.14022  0.27062  0.82766  1.0000
  S   S85       1.0  0.14636  0.30886  0.82941  1.0000
  S   S86       1.0  0.17462  0.24799  0.83157  1.0000
  Fe  Fe43      1.0  0.08727  0.28256  0.82173  1.0000
  S   S87       1.0  0.09134  0.32101  0.82236  1.0000
  S   S88       1.0  0.05177  0.26589  0.82158  1.0000
  Fe  Fe44      1.0  0.12430  0.31441  0.80503  1.0000
  S   S89       1.0  0.13672  0.34104  0.78317  1.0000
  Fe  Fe45      1.0  0.11327  0.31222  0.84651  1.0000
  S   S90       1.0  0.10134  0.33156  0.87203  1.0000
  S   S91       1.0  0.11900  0.27616  0.80268  1.0000
  S   S92       1.0  0.10838  0.27381  0.84638  1.0000
  C   C556      1.0  0.14797  0.34089  0.76035  1.0000
  H   H450      1.0  0.18800  0.17862  0.76671  1.0000
  C   C557      1.0  0.14751  0.32154  0.74959  1.0000
  H   H451      1.0  0.15771  0.37633  0.76080  1.0000
  H   H452      1.0  0.19250  0.48147  0.88260  1.0000
  C   C558      1.0  0.01436  0.29923  0.81598  1.0000
  C   C559      1.0  0.02184  0.27714  0.82301  1.0000
  C   C560      1.0  0.30278  0.00404  0.92442  1.0000
  H   H453      1.0  0.02712  0.31077  0.81051  1.0000
  H   H454      1.0  0.01020  0.24544  0.83556  1.0000
  C   C561      1.0  0.13240  0.35407  0.92428  1.0000
  C   C562      1.0  0.14721  0.34836  0.90935  1.0000
  C   C563      1.0  0.13825  0.34041  0.89348  1.0000
  C   C564      1.0  0.11429  0.33824  0.89234  1.0000
  C   C565      1.0  0.09959  0.34356  0.90739  1.0000
  C   C566      1.0  0.10855  0.35135  0.92328  1.0000
  H   H455      1.0  0.16569  0.35037  0.90999  1.0000
  H   H456      1.0  0.14975  0.33660  0.88197  1.0000
  H   H457      1.0  0.08104  0.34198  0.90667  1.0000
  H   H458      1.0  0.09693  0.35559  0.93463  1.0000
  C   C567      1.0  0.16443  0.42121  0.95409  1.0000
  H   H459      1.0  0.25796  0.99128  0.85486  1.0000
  H   H460      1.0  0.34014  0.02890  0.91206  1.0000
  C   C568      1.0  0.00476  0.26250  0.83000  1.0000
  H   H461      1.0  0.44981  0.11128  0.95198  1.0000
  H   H462      1.0  0.20170  0.32459  0.74838  1.0000
  H   H463      1.0  0.23461  0.99391  0.80775  1.0000
  C   C569      1.0  0.20875  0.17319  0.82504  1.0000
  C   C570      1.0  0.22220  0.19192  0.82801  1.0000
  C   C571      1.0  0.21141  0.21459  0.82982  1.0000
  C   C572      1.0  0.18707  0.21891  0.82895  1.0000
  C   C573      1.0  0.17363  0.20009  0.82640  1.0000
  C   C574      1.0  0.18441  0.17747  0.82432  1.0000
  H   H464      1.0  0.24092  0.18900  0.82858  1.0000
  H   H465      1.0  0.22197  0.22897  0.83181  1.0000
  H   H466      1.0  0.15490  0.20293  0.82617  1.0000
  H   H467      1.0  0.17378  0.16318  0.82211  1.0000
  H   H468      1.0  0.06081  0.44440  0.96486  1.0000
  C   C575      1.0  0.33023  0.15217  0.75374  1.0000
  C   C576      1.0  0.32227  0.99259  0.77084  1.0000
  H   H469      1.0  0.36019  0.17219  0.75592  1.0000
  H   H470      1.0  0.00056  0.35376  0.93879  1.0000
  H   H471      1.0  0.03449  0.27322  0.86189  1.0000
  H   H472      1.0  0.18880  0.43225  0.97261  1.0000
  C   C577      1.0  0.28550  0.01661  0.81796  1.0000
  C   C578      1.0  0.26228  0.01586  0.81325  1.0000
  H   H473      1.0  0.04082  0.40917  0.95752  1.0000
  C   C579      1.0  0.21712  0.25254  0.79278  1.0000
  H   H474      1.0  0.25179  0.03196  0.81099  1.0000
  C   C580      1.0  0.33469  0.11638  0.92641  1.0000
  C   C581      1.0  0.31484  0.11064  0.91747  1.0000
  C   C582      1.0  0.31292  0.11470  0.89869  1.0000
  C   C583      1.0  0.33084  0.12475  0.88850  1.0000
  C   C584      1.0  0.35072  0.13042  0.89743  1.0000
  C   C585      1.0  0.35271  0.12619  0.91618  1.0000
  H   H475      1.0  0.30074  0.10308  0.92517  1.0000
  H   H476      1.0  0.29750  0.11022  0.89215  1.0000
  H   H477      1.0  0.36471  0.13824  0.88977  1.0000
  H   H478      1.0  0.36803  0.13087  0.92275  1.0000
  C   C586      1.0  0.20290  0.29053  0.80304  1.0000
  H   H479      1.0  0.38836  0.99735  0.75170  1.0000
  C   C587      1.0  0.33238  0.02775  0.78461  1.0000
  C   C588      1.0  0.02897  0.46595  0.96799  1.0000
  H   H480      1.0  0.36643  0.03492  0.75666  1.0000
  H   H481      1.0  0.28106  0.17182  0.76307  1.0000
  C   C589      1.0  0.99593  0.28149  0.77067  1.0000
  C   C590      1.0  0.48481  0.11530  0.94162  1.0000
  C   C591      1.0  0.45593  0.09616  0.92601  1.0000
  H   H482      1.0  0.09753  0.47048  0.95398  1.0000
  C   C592      1.0  0.03867  0.33063  0.86912  1.0000
  H   H483      1.0  0.16806  0.40281  0.95734  1.0000
  H   H484      1.0  0.05018  0.41945  0.92292  1.0000
  C   C593      1.0  0.16233  0.47283  0.89892  1.0000
  C   C594      1.0  0.17413  0.47844  0.88270  1.0000
  C   C595      1.0  0.24980  0.18125  0.77866  1.0000
  H   H485      1.0  0.31669  0.99563  0.82455  1.0000
  C   C596      1.0  0.17296  0.21176  0.77615  1.0000
  C   C597      1.0  0.25891  0.19777  0.74904  1.0000
  H   H486      1.0  0.12100  0.21849  0.79969  1.0000
  C   C598      1.0  0.13648  0.18578  0.79030  1.0000
  C   C599      1.0  0.99026  0.37136  0.98238  1.0000
  H   H487      1.0  0.34227  0.08097  0.86939  1.0000
  H   H488      1.0  0.36199  0.02415  0.80140  1.0000
  C   C600      1.0  0.19948  0.25330  0.78024  1.0000
  C   C601      1.0  0.29627  0.00289  0.94272  1.0000
  H   H489      1.0  0.99373  0.28342  0.87139  1.0000
  C   C602      1.0  0.15549  0.17465  0.78112  1.0000
  H   H490      1.0  0.22911  0.23738  0.79436  1.0000
  H   H491      1.0  0.03823  0.48087  0.97093  1.0000
  H   H492      1.0  0.43841  0.09046  0.92552  1.0000
  C   C603      1.0  0.01270  0.37702  0.98633  1.0000
  P   P18       1.0  0.19597  0.22869  0.76644  1.0000
  H   H493      1.0  0.34616  0.06927  0.90156  1.0000
  C   C604      1.0  0.12682  0.47038  0.88291  1.0000
  C   C605      1.0  0.10568  0.48663  0.92790  1.0000
  C   C606      1.0  0.33417  0.04691  0.86164  1.0000
  H   H494      1.0  0.01060  0.35451  0.87785  1.0000
  C   C607      1.0  0.04200  0.44517  0.96432  1.0000
  C   C608      1.0  0.43227  0.99095  0.95872  1.0000
  C   C609      1.0  0.48847  0.14635  0.98555  1.0000
  H   H495      1.0  0.23181  0.27002  0.81426  1.0000
  C   C610      1.0  0.48653  0.06397  0.97063  1.0000
  H   H496      1.0  0.15292  0.24121  0.78756  1.0000
  P   P19       1.0  0.37844  0.08332  0.75117  1.0000
  C   C611      1.0  0.38074  0.09057  0.77440  1.0000
  C   C612      1.0  0.25431  0.30722  0.76537  1.0000
  C   C613      1.0  0.26605  0.29971  0.74959  1.0000
  C   C614      1.0  0.17614  0.43780  0.96267  1.0000
  C   C615      1.0  0.00602  0.29678  0.87104  1.0000
  C   C616      1.0  0.28717  0.98994  0.87220  1.0000
  C   C617      1.0  0.35574  0.99161  0.78962  1.0000
  C   C618      1.0  0.38422  0.07301  0.78786  1.0000
  C   C619      1.0  0.38472  0.07878  0.80592  1.0000
  C   C620      1.0  0.38172  0.10208  0.81066  1.0000
  C   C621      1.0  0.37823  0.11961  0.79735  1.0000
  C   C622      1.0  0.37778  0.11390  0.77931  1.0000
  C   C623      1.0  0.47224  0.09150  0.91195  1.0000
  C   C624      1.0  0.13555  0.20984  0.79232  1.0000
  H   H497      1.0  0.29350  0.08967  0.76542  1.0000
  H   H498      1.0  0.05143  0.34366  0.86828  1.0000
  H   H499      1.0  0.16997  0.27420  0.76959  1.0000
  H   H500      1.0  0.28703  0.00872  0.87248  1.0000
  H   H501      1.0  0.17319  0.30662  0.78966  1.0000
  H   H502      1.0  0.38622  0.05488  0.78452  1.0000
  H   H503      1.0  0.38696  0.06521  0.81632  1.0000
  H   H504      1.0  0.38144  0.10656  0.82469  1.0000
  H   H505      1.0  0.37506  0.13763  0.80103  1.0000
  H   H506      1.0  0.37436  0.12772  0.76927  1.0000
  H   H507      1.0  0.15115  0.48702  0.94287  1.0000
  C   C625      1.0  0.46449  0.03133  0.98078  1.0000
  C   C626      1.0  0.33167  0.01742  0.88582  1.0000
  H   H508      1.0  0.00199  0.33103  0.91138  1.0000
  S   S93       1.0  0.37122  0.14121  0.98984  1.0000
  C   C627      1.0  0.29876  0.99535  0.82084  1.0000
  H   H509      1.0  0.17192  0.47159  0.91114  1.0000
  H   H510      1.0  0.29650  0.01894  0.91620  1.0000
  H   H511      1.0  0.15638  0.15593  0.77978  1.0000
  C   C628      1.0  0.01226  0.26702  0.77993  1.0000
  H   H512      1.0  0.12958  0.47697  0.85424  1.0000
  C   C629      1.0  0.17143  0.46148  0.95846  1.0000
  C   C630      1.0  0.99909  0.31974  0.87564  1.0000
  H   H513      1.0  0.38403  0.02861  0.95526  1.0000
  C   C631      1.0  0.35124  0.01537  0.79259  1.0000
  C   C632      1.0  0.33036  0.08744  0.75913  1.0000
  C   C633      1.0  0.38415  0.03480  0.75123  1.0000
  C   C634      1.0  0.02916  0.29086  0.86565  1.0000
  C   C635      1.0  0.04544  0.30776  0.86465  1.0000
  C   C636      1.0  0.15726  0.36121  0.75268  1.0000
  C   C637      1.0  0.25257  0.99419  0.81142  1.0000
  C   C638      1.0  0.22890  0.19512  0.77935  1.0000
  H   H514      1.0  0.46738  0.08201  0.90057  1.0000
  H   H515      1.0  0.12261  0.17574  0.79607  1.0000
  C   C639      1.0  0.00658  0.42631  0.95990  1.0000
  C   C640      1.0  0.47219  0.01918  0.96545  1.0000
  C   C641      1.0  0.01560  0.33664  0.87458  1.0000
  H   H516      1.0  0.25424  0.16940  0.78990  1.0000
  C   C642      1.0  0.26484  0.18259  0.76352  1.0000
  C   C643      1.0  0.19469  0.15731  0.88607  1.0000
  C   C644      1.0  0.20165  0.13940  0.87451  1.0000
  C   C645      1.0  0.22394  0.13845  0.86636  1.0000
  C   C646      1.0  0.23914  0.15571  0.86931  1.0000
  C   C647      1.0  0.23209  0.17403  0.88060  1.0000
  C   C648      1.0  0.20994  0.17439  0.88931  1.0000
  P   P20       1.0  0.25178  0.19593  0.88522  1.0000
  C   C649      1.0  0.27179  0.20012  0.86618  1.0000
  C   C650      1.0  0.23457  0.22296  0.88895  1.0000
  C   C651      1.0  0.21566  0.22940  0.87800  1.0000
  C   C652      1.0  0.20230  0.25029  0.88054  1.0000
  C   C653      1.0  0.20753  0.26488  0.89414  1.0000
  C   C654      1.0  0.22621  0.25858  0.90518  1.0000
  C   C655      1.0  0.23973  0.23770  0.90260  1.0000
  C   C656      1.0  0.29254  0.18586  0.86463  1.0000
  C   C657      1.0  0.30855  0.18953  0.85036  1.0000
  C   C658      1.0  0.30373  0.20701  0.83724  1.0000
  C   C659      1.0  0.28303  0.22112  0.83854  1.0000
  C   C660      1.0  0.26720  0.21784  0.85302  1.0000
  C   C661      1.0  0.26884  0.18629  0.90435  1.0000
  C   C662      1.0  0.26316  0.16665  0.91501  1.0000
  C   C663      1.0  0.27778  0.15799  0.92865  1.0000
  C   C664      1.0  0.29816  0.16878  0.93173  1.0000
  C   C665      1.0  0.30380  0.18846  0.92133  1.0000
  C   C666      1.0  0.28921  0.19723  0.90771  1.0000
  H   H517      1.0  0.17741  0.15804  0.89243  1.0000
  H   H518      1.0  0.18978  0.12632  0.87174  1.0000
  H   H519      1.0  0.22917  0.12459  0.85734  1.0000
  H   H520      1.0  0.25621  0.15474  0.86263  1.0000
  H   H521      1.0  0.20433  0.18797  0.89849  1.0000
  H   H522      1.0  0.21123  0.21830  0.86741  1.0000
  H   H523      1.0  0.18786  0.25514  0.87188  1.0000
  H   H524      1.0  0.19705  0.28105  0.89613  1.0000
  H   H525      1.0  0.23018  0.26992  0.91575  1.0000
  H   H526      1.0  0.25406  0.23316  0.91130  1.0000
  H   H527      1.0  0.29644  0.17179  0.87439  1.0000
  H   H528      1.0  0.32448  0.17837  0.84927  1.0000
  H   H529      1.0  0.31594  0.20939  0.82597  1.0000
  H   H530      1.0  0.27919  0.23457  0.82831  1.0000
  H   H531      1.0  0.25147  0.22914  0.85380  1.0000
  H   H532      1.0  0.24785  0.15755  0.91258  1.0000
  H   H533      1.0  0.27376  0.14246  0.93652  1.0000
  H   H534      1.0  0.30981  0.16155  0.94194  1.0000
  H   H535      1.0  0.31983  0.19654  0.92356  1.0000
  H   H536      1.0  0.29418  0.21211  0.89944  1.0000
  H   H537      1.0  0.48572  0.16229  0.97753  1.0000
  Fe  Fe46      1.0  0.10000  0.41514  0.99154  1.0000
  C   C667      1.0  0.47149  0.05369  0.98328  1.0000
  C   C668      1.0  0.39656  0.01343  0.74844  1.0000
  C   C669      1.0  0.13858  0.46863  0.89913  1.0000
  H   H538      1.0  0.30308  0.02600  0.76785  1.0000
  P   P21       1.0  0.12283  0.46138  0.91987  1.0000
  S   S94       1.0  0.44100  0.14357  0.98372  1.0000
  C   C670      1.0  0.10481  0.43802  0.91515  1.0000
  C   C671      1.0  0.08168  0.43775  0.92188  1.0000
  C   C672      1.0  0.06793  0.41979  0.91759  1.0000
  C   C673      1.0  0.07708  0.40215  0.90646  1.0000
  C   C674      1.0  0.09999  0.40243  0.89960  1.0000
  C   C675      1.0  0.11387  0.42012  0.90405  1.0000
  H   H539      1.0  0.33412  0.09647  0.77105  1.0000
  S   S95       1.0  0.03686  0.36213  0.97600  1.0000
  S   S96       1.0  0.10198  0.34838  0.98400  1.0000
  C   C676      1.0  0.48740  0.02957  0.95279  1.0000
  H   H540      1.0  0.30113  0.13340  0.74666  1.0000
  C   C677      1.0  0.14316  0.45195  0.93697  1.0000
  C   C678      1.0  0.14803  0.42819  0.94126  1.0000
  H   H541      1.0  0.14021  0.30587  0.75511  1.0000
  C   C679      1.0  0.16235  0.47995  0.86662  1.0000
  H   H542      1.0  0.00044  0.29860  0.76572  1.0000
  C   C680      1.0  0.30718  0.08361  0.75602  1.0000
  C   C681      1.0  0.39477  0.01239  0.95471  1.0000
  H   H543      1.0  0.32638  0.01168  0.85768  1.0000
  C   C682      1.0  0.39458  0.05582  0.74714  1.0000
  H   H544      1.0  0.01897  0.23431  0.79431  1.0000
  H   H545      1.0  0.18040  0.47437  0.96517  1.0000
  C   C683      1.0  0.23808  0.21188  0.74978  1.0000
  H   H546      1.0  0.06658  0.38807  0.90325  1.0000
  H   H547      1.0  0.10715  0.38865  0.89105  1.0000
  H   H548      1.0  0.13175  0.41970  0.89887  1.0000
  C   C684      1.0  0.15480  0.46857  0.94582  1.0000
  H   H549      1.0  0.21740  0.19386  0.79114  1.0000
  C   C685      1.0  0.23109  0.31602  0.76492  1.0000
  C   C686      1.0  0.33048  0.02403  0.86749  1.0000
  H   H550      1.0  0.32856  0.04605  0.78725  1.0000
  H   H551      1.0  0.13931  0.41492  0.93480  1.0000
  C   C687      1.0  0.00452  0.46700  0.96785  1.0000
  H   H552      1.0  0.26333  0.30671  0.77788  1.0000
  C   C688      1.0  0.00639  0.24517  0.78673  1.0000
  C   C689      1.0  0.33967  0.06319  0.87393  1.0000
  C   C690      1.0  0.46228  0.10796  0.94088  1.0000
  C   C691      1.0  0.17356  0.18758  0.77391  1.0000
  C   C692      1.0  0.13869  0.47594  0.86673  1.0000
  C   C693      1.0  0.21882  0.27112  0.80410  1.0000
  H   H553      1.0  0.99795  0.41083  0.95701  1.0000
  C   C694      1.0  0.41843  0.01208  0.95838  1.0000
  H   H554      1.0  0.41816  0.11200  0.75384  1.0000
  C   C695      1.0  0.03082  0.42540  0.96020  1.0000
  C   C696      1.0  0.33808  0.03370  0.89799  1.0000
  C   C697      1.0  0.12593  0.48160  0.98823  1.0000
  H   H555      1.0  0.22212  0.32239  0.77702  1.0000
  C   C698      1.0  0.34181  0.05656  0.89207  1.0000
  C   C699      1.0  0.38473  0.99169  0.95131  1.0000
  H   H556      1.0  0.33246  0.05213  0.84758  1.0000
  H   H557      1.0  0.36617  0.99182  0.94928  1.0000
  H   H558      1.0  0.02933  0.27294  0.78229  1.0000
  P   P22       1.0  0.46309  0.99014  0.96285  1.0000
  C   C700      1.0  0.22281  0.21047  0.76493  1.0000
  Fe  Fe47      1.0  0.07145  0.37450  0.98316  1.0000
  C   C701      1.0  0.15378  0.22274  0.78540  1.0000
  C   C702      1.0  0.09542  0.48604  0.94533  1.0000
  H   H559      1.0  0.17157  0.48413  0.85405  1.0000
  Fe  Fe48      1.0  0.40807  0.12413  0.98975  1.0000
  C   C703      1.0  0.34822  0.07983  0.74690  1.0000
  H   H560      1.0  0.20766  0.26951  0.74407  1.0000
  C   C704      1.0  0.34849  0.16532  0.74677  1.0000
  C   C705      1.0  0.18744  0.23922  0.74431  1.0000
  H   H561      1.0  0.13619  0.46576  0.98505  1.0000
  H   H562      1.0  0.45759  0.99870  0.92445  1.0000
  C   C706      1.0  0.99025  0.30588  0.81501  1.0000
  C   C707      1.0  0.46922  0.13359  0.99087  1.0000
  H   H563      1.0  0.45287  0.02357  0.99077  1.0000
  H   H564      1.0  0.21414  0.67017  0.19915  1.0000
  H   H565      1.0  0.24742  0.97331  0.11081  1.0000
  Fe  Fe49      1.0  0.35903  0.87982  0.01170  1.0000
  S   S97       1.0  0.35397  0.86115  0.03932  1.0000
  S   S98       1.0  0.37928  0.91192  0.00995  1.0000
  Fe  Fe50      1.0  0.29636  0.87051  0.17435  1.0000
  S   S99       1.0  0.26228  0.88395  0.18674  1.0000
  S   S100      1.0  0.32595  0.85254  0.19068  1.0000
  Fe  Fe51      1.0  0.28105  0.88605  0.13602  1.0000
  S   S101      1.0  0.24557  0.90000  0.14679  1.0000
  S   S102      1.0  0.28666  0.89356  0.10563  1.0000
  Fe  Fe52      1.0  0.26548  0.91596  0.16821  1.0000
  S   S103      1.0  0.26393  0.95276  0.17996  1.0000
  Fe  Fe53      1.0  0.24574  0.86662  0.16407  1.0000
  S   S104      1.0  0.21868  0.83981  0.17267  1.0000
  S   S105      1.0  0.30066  0.90306  0.15687  1.0000
  S   S106      1.0  0.28016  0.85215  0.15221  1.0000
  Fe  Fe54      1.0  0.10353  0.62989  0.01221  1.0000
  S   S107      1.0  0.10815  0.65641  0.03387  1.0000
  S   S108      1.0  0.09319  0.59301  0.01596  1.0000
  Fe  Fe55      1.0  0.12648  0.74257  0.15022  1.0000
  S   S109      1.0  0.14942  0.70943  0.15196  1.0000
  S   S110      1.0  0.14242  0.77716  0.14126  1.0000
  Fe  Fe56      1.0  0.08184  0.71679  0.16056  1.0000
  S   S111      1.0  0.10339  0.68264  0.16411  1.0000
  S   S112      1.0  0.04293  0.70927  0.16425  1.0000
  Fe  Fe57      1.0  0.12940  0.70223  0.17808  1.0000
  S   S113      1.0  0.15274  0.69364  0.20225  1.0000
  Fe  Fe58      1.0  0.12133  0.69260  0.13775  1.0000
  S   S114      1.0  0.12721  0.66308  0.11770  1.0000
  S   S115      1.0  0.10682  0.73594  0.17665  1.0000
  S   S116      1.0  0.09954  0.72620  0.13391  1.0000
  C   C708      1.0  0.15140  0.67749  0.22324  1.0000
  H   H566      1.0  0.01599  0.63546  0.14447  1.0000
  H   H567      1.0  0.03610  0.56983  0.22592  1.0000
  H   H568      1.0  0.11939  0.66176  0.21914  1.0000
  C   C709      1.0  0.22774  0.63948  0.02463  1.0000
  C   C710      1.0  0.00693  0.74431  0.15984  1.0000
  C   C711      1.0  0.01346  0.72046  0.16132  1.0000
  H   H569      1.0  0.01605  0.66620  0.07300  1.0000
  H   H570      1.0  0.02020  0.75674  0.15934  1.0000
  C   C712      1.0  0.04914  0.66616  0.23784  1.0000
  C   C713      1.0  0.11183  0.65738  0.05749  1.0000
  C   C714      1.0  0.11792  0.63753  0.06819  1.0000
  C   C715      1.0  0.12223  0.63959  0.08660  1.0000
  C   C716      1.0  0.12014  0.66142  0.09467  1.0000
  C   C717      1.0  0.11348  0.68120  0.08406  1.0000
  C   C718      1.0  0.10951  0.67917  0.06561  1.0000
  H   H571      1.0  0.11982  0.62068  0.06219  1.0000
  H   H572      1.0  0.12746  0.62417  0.09462  1.0000
  H   H573      1.0  0.11184  0.69812  0.08998  1.0000
  H   H574      1.0  0.10478  0.69466  0.05750  1.0000
  H   H575      1.0  0.01605  0.70463  0.20731  1.0000
  C   C719      1.0  0.21492  0.85702  0.21796  1.0000
  C   C720      1.0  0.05252  0.53417  0.03749  1.0000
  H   H576      1.0  0.37202  0.91620  0.13105  1.0000
  C   C721      1.0  0.19932  0.82135  0.16272  1.0000
  C   C722      1.0  0.19370  0.80040  0.17184  1.0000
  C   C723      1.0  0.17687  0.78633  0.16532  1.0000
  C   C724      1.0  0.16505  0.79320  0.14968  1.0000
  C   C725      1.0  0.17085  0.81404  0.14052  1.0000
  C   C726      1.0  0.18792  0.82789  0.14688  1.0000
  H   H577      1.0  0.20223  0.79513  0.18417  1.0000
  H   H578      1.0  0.17267  0.77047  0.17262  1.0000
  H   H579      1.0  0.16173  0.81973  0.12854  1.0000
  H   H580      1.0  0.19161  0.84414  0.13997  1.0000
  C   C727      1.0  0.32438  0.84407  0.21405  1.0000
  H   H581      1.0  0.33120  0.78743  0.19577  1.0000
  H   H582      1.0  0.26051  0.81508  0.20135  1.0000
  C   C728      1.0  0.34340  0.96454  0.15373  1.0000
  H   H583      1.0  0.28942  0.85857  0.21926  1.0000
  C   C729      1.0  0.45531  0.95918  0.99230  1.0000
  H   H584      1.0  0.41582  0.85714  0.08005  1.0000
  C   C730      1.0  0.13575  0.50414  0.04341  1.0000
  C   C731      1.0  0.33557  0.87072  0.05777  1.0000
  C   C732      1.0  0.33925  0.86077  0.07511  1.0000
  C   C733      1.0  0.32449  0.86735  0.08997  1.0000
  C   C734      1.0  0.30579  0.88393  0.08760  1.0000
  C   C735      1.0  0.30203  0.89365  0.07024  1.0000
  C   C736      1.0  0.31681  0.88716  0.05544  1.0000
  H   H585      1.0  0.35356  0.84782  0.07705  1.0000
  H   H586      1.0  0.32755  0.85957  0.10319  1.0000
  H   H587      1.0  0.28749  0.90631  0.06820  1.0000
  H   H588      1.0  0.31348  0.89463  0.04215  1.0000
  C   C737      1.0  0.03117  0.60623  0.21809  1.0000
  C   C738      1.0  0.29097  0.77678  0.22931  1.0000
  C   C739      1.0  0.41151  0.90677  0.08791  1.0000
  H   H589      1.0  0.27170  0.65256  0.99475  1.0000
  H   H590      1.0  0.40622  0.96797  0.07823  1.0000
  H   H591      1.0  0.21781  0.82193  0.20919  1.0000
  C   C740      1.0  0.04607  0.67064  0.08820  1.0000
  P   P23       1.0  0.33842  0.98482  0.13487  1.0000
  C   C741      1.0  0.39950  0.95841  0.03858  1.0000
  C   C742      1.0  0.11313  0.52374  0.11142  1.0000
  H   H592      1.0  0.07200  0.64056  0.19278  1.0000
  C   C743      1.0  0.42032  0.87867  0.05578  1.0000
  H   H593      1.0  0.14279  0.52620  0.12782  1.0000
  H   H594      1.0  0.06039  0.68500  0.19461  1.0000
  H   H595      1.0  0.31293  0.94363  0.12915  1.0000
  C   C744      1.0  0.22470  0.77649  0.22562  1.0000
  C   C745      1.0  0.00713  0.61067  0.99907  1.0000
  H   H596      1.0  0.35255  0.91996  0.19398  1.0000
  H   H597      1.0  0.01130  0.79919  0.20265  1.0000
  C   C746      1.0  0.12317  0.75388  0.22920  1.0000
  H   H598      1.0  0.17141  0.51194  0.10429  1.0000
  H   H599      1.0  0.16526  0.54359  0.01775  1.0000
  H   H600      1.0  0.38096  0.89304  0.07711  1.0000
  C   C747      1.0  0.16932  0.67917  0.23536  1.0000
  H   H601      1.0  0.29777  0.81203  0.18415  1.0000
  C   C748      1.0  0.03907  0.67792  0.11979  1.0000
  H   H602      1.0  0.23830  0.97870  0.15108  1.0000
  C   C749      1.0  0.15566  0.60003  0.03590  1.0000
  C   C750      1.0  0.16346  0.58933  0.05192  1.0000
  C   C751      1.0  0.17759  0.60106  0.06285  1.0000
  C   C752      1.0  0.18400  0.62343  0.05772  1.0000
  C   C753      1.0  0.17592  0.63450  0.04177  1.0000
  C   C754      1.0  0.16181  0.62252  0.03088  1.0000
  P   P24       1.0  0.18531  0.66296  0.03469  1.0000
  C   C755      1.0  0.18865  0.67986  0.05429  1.0000
  C   C756      1.0  0.13167  0.70676  0.01574  1.0000
  C   C757      1.0  0.45989  0.89578  0.07026  1.0000
  S   S117      1.0  0.07339  0.64114  0.99487  1.0000
  H   H603      1.0  0.14937  0.72544  0.22982  1.0000
  C   C758      1.0  0.48454  0.94731  0.01400  1.0000
  H   H604      1.0  0.38308  0.96294  0.03232  1.0000
  C   C759      1.0  0.20656  0.69515  0.05484  1.0000
  C   C760      1.0  0.20906  0.70786  0.07022  1.0000
  C   C761      1.0  0.19371  0.70543  0.08510  1.0000
  C   C762      1.0  0.17570  0.69048  0.08455  1.0000
  C   C763      1.0  0.17315  0.67781  0.06920  1.0000
  C   C764      1.0  0.30967  0.98139  0.12691  1.0000
  H   H605      1.0  0.21593  0.89076  0.22926  1.0000
  H   H606      1.0  0.04451  0.60490  0.20745  1.0000
  H   H607      1.0  0.26039  0.62144  0.01672  1.0000
  C   C765      1.0  0.15300  0.51368  0.10157  1.0000
  C   C766      1.0  0.34314  0.82461  0.24028  1.0000
  H   H608      1.0  0.14466  0.59104  0.02739  1.0000
  H   H609      1.0  0.15849  0.57201  0.05588  1.0000
  H   H610      1.0  0.18355  0.59284  0.07532  1.0000
  H   H611      1.0  0.19522  0.63209  0.06624  1.0000
  H   H612      1.0  0.15824  0.50159  0.07478  1.0000
  H   H613      1.0  0.01214  0.75802  0.19406  1.0000
  H   H614      1.0  0.08700  0.51945  0.09227  1.0000
  C   C767      1.0  0.07100  0.56366  0.05296  1.0000
  P   P25       1.0  0.02506  0.65351  0.20817  1.0000
  C   C768      1.0  0.05200  0.63217  0.15144  1.0000
  H   H615      1.0  0.21865  0.69727  0.04351  1.0000
  H   H616      1.0  0.22292  0.71960  0.07063  1.0000
  H   H617      1.0  0.19565  0.71517  0.09705  1.0000
  H   H618      1.0  0.16370  0.68860  0.09606  1.0000
  H   H619      1.0  0.15911  0.66631  0.06898  1.0000
  H   H620      1.0  0.14845  0.70060  0.04077  1.0000
  C   C769      1.0  0.46839  0.88690  0.08674  1.0000
  H   H621      1.0  0.05817  0.66818  0.07677  1.0000
  C   C770      1.0  0.16303  0.67185  0.00228  1.0000
  C   C771      1.0  0.99962  0.69681  0.20654  1.0000
  C   C772      1.0  0.02648  0.58627  0.22857  1.0000
  C   C773      1.0  0.21726  0.74350  0.20778  1.0000
  C   C774      1.0  0.02813  0.63649  0.15507  1.0000
  H   H622      1.0  0.22363  0.72872  0.20001  1.0000
  C   C775      1.0  0.10598  0.76701  0.23906  1.0000
  P   P26       1.0  0.08962  0.79110  0.22805  1.0000
  C   C776      1.0  0.10905  0.80435  0.21158  1.0000
  C   C777      1.0  0.06517  0.78051  0.21718  1.0000
  C   C778      1.0  0.04555  0.79566  0.21359  1.0000
  C   C779      1.0  0.02644  0.78751  0.20538  1.0000
  C   C780      1.0  0.02692  0.76432  0.20045  1.0000
  C   C781      1.0  0.04662  0.74935  0.20351  1.0000
  C   C782      1.0  0.06565  0.75734  0.21192  1.0000
  C   C783      1.0  0.20059  0.78172  0.22773  1.0000
  C   C784      1.0  0.03563  0.64512  0.18594  1.0000
  C   C785      1.0  0.16413  0.67805  0.02029  1.0000
  C   C786      1.0  0.11848  0.81733  0.18085  1.0000
  C   C787      1.0  0.10314  0.80730  0.19346  1.0000
  H   H623      1.0  0.15519  0.63055  0.01862  1.0000
  C   C788      1.0  0.99581  0.70469  0.16165  1.0000
  C   C789      1.0  0.07916  0.69373  0.21736  1.0000
  H   H624      1.0  0.07158  0.58169  0.05655  1.0000
  H   H625      1.0  0.29928  0.95577  0.08073  1.0000
  C   C790      1.0  0.27074  0.68971  0.21895  1.0000
  H   H626      1.0  0.12681  0.75802  0.21507  1.0000
  H   H627      1.0  0.04503  0.81378  0.21708  1.0000
  C   C791      1.0  0.24052  0.67460  0.99989  1.0000
  C   C792      1.0  0.08984  0.50100  0.99905  1.0000
  H   H628      1.0  0.04722  0.73161  0.19909  1.0000
  H   H629      1.0  0.08074  0.74549  0.21410  1.0000
  H   H630      1.0  0.45090  0.98142  0.04587  1.0000
  C   C793      1.0  0.08874  0.54716  0.05801  1.0000
  H   H631      1.0  0.24535  0.68516  0.17879  1.0000
  H   H632      1.0  0.11414  0.81913  0.16680  1.0000
  H   H633      1.0  0.08691  0.80168  0.18889  1.0000
  H   H634      1.0  0.46890  0.90260  0.04206  1.0000
  H   H635      1.0  0.03957  0.57018  0.03836  1.0000
  C   C794      1.0  0.43773  0.96884  0.04624  1.0000
  C   C795      1.0  0.38831  0.90048  0.08859  1.0000
  H   H636      1.0  0.39018  0.92416  0.04738  1.0000
  C   C796      1.0  0.18155  0.76778  0.09557  1.0000
  C   C797      1.0  0.18139  0.76389  0.07717  1.0000
  C   C798      1.0  0.19833  0.77307  0.06547  1.0000
  C   C799      1.0  0.21531  0.78637  0.07211  1.0000
  C   C800      1.0  0.21556  0.79034  0.09058  1.0000
  C   C801      1.0  0.19860  0.78085  0.10226  1.0000
  P   P27       1.0  0.23601  0.80892  0.09945  1.0000
  C   C802      1.0  0.24581  0.79500  0.12024  1.0000
  C   C803      1.0  0.26069  0.81294  0.08405  1.0000
  C   C804      1.0  0.28281  0.80212  0.08745  1.0000
  C   C805      1.0  0.30201  0.80680  0.07608  1.0000
  C   C806      1.0  0.29934  0.82234  0.06130  1.0000
  C   C807      1.0  0.27746  0.83324  0.05785  1.0000
  C   C808      1.0  0.25821  0.82855  0.06914  1.0000
  C   C809      1.0  0.24757  0.80781  0.13568  1.0000
  C   C810      1.0  0.25522  0.79666  0.15164  1.0000
  C   C811      1.0  0.26092  0.77269  0.15235  1.0000
  C   C812      1.0  0.25907  0.75976  0.13705  1.0000
  C   C813      1.0  0.25155  0.77085  0.12105  1.0000
  C   C814      1.0  0.22196  0.83758  0.10276  1.0000
  C   C815      1.0  0.19768  0.84169  0.10175  1.0000
  C   C816      1.0  0.18722  0.86420  0.10351  1.0000
  C   C817      1.0  0.20091  0.88282  0.10601  1.0000
  C   C818      1.0  0.22507  0.87894  0.10672  1.0000
  C   C819      1.0  0.23557  0.85642  0.10526  1.0000
  H   H637      1.0  0.16824  0.76100  0.10470  1.0000
  H   H638      1.0  0.16805  0.75384  0.07201  1.0000
  H   H639      1.0  0.19809  0.77014  0.05120  1.0000
  H   H640      1.0  0.22802  0.79365  0.06281  1.0000
  H   H641      1.0  0.19821  0.78399  0.11654  1.0000
  H   H642      1.0  0.28553  0.79054  0.09906  1.0000
  H   H643      1.0  0.31912  0.79881  0.07892  1.0000
  H   H644      1.0  0.31432  0.82632  0.05269  1.0000
  H   H645      1.0  0.27562  0.84574  0.04664  1.0000
  H   H646      1.0  0.24149  0.83759  0.06648  1.0000
  H   H647      1.0  0.24281  0.82633  0.13559  1.0000
  H   H648      1.0  0.25646  0.80665  0.16355  1.0000
  H   H649      1.0  0.26669  0.76421  0.16479  1.0000
  H   H650      1.0  0.26341  0.74115  0.13760  1.0000
  H   H651      1.0  0.25022  0.76061  0.10929  1.0000
  H   H652      1.0  0.18667  0.82766  0.09971  1.0000
  H   H653      1.0  0.16847  0.86718  0.10300  1.0000
  H   H654      1.0  0.19285  0.90026  0.10739  1.0000
  H   H655      1.0  0.23576  0.89341  0.10836  1.0000
  H   H656      1.0  0.25436  0.85382  0.10587  1.0000
  H   H657      1.0  0.05843  0.62798  0.13799  1.0000
  C   C820      1.0  0.37775  0.97706  0.99579  1.0000
  C   C821      1.0  0.13965  0.82465  0.18623  1.0000
  C   C822      1.0  0.10548  0.51790  0.09469  1.0000
  C   C823      1.0  0.27463  0.80371  0.20656  1.0000
  C   C824      1.0  0.27219  0.79150  0.22318  1.0000
  C   C825      1.0  0.36889  0.93765  0.17120  1.0000
  H   H658      1.0  0.21925  0.66712  0.23187  1.0000
  H   H659      1.0  0.42475  0.89456  0.02910  1.0000
  P   P28       1.0  0.42922  0.90311  0.06750  1.0000
  C   C826      1.0  0.07006  0.51752  0.04275  1.0000
  H   H660      1.0  0.06944  0.49990  0.03844  1.0000
  C   C827      1.0  0.39928  0.98197  0.10440  1.0000
  H   H661      1.0  0.99386  0.66909  0.00055  1.0000
  C   C828      1.0  0.02208  0.66968  0.08612  1.0000
  C   C829      1.0  0.31216  0.77527  0.21943  1.0000
  C   C830      1.0  0.35017  0.93264  0.18292  1.0000
  H   H662      1.0  0.10258  0.83836  0.23709  1.0000
  C   C831      1.0  0.01995  0.64274  0.17228  1.0000
  H   H663      1.0  0.35924  0.82770  0.21362  1.0000
  C   C832      1.0  0.14845  0.69579  0.02688  1.0000
  C   C833      1.0  0.13040  0.70012  0.99798  1.0000
  H   H664      1.0  0.07305  0.67572  0.10668  1.0000
  H   H665      1.0  0.31363  0.94005  0.18936  1.0000
  P   P29       1.0  0.11157  0.50274  0.05958  1.0000
  H   H666      1.0  0.38033  0.95725  0.14790  1.0000
  C   C834      1.0  0.19331  0.74906  0.20966  1.0000
  C   C835      1.0  0.34371  0.83175  0.22187  1.0000
  C   C836      1.0  0.29570  0.80181  0.19658  1.0000
  C   C837      1.0  0.40370  0.93639  0.04692  1.0000
  C   C838      1.0  0.27958  0.95613  0.11959  1.0000
  H   H667      1.0  0.10064  0.52987  0.12175  1.0000
  C   C839      1.0  0.31455  0.78788  0.20312  1.0000
  C   C840      1.0  0.41476  0.85947  0.02805  1.0000
  C   C841      1.0  0.41535  0.85809  0.06552  1.0000
  C   C842      1.0  0.12161  0.51013  0.08119  1.0000
  C   C843      1.0  0.41645  0.97465  0.03828  1.0000
  C   C844      1.0  0.22061  0.87226  0.23096  1.0000
  C   C845      1.0  0.14155  0.52568  0.03563  1.0000
  C   C846      1.0  0.44198  0.94687  0.05466  1.0000
  H   H668      1.0  0.15140  0.83257  0.17643  1.0000
  H   H669      1.0  0.45833  0.94302  0.06117  1.0000
  H   H670      1.0  0.18120  0.73860  0.20330  1.0000
  H   H671      1.0  0.41455  0.85992  0.01354  1.0000
  H   H672      1.0  0.22316  0.62568  0.03411  1.0000
  C   C847      1.0  0.05294  0.55719  0.04267  1.0000
  H   H673      1.0  0.32692  0.76479  0.22465  1.0000
  C   C848      1.0  0.06181  0.68275  0.20901  1.0000
  H   H674      1.0  0.04567  0.68130  0.13280  1.0000
  H   H675      1.0  0.20809  0.69283  0.00761  1.0000
  C   C849      1.0  0.13079  0.81098  0.21673  1.0000
  C   C850      1.0  0.26791  0.69114  0.20035  1.0000
  C   C851      1.0  0.30902  0.96529  0.07042  1.0000
  C   C852      1.0  0.21933  0.67714  0.00970  1.0000
  C   C853      1.0  0.99875  0.67250  0.20634  1.0000
  C   C854      1.0  0.33300  0.96537  0.04299  1.0000
  H   H676      1.0  0.36660  0.95435  0.07595  1.0000
  C   C855      1.0  0.05952  0.63970  0.18237  1.0000
  H   H677      1.0  0.34138  0.95608  0.03182  1.0000
  C   C856      1.0  0.40581  0.92083  0.11824  1.0000
  C   C857      1.0  0.32035  0.95334  0.05625  1.0000
  C   C858      1.0  0.23007  0.67546  0.20462  1.0000
  H   H678      1.0  0.30770  0.96810  0.16392  1.0000
  C   C859      1.0  0.26171  0.98282  0.17227  1.0000
  H   H679      1.0  0.40526  0.82287  0.06409  1.0000
  C   C860      1.0  0.00639  0.67303  0.10091  1.0000
  H   H680      1.0  0.09132  0.70374  0.20933  1.0000
  C   C861      1.0  0.01516  0.67679  0.11780  1.0000
  C   C862      1.0  0.08138  0.69113  0.23594  1.0000
  C   C863      1.0  0.24760  0.68399  0.19318  1.0000
  C   C864      1.0  0.47527  0.89700  0.05515  1.0000
  C   C865      1.0  0.41995  0.91759  0.10266  1.0000
  H   H681      1.0  0.08620  0.63029  0.16229  1.0000
  C   C866      1.0  0.37421  0.90386  0.10412  1.0000
  C   C867      1.0  0.13688  0.52167  0.11485  1.0000
  H   H682      1.0  0.99260  0.64519  0.23882  1.0000
  H   H683      1.0  0.13094  0.54150  0.03831  1.0000
  H   H684      1.0  0.03881  0.52944  0.02908  1.0000
  H   H685      1.0  0.10291  0.55275  0.06554  1.0000
  C   C868      1.0  0.05452  0.67483  0.10502  1.0000
  C   C869      1.0  0.21274  0.65955  0.02211  1.0000
  C   C870      1.0  0.42509  0.93035  0.05483  1.0000
  H   H686      1.0  0.28146  0.69785  0.19149  1.0000
  C   C871      1.0  0.14595  0.82125  0.20410  1.0000
  H   H687      1.0  0.18947  0.50783  0.01026  1.0000
  H   H688      1.0  0.45673  0.88440  0.09830  1.0000
  C   C872      1.0  0.14543  0.50787  0.08481  1.0000
  H   H689      1.0  0.27351  0.93880  0.11892  1.0000
  C   C873      1.0  0.30189  0.95897  0.12550  1.0000
  C   C874      1.0  0.23294  0.75704  0.21580  1.0000
  C   C875      1.0  0.42031  0.87916  0.03696  1.0000
  C   C876      1.0  0.04683  0.66860  0.21913  1.0000
  C   C877      1.0  0.17476  0.50679  0.01974  1.0000
  C   C878      1.0  0.30444  0.84914  0.22496  1.0000
  H   H690      1.0  0.00052  0.68627  0.16269  1.0000
  C   C879      1.0  0.22173  0.83327  0.21975  1.0000
  C   C880      1.0  0.08834  0.52387  0.05308  1.0000
  C   C881      1.0  0.18501  0.76817  0.21962  1.0000
  C   C882      1.0  0.16113  0.52698  0.02400  1.0000
  H   H691      1.0  0.40454  0.82424  0.03079  1.0000
  H   H692      1.0  0.38591  0.92896  0.17334  1.0000
  H   H693      1.0  0.11901  0.71973  0.02112  1.0000
  H   H694      1.0  0.13595  0.80832  0.23052  1.0000
  H   H695      1.0  0.33742  0.96063  0.10054  1.0000
  C   C883      1.0  0.25329  0.68093  0.23051  1.0000
  C   C884      1.0  0.99171  0.65093  0.99831  1.0000
  C   C885      1.0  0.13307  0.66367  0.22837  1.0000
  C   C886      1.0  0.26490  0.97558  0.11497  1.0000
  C   C887      1.0  0.32824  0.94391  0.18032  1.0000
  H   H696      1.0  0.41247  0.92889  0.12969  1.0000
  H   H697      1.0  0.45193  0.87122  0.00674  1.0000
  C   C888      1.0  0.36560  0.95368  0.15673  1.0000
  H   H698      1.0  0.31929  0.93475  0.05545  1.0000
  C   C889      1.0  0.40970  0.83850  0.05654  1.0000
  C   C890      1.0  0.40941  0.83920  0.03779  1.0000
  H   H699      1.0  0.35640  0.89876  0.10460  1.0000
  H   H700      1.0  0.28647  0.69560  0.22420  1.0000
  C   C891      1.0  0.32488  0.95978  0.16582  1.0000
  C   C892      1.0  0.23296  0.67384  0.22318  1.0000
  C   C893      1.0  0.01882  0.62761  0.22148  1.0000
  H   H701      1.0  0.25143  0.75237  0.21422  1.0000
  C   C894      1.0  0.39342  0.97081  0.08907  1.0000
  H   H702      1.0  0.20589  0.86372  0.20614  1.0000
  H   H703      1.0  0.16651  0.77265  0.22088  1.0000
  C   C895      1.0  0.06766  0.63355  0.16513  1.0000
  H   H704      1.0  0.16269  0.82648  0.20803  1.0000
  C   C896      1.0  0.38301  0.91382  0.11900  1.0000
  H   H705      1.0  0.18340  0.69006  0.23165  1.0000
  H   H706      1.0  0.43736  0.92363  0.10210  1.0000
  C   C897      1.0  0.35447  0.96695  0.10177  1.0000
  H   H707      1.0  0.19386  0.79643  0.23545  1.0000
  C   C898      1.0  0.36000  0.97870  0.11704  1.0000
  C   C899      1.0  0.13584  0.73510  0.23744  1.0000
  H   H708      1.0  0.17479  0.65811  0.99690  1.0000
  Fe  Fe59      1.0  0.06472  0.60390  0.99721  1.0000
  H   H709      1.0  0.00346  0.67906  0.12944  1.0000
  C   C900      1.0  0.24893  0.63701  0.01479  1.0000
  C   C901      1.0  0.00996  0.63418  0.00172  1.0000
  C   C902      1.0  0.37107  0.96323  0.08777  1.0000
  C   C903      1.0  0.23429  0.82450  0.23461  1.0000
  C   C904      1.0  0.46662  0.87987  0.00115  1.0000
  H   H710      1.0  0.08921  0.53859  0.00023  1.0000
  S   S118      1.0  0.33041  0.89498  0.99431  1.0000
  H   H711      1.0  0.99462  0.62441  0.10867  1.0000
  C   C905      1.0  0.09950  0.52282  0.99681  1.0000
  S   S119      1.0  0.02981  0.58963  0.00325  1.0000
  P   P30       1.0  0.24484  0.79410  0.23600  1.0000
  H   H712      1.0  0.07198  0.50021  0.00397  1.0000
  H   H713      1.0  0.02601  0.63944  0.00676  1.0000
  C   C906      1.0  0.46217  0.94604  0.00762  1.0000
  C   C907      1.0  0.25531  0.65454  0.00241  1.0000
  H   H714      1.0  0.00141  0.64616  0.17469  1.0000
  H   H715      1.0  0.38435  0.95909  0.99500  1.0000
  C   C908      1.0  0.00201  0.62880  0.23569  1.0000
  C   C909      1.0  0.35394  0.98310  0.99448  1.0000
  H   H716      1.0  0.45033  0.93422  0.01412  1.0000
  H   H717      1.0  0.22333  0.71778  0.24147  1.0000
  C   C910      1.0  0.38259  0.98613  0.11826  1.0000
  S   S120      1.0  0.33420  0.96165  0.99266  1.0000
  H   H718      1.0  0.24436  0.63398  0.24149  1.0000
  C   C911      1.0  0.48889  0.87446  0.00805  1.0000
  H   H719      1.0  0.41669  0.98770  0.10542  1.0000
  Fe  Fe60      1.0  0.34581  0.80256  0.29487  1.0000
  S   S121      1.0  0.36744  0.76889  0.29122  1.0000
  S   S122      1.0  0.32116  0.82145  0.27456  1.0000
  Fe  Fe61      1.0  0.35851  0.80361  0.33530  1.0000
  S   S123      1.0  0.38011  0.76945  0.33405  1.0000
  S   S124      1.0  0.35481  0.82978  0.35803  1.0000
  Fe  Fe62      1.0  0.39476  0.78403  0.30770  1.0000
  S   S125      1.0  0.43301  0.78830  0.29816  1.0000
  Fe  Fe63      1.0  0.35070  0.75718  0.31780  1.0000
  S   S126      1.0  0.33668  0.72034  0.31992  1.0000
  S   S127      1.0  0.37379  0.81845  0.30943  1.0000
  S   S128      1.0  0.32830  0.79044  0.32099  1.0000
  Fe  Fe64      1.0  0.38324  0.85931  0.46141  1.0000
  S   S129      1.0  0.39258  0.89647  0.45785  1.0000
  S   S130      1.0  0.38543  0.83175  0.43973  1.0000
  C   C912      1.0  0.04967  0.82292  0.26800  1.0000
  C   C913      1.0  0.48647  0.82478  0.45454  1.0000
  C   C914      1.0  0.05888  0.80694  0.25549  1.0000
  H   H720      1.0  0.21203  0.49793  0.36217  1.0000
  Fe  Fe65      1.0  0.21578  0.64395  0.32317  1.0000
  S   S131      1.0  0.17673  0.65255  0.32614  1.0000
  S   S132      1.0  0.23600  0.67702  0.32639  1.0000
  Fe  Fe66      1.0  0.20809  0.59163  0.31705  1.0000
  S   S133      1.0  0.16935  0.59814  0.31922  1.0000
  S   S134      1.0  0.22617  0.55465  0.31450  1.0000
  Fe  Fe67      1.0  0.17410  0.63077  0.30184  1.0000
  S   S135      1.0  0.14801  0.63978  0.27943  1.0000
  Fe  Fe68      1.0  0.17545  0.61941  0.34318  1.0000
  S   S136      1.0  0.15478  0.60869  0.36887  1.0000
  S   S137      1.0  0.21286  0.62323  0.29817  1.0000
  S   S138      1.0  0.21435  0.61183  0.34167  1.0000
  C   C915      1.0  0.18291  0.55108  0.36252  1.0000
  C   C916      1.0  0.16499  0.57232  0.43651  1.0000
  H   H721      1.0  0.19620  0.54964  0.40080  1.0000
  H   H722      1.0  0.32389  0.78858  0.37918  1.0000
  C   C917      1.0  0.21718  0.71207  0.25470  1.0000
  C   C918      1.0  0.23957  0.83993  0.24778  1.0000
  Fe  Fe69      1.0  0.11399  0.62821  0.47066  1.0000
  S   S139      1.0  0.12004  0.64999  0.44470  1.0000
  S   S140      1.0  0.09377  0.59631  0.47167  1.0000
  C   C919      1.0  0.20176  0.63624  0.45003  1.0000
  C   C920      1.0  0.06638  0.67737  0.24618  1.0000
  H   H723      1.0  0.08775  0.76985  0.26506  1.0000
  H   H724      1.0  0.17654  0.50246  0.41145  1.0000
  C   C921      1.0  0.15893  0.52199  0.37647  1.0000
  H   H725      1.0  0.14030  0.71348  0.26148  1.0000
  C   C922      1.0  0.16196  0.54514  0.37102  1.0000
  H   H726      1.0  0.34001  0.68586  0.26245  1.0000
  C   C923      1.0  0.14563  0.62085  0.38984  1.0000
  C   C924      1.0  0.13680  0.60604  0.40354  1.0000
  C   C925      1.0  0.12897  0.61465  0.42036  1.0000
  C   C926      1.0  0.12980  0.63831  0.42369  1.0000
  C   C927      1.0  0.13822  0.65324  0.40987  1.0000
  C   C928      1.0  0.14616  0.64459  0.39306  1.0000
  H   H727      1.0  0.13622  0.58770  0.40119  1.0000
  H   H728      1.0  0.12237  0.60295  0.43076  1.0000
  H   H729      1.0  0.13873  0.67162  0.41221  1.0000
  H   H730      1.0  0.15244  0.65632  0.38256  1.0000
  C   C929      1.0  0.26647  0.79643  0.46646  1.0000
  C   C930      1.0  0.19129  0.52275  0.31391  1.0000
  C   C931      1.0  0.21508  0.52615  0.31481  1.0000
  C   C932      1.0  0.23081  0.50625  0.31581  1.0000
  C   C933      1.0  0.17655  0.59265  0.43817  1.0000
  H   H731      1.0  0.17888  0.53772  0.31319  1.0000
  H   H732      1.0  0.24923  0.50850  0.31655  1.0000
  C   C934      1.0  0.25193  0.82256  0.44252  1.0000
  C   C935      1.0  0.15038  0.65385  0.25764  1.0000
  H   H733      1.0  0.20844  0.79170  0.46166  1.0000
  C   C936      1.0  0.18848  0.71586  0.27929  1.0000
  H   H734      1.0  0.18291  0.66873  0.26144  1.0000
  H   H735      1.0  0.22809  0.61852  0.46663  1.0000
  H   H736      1.0  0.15673  0.67202  0.46636  1.0000
  C   C937      1.0  0.29944  0.85493  0.44807  1.0000
  C   C938      1.0  0.13081  0.49984  0.48369  1.0000
  H   H737      1.0  0.33474  0.72302  0.27831  1.0000
  C   C939      1.0  0.30838  0.70884  0.32114  1.0000
  C   C940      1.0  0.30673  0.68455  0.32044  1.0000
  C   C941      1.0  0.28491  0.67452  0.32183  1.0000
  C   C942      1.0  0.26422  0.68863  0.32389  1.0000
  C   C943      1.0  0.26584  0.71294  0.32446  1.0000
  C   C944      1.0  0.28767  0.72297  0.32308  1.0000
  H   H738      1.0  0.32252  0.67335  0.31901  1.0000
  H   H739      1.0  0.28418  0.65583  0.32161  1.0000
  H   H740      1.0  0.25008  0.72410  0.32618  1.0000
  H   H741      1.0  0.28856  0.74160  0.32380  1.0000
  C   C945      1.0  0.36538  0.83029  0.38020  1.0000
  C   C946      1.0  0.36174  0.85099  0.38970  1.0000
  C   C947      1.0  0.36811  0.85193  0.40776  1.0000
  C   C948      1.0  0.37800  0.83202  0.41668  1.0000
  C   C949      1.0  0.38214  0.81145  0.40706  1.0000
  C   C950      1.0  0.37598  0.81058  0.38893  1.0000
  H   H742      1.0  0.35357  0.86635  0.38311  1.0000
  H   H743      1.0  0.36509  0.86798  0.41482  1.0000
  H   H744      1.0  0.38989  0.79596  0.41374  1.0000
  H   H745      1.0  0.37881  0.79450  0.38187  1.0000
  C   C951      1.0  0.46502  0.76999  0.32341  1.0000
  C   C952      1.0  0.46090  0.78431  0.30807  1.0000
  H   H746      1.0  0.02895  0.66802  0.45731  1.0000
  H   H747      1.0  0.45074  0.76148  0.33010  1.0000
  C   C953      1.0  0.30398  0.84220  0.24337  1.0000
  H   H748      1.0  0.05078  0.79063  0.25446  1.0000
  C   C954      1.0  0.32324  0.82986  0.25119  1.0000
  C   C955      1.0  0.48652  0.75214  0.26088  1.0000
  H   H749      1.0  0.05249  0.85657  0.27910  1.0000
  H   H750      1.0  0.28866  0.84668  0.25168  1.0000
  C   C956      1.0  0.31979  0.86542  0.44219  1.0000
  C   C957      1.0  0.26545  0.60447  0.27830  1.0000
  H   H751      1.0  0.01829  0.52395  0.43706  1.0000
  C   C958      1.0  0.18167  0.65155  0.45019  1.0000
  C   C959      1.0  0.31347  0.78881  0.42457  1.0000
  H   H752      1.0  0.45334  0.74393  0.37817  1.0000
  C   C960      1.0  0.13241  0.65222  0.24553  1.0000
  C   C961      1.0  0.32284  0.98176  0.47266  1.0000
  C   C962      1.0  0.31981  0.71535  0.27309  1.0000
  H   H753      1.0  0.29706  0.82685  0.48733  1.0000
  C   C963      1.0  0.28138  0.89306  0.45513  1.0000
  H   H754      1.0  0.07893  0.64093  0.40205  1.0000
  C   C964      1.0  0.47983  0.79523  0.29968  1.0000
  C   C965      1.0  0.31893  0.79512  0.39236  1.0000
  C   C966      1.0  0.28083  0.69466  0.26103  1.0000
  C   C967      1.0  0.27002  0.64577  0.28028  1.0000
  C   C968      1.0  0.27289  0.62305  0.28758  1.0000
  C   C969      1.0  0.99925  0.58261  0.38103  1.0000
  S   S141      1.0  0.40735  0.85131  0.48440  1.0000
  C   C970      1.0  0.22963  0.81471  0.44568  1.0000
  C   C971      1.0  0.22954  0.69405  0.26433  1.0000
  H   H755      1.0  0.30583  0.66745  0.25176  1.0000
  H   H756      1.0  0.00593  0.57206  0.25065  1.0000
  H   H757      1.0  0.47682  0.80679  0.28811  1.0000
  C   C972      1.0  0.20095  0.69830  0.28906  1.0000
  C   C973      1.0  0.22129  0.68732  0.28157  1.0000
  C   C974      1.0  0.34212  0.96620  0.47581  1.0000
  C   C975      1.0  0.34155  0.80359  0.46068  1.0000
  H   H758      1.0  0.30666  0.97520  0.46886  1.0000
  H   H759      1.0  0.00005  0.65388  0.43729  1.0000
  H   H760      1.0  0.30682  0.58802  0.43197  1.0000
  C   C976      1.0  0.17688  0.50458  0.37347  1.0000
  C   C977      1.0  0.19654  0.72268  0.26206  1.0000
  H   H761      1.0  0.29656  0.62541  0.41554  1.0000
  H   H762      1.0  0.47371  0.80942  0.25025  1.0000
  C   C978      1.0  0.32273  0.69437  0.26422  1.0000
  H   H763      1.0  0.28037  0.61990  0.30065  1.0000
  C   C979      1.0  0.30334  0.68403  0.25821  1.0000
  C   C980      1.0  0.05124  0.50599  0.43040  1.0000
  C   C981      1.0  0.25526  0.60863  0.26166  1.0000
  H   H764      1.0  0.33674  0.89757  0.43833  1.0000
  H   H765      1.0  0.03227  0.56125  0.46876  1.0000
  C   C982      1.0  0.98969  0.64354  0.48408  1.0000
  H   H766      1.0  0.19486  0.69298  0.30246  1.0000
  H   H767      1.0  0.23048  0.67358  0.28928  1.0000
  H   H768      1.0  0.28018  0.80237  0.26186  1.0000
  H   H769      1.0  0.18516  0.56894  0.35798  1.0000
  C   C983      1.0  0.20089  0.53396  0.35963  1.0000
  C   C984      1.0  0.03311  0.51368  0.44227  1.0000
  H   H770      1.0  0.10814  0.63390  0.34865  1.0000
  P   P31       1.0  0.25587  0.67989  0.25466  1.0000
  H   H771      1.0  0.17048  0.60441  0.44859  1.0000
  C   C985      1.0  0.43501  0.77588  0.36915  1.0000
  C   C986      1.0  0.45428  0.76251  0.37565  1.0000
  H   H772      1.0  0.24914  0.59423  0.25466  1.0000
  H   H773      1.0  0.44885  0.80735  0.41582  1.0000
  C   C987      1.0  0.45709  0.81040  0.36811  1.0000
  C   C988      1.0  0.43631  0.79977  0.36550  1.0000
  P   P32       1.0  0.45882  0.84130  0.36376  1.0000
  C   C989      1.0  0.43619  0.85127  0.34867  1.0000
  C   C990      1.0  0.45575  0.85456  0.38543  1.0000
  C   C991      1.0  0.43499  0.85303  0.39586  1.0000
  C   C992      1.0  0.43259  0.86299  0.41274  1.0000
  H   H774      1.0  0.10953  0.73602  0.27908  1.0000
  H   H775      1.0  0.33505  0.85481  0.43770  1.0000
  C   C993      1.0  0.47439  0.86521  0.39257  1.0000
  C   C994      1.0  0.41808  0.86762  0.35373  1.0000
  C   C995      1.0  0.40050  0.87436  0.34178  1.0000
  C   C996      1.0  0.40121  0.86532  0.32461  1.0000
  C   C997      1.0  0.41945  0.84943  0.31938  1.0000
  C   C998      1.0  0.43676  0.84229  0.33139  1.0000
  C   C999      1.0  0.03395  0.50777  0.46072  1.0000
  H   H776      1.0  0.43100  0.81259  0.44633  1.0000
  H   H777      1.0  0.09264  0.59506  0.34717  1.0000
  H   H778      1.0  0.06988  0.57885  0.37301  1.0000
  C   C1000     1.0  0.31928  0.81347  0.46540  1.0000
  S   S142      1.0  0.14026  0.54547  0.48013  1.0000
  H   H779      1.0  0.41907  0.76774  0.36671  1.0000
  C   C1001     1.0  0.48415  0.79331  0.25276  1.0000
  C   C1002     1.0  0.17270  0.66085  0.46630  1.0000
  C   C1003     1.0  0.23283  0.86369  0.24591  1.0000
  H   H780      1.0  0.42107  0.80975  0.36054  1.0000
  H   H781      1.0  0.42062  0.84415  0.39097  1.0000
  H   H782      1.0  0.41647  0.86200  0.42065  1.0000
  C   C1004     1.0  0.19793  0.51079  0.36500  1.0000
  H   H783      1.0  0.26703  0.58693  0.28423  1.0000
  H   H784      1.0  0.02646  0.56286  0.42633  1.0000
  H   H785      1.0  0.41716  0.87505  0.36684  1.0000
  H   H786      1.0  0.38603  0.88624  0.34593  1.0000
  H   H787      1.0  0.38735  0.87020  0.31549  1.0000
  H   H788      1.0  0.41984  0.84201  0.30619  1.0000
  H   H789      1.0  0.45038  0.82942  0.32724  1.0000
  H   H790      1.0  0.06847  0.67500  0.26055  1.0000
  C   C1005     1.0  0.47317  0.77294  0.25748  1.0000
  C   C1006     1.0  0.31239  0.81876  0.39411  1.0000
  C   C1007     1.0  0.28031  0.86887  0.45481  1.0000
  C   C1008     1.0  0.12290  0.52284  0.48698  1.0000
  H   H791      1.0  0.24938  0.83396  0.25933  1.0000
  H   H792      1.0  0.16272  0.54144  0.42164  1.0000
  C   C1009     1.0  0.44933  0.81514  0.44382  1.0000
  H   H793      1.0  0.44920  0.88128  0.43281  1.0000
  C   C1010     1.0  0.99817  0.55973  0.40897  1.0000
  C   C1011     1.0  0.24853  0.78476  0.25927  1.0000
  C   C1012     1.0  0.11347  0.74120  0.26519  1.0000
  H   H794      1.0  0.10076  0.65682  0.37600  1.0000
  H   H795      1.0  0.17257  0.72406  0.28509  1.0000
  C   C1013     1.0  0.30682  0.82758  0.41108  1.0000
  C   C1014     1.0  0.25975  0.65018  0.26357  1.0000
  C   C1015     1.0  0.30763  0.81270  0.42649  1.0000
  C   C1016     1.0  0.26745  0.79169  0.26857  1.0000
  C   C1017     1.0  0.27007  0.78512  0.28668  1.0000
  C   C1018     1.0  0.25396  0.77129  0.29563  1.0000
  C   C1019     1.0  0.23513  0.76415  0.28648  1.0000
  C   C1020     1.0  0.23232  0.77099  0.26840  1.0000
  H   H796      1.0  0.24116  0.77532  0.47997  1.0000
  H   H797      1.0  0.21542  0.82162  0.43750  1.0000
  C   C1021     1.0  0.27042  0.81377  0.45310  1.0000
  H   H798      1.0  0.27576  0.56596  0.44735  1.0000
  C   C1022     1.0  0.35770  0.79775  0.47394  1.0000
  H   H799      1.0  0.14806  0.55856  0.37313  1.0000
  H   H800      1.0  0.32442  0.76178  0.40615  1.0000
  C   C1023     1.0  0.47199  0.87494  0.40952  1.0000
  H   H801      1.0  0.21699  0.53861  0.35277  1.0000
  C   C1024     1.0  0.99912  0.54596  0.46763  1.0000
  H   H802      1.0  0.11795  0.64186  0.24941  1.0000
  C   C1025     1.0  0.47613  0.79698  0.37517  1.0000
  C   C1026     1.0  0.46282  0.82150  0.45776  1.0000
  H   H803      1.0  0.31221  0.83036  0.38227  1.0000
  C   C1027     1.0  0.18356  0.49994  0.31353  1.0000
  H   H804      1.0  0.28477  0.79071  0.29369  1.0000
  H   H805      1.0  0.25614  0.76607  0.30964  1.0000
  H   H806      1.0  0.22279  0.75322  0.29343  1.0000
  H   H807      1.0  0.21749  0.76557  0.26166  1.0000
  C   C1028     1.0  0.31939  0.78012  0.40757  1.0000
  H   H808      1.0  0.17247  0.65575  0.43796  1.0000
  P   P33       1.0  0.29917  0.82362  0.44837  1.0000
  H   H809      1.0  0.29545  0.74199  0.28320  1.0000
  C   C1029     1.0  0.24414  0.78863  0.46959  1.0000
  Fe  Fe70      1.0  0.36407  0.90508  0.47842  1.0000
  C   C1030     1.0  0.45943  0.81217  0.42662  1.0000
  H   H810      1.0  0.15035  0.56879  0.44558  1.0000
  C   C1031     1.0  0.13087  0.72856  0.25535  1.0000
  H   H811      1.0  0.37509  0.79084  0.47008  1.0000
  H   H812      1.0  0.31363  0.77694  0.43622  1.0000
  H   H813      1.0  0.15864  0.50106  0.44223  1.0000
  H   H814      1.0  0.30190  0.84598  0.41202  1.0000
  H   H815      1.0  0.45493  0.82394  0.47107  1.0000
  C   C1032     1.0  0.21369  0.68337  0.39881  1.0000
  C   C1033     1.0  0.20819  0.67666  0.38175  1.0000
  C   C1034     1.0  0.20271  0.65382  0.37926  1.0000
  C   C1035     1.0  0.20301  0.63751  0.39370  1.0000
  C   C1036     1.0  0.20863  0.64404  0.41088  1.0000
  C   C1037     1.0  0.21394  0.66716  0.41331  1.0000
  P   P34       1.0  0.21182  0.62276  0.42933  1.0000
  C   C1038     1.0  0.19539  0.59760  0.42639  1.0000
  C   C1039     1.0  0.24205  0.61220  0.43043  1.0000
  C   C1040     1.0  0.24802  0.59100  0.43966  1.0000
  C   C1041     1.0  0.27130  0.58236  0.44026  1.0000
  C   C1042     1.0  0.28880  0.59477  0.43161  1.0000
  C   C1043     1.0  0.28302  0.61586  0.42238  1.0000
  C   C1044     1.0  0.25976  0.62457  0.42177  1.0000
  C   C1045     1.0  0.19077  0.56157  0.41130  1.0000
  C   C1046     1.0  0.20259  0.58171  0.41308  1.0000
  H   H816      1.0  0.21799  0.70110  0.40072  1.0000
  H   H817      1.0  0.20826  0.68907  0.37040  1.0000
  H   H818      1.0  0.19806  0.64877  0.36610  1.0000
  H   H819      1.0  0.19856  0.62003  0.39127  1.0000
  H   H820      1.0  0.21868  0.67255  0.42636  1.0000
  H   H821      1.0  0.23463  0.58112  0.44637  1.0000
  C   C1047     1.0  0.07013  0.49193  0.43682  1.0000
  H   H822      1.0  0.14243  0.51756  0.38270  1.0000
  C   C1048     1.0  0.21280  0.63050  0.46625  1.0000
  H   H823      1.0  0.25577  0.64081  0.41438  1.0000
  C   C1049     1.0  0.17198  0.55690  0.42302  1.0000
  H   H824      1.0  0.21735  0.58491  0.40406  1.0000
  C   C1050     1.0  0.01416  0.56410  0.46532  1.0000
  C   C1051     1.0  0.10768  0.54463  0.41974  1.0000
  C   C1052     1.0  0.10298  0.53897  0.43788  1.0000
  C   C1053     1.0  0.08425  0.55050  0.44704  1.0000
  C   C1054     1.0  0.07050  0.56805  0.43820  1.0000
  C   C1055     1.0  0.07519  0.57408  0.42003  1.0000
  C   C1056     1.0  0.09384  0.56205  0.41082  1.0000
  P   P35       1.0  0.05663  0.59632  0.40868  1.0000
  C   C1057     1.0  0.03068  0.58370  0.40179  1.0000
  C   C1058     1.0  0.04762  0.61893  0.42417  1.0000
  C   C1059     1.0  0.02460  0.62888  0.42472  1.0000
  C   C1060     1.0  0.01787  0.64641  0.43674  1.0000
  C   C1061     1.0  0.03410  0.65433  0.44809  1.0000
  C   C1062     1.0  0.05699  0.64455  0.44761  1.0000
  C   C1063     1.0  0.06373  0.62691  0.43572  1.0000
  C   C1064     1.0  0.02028  0.59119  0.38562  1.0000
  H   H825      1.0  0.26476  0.86118  0.46015  1.0000
  H   H826      1.0  0.27545  0.65998  0.28785  1.0000
  Fe  Fe71      1.0  0.41410  0.88925  0.48214  1.0000
  C   C1065     1.0  0.01932  0.56809  0.41349  1.0000
  C   C1066     1.0  0.07235  0.60871  0.38948  1.0000
  C   C1067     1.0  0.07626  0.59602  0.37376  1.0000
  C   C1068     1.0  0.08897  0.60516  0.35905  1.0000
  C   C1069     1.0  0.09761  0.62715  0.35981  1.0000
  C   C1070     1.0  0.09350  0.64004  0.37526  1.0000
  C   C1071     1.0  0.08110  0.63083  0.39009  1.0000
  H   H827      1.0  0.12220  0.53567  0.41262  1.0000
  H   H828      1.0  0.11391  0.52581  0.44496  1.0000
  H   H829      1.0  0.08075  0.54618  0.46116  1.0000
  H   H830      1.0  0.05654  0.57731  0.44567  1.0000
  H   H831      1.0  0.09814  0.56627  0.39689  1.0000
  H   H832      1.0  0.01176  0.62324  0.41594  1.0000
  H   H833      1.0  0.06964  0.65074  0.45637  1.0000
  H   H834      1.0  0.08161  0.61976  0.43538  1.0000
  H   H835      1.0  0.02805  0.60405  0.37671  1.0000
  H   H836      1.0  0.34697  0.80126  0.44675  1.0000
  H   H837      1.0  0.08640  0.86605  0.25925  1.0000
  S   S143      1.0  0.44760  0.90709  0.48138  1.0000
  S   S144      1.0  0.33823  0.93610  0.47365  1.0000
  H   H838      1.0  0.47966  0.88520  0.35477  1.0000
  C   C1072     1.0  0.22571  0.79783  0.45926  1.0000
  C   C1073     1.0  0.30160  0.90340  0.44897  1.0000
  H   H839      1.0  0.01717  0.60053  0.45856  1.0000
  S   S145      1.0  0.35259  0.86822  0.48031  1.0000
  H   H840      1.0  0.25482  0.83542  0.43178  1.0000
  H   H841      1.0  0.26672  0.90381  0.46047  1.0000
  C   C1074     1.0  0.05281  0.49346  0.46697  1.0000
  C   C1075     1.0  0.00572  0.58633  0.45939  1.0000
  H   H842      1.0  0.99130  0.58848  0.36856  1.0000
  H   H843      1.0  0.03471  0.81888  0.27657  1.0000
  H   H844      1.0  0.26097  0.72412  0.27268  1.0000
  C   C1076     1.0  0.16899  0.66726  0.25233  1.0000
  H   H845      1.0  0.28057  0.78866  0.47434  1.0000
  H   H846      1.0  0.30264  0.92209  0.44958  1.0000
  C   C1077     1.0  0.27807  0.71584  0.26987  1.0000
  C   C1078     1.0  0.29754  0.72610  0.27583  1.0000
  C   C1079     1.0  0.47480  0.77308  0.37875  1.0000
  C   C1080     1.0  0.45106  0.87389  0.41959  1.0000
  P   P36       1.0  0.01024  0.51753  0.47587  1.0000
  H   H847      1.0  0.35813  0.81518  0.24604  1.0000
  C   C1081     1.0  0.32081  0.88958  0.44255  1.0000
  H   H848      1.0  0.18680  0.73615  0.25438  1.0000
  C   C1082     1.0  0.10109  0.76040  0.25713  1.0000
  C   C1083     1.0  0.25245  0.63136  0.25428  1.0000
  C   C1084     1.0  0.05966  0.84416  0.26942  1.0000
  C   C1085     1.0  0.18366  0.65492  0.48240  1.0000
  H   H849      1.0  0.47793  0.73641  0.26465  1.0000
  C   C1086     1.0  0.47299  0.89082  0.48770  1.0000
  Fe  Fe72      1.0  0.12308  0.58013  0.48772  1.0000
  H   H850      1.0  0.45431  0.77338  0.25885  1.0000
  C   C1087     1.0  0.20374  0.63982  0.48236  1.0000
  C   C1088     1.0  0.36302  0.97506  0.48073  1.0000
  H   H851      1.0  0.14749  0.49620  0.47683  1.0000
  H   H852      1.0  0.23760  0.87556  0.25587  1.0000
  C   C1089     1.0  0.48543  0.84804  0.35150  1.0000
  S   S146      1.0  0.14432  0.61116  0.48523  1.0000
  C   C1090     1.0  0.48301  0.81581  0.42329  1.0000
  H   H853      1.0  0.02718  0.64336  0.48628  1.0000
  H   H854      1.0  0.03788  0.65544  0.24604  1.0000
  H   H855      1.0  0.37803  0.96315  0.48307  1.0000
  C   C1091     1.0  0.15411  0.48882  0.43245  1.0000
  H   H856      1.0  0.48638  0.88321  0.41492  1.0000
  H   H857      1.0  0.16520  0.49771  0.31247  1.0000
  H   H858      1.0  0.05059  0.51077  0.41621  1.0000
  H   H859      1.0  0.14655  0.49482  0.34857  1.0000
  C   C1092     1.0  0.01177  0.63408  0.48942  1.0000
  C   C1093     1.0  0.07879  0.84947  0.25826  1.0000
  C   C1094     1.0  0.48785  0.76614  0.32982  1.0000
  C   C1095     1.0  0.16400  0.48971  0.41497  1.0000
  C   C1096     1.0  0.31368  0.81810  0.48350  1.0000
  C   C1097     1.0  0.07831  0.81198  0.24434  1.0000
  C   C1098     1.0  0.08805  0.83353  0.24572  1.0000
  C   C1099     1.0  0.99732  0.60880  0.24610  1.0000
  H   H860      1.0  0.09517  0.69924  0.24231  1.0000
  C   C1100     1.0  0.00952  0.58753  0.24253  1.0000
  H   H861      1.0  0.28955  0.76671  0.24184  1.0000
  Fe  Fe73      1.0  0.37719  0.86250  0.50317  1.0000
  S   S147      1.0  0.38609  0.90004  0.50263  1.0000
  S   S148      1.0  0.36754  0.83769  0.52691  1.0000
  C   C1101     1.0  0.42634  0.82456  0.61459  1.0000
  H   H862      1.0  0.03865  0.51906  0.54837  1.0000
  Fe  Fe74      1.0  0.35555  0.80936  0.67853  1.0000
  S   S149      1.0  0.37908  0.77694  0.68219  1.0000
  S   S150      1.0  0.32901  0.82167  0.70076  1.0000
  Fe  Fe75      1.0  0.36748  0.81189  0.63723  1.0000
  S   S151      1.0  0.39090  0.77882  0.63884  1.0000
  S   S152      1.0  0.36447  0.83851  0.61326  1.0000
  Fe  Fe76      1.0  0.36249  0.76456  0.65756  1.0000
  S   S153      1.0  0.35024  0.72704  0.66092  1.0000
  Fe  Fe77      1.0  0.40556  0.79360  0.66331  1.0000
  S   S154      1.0  0.44509  0.79913  0.66586  1.0000
  S   S155      1.0  0.33839  0.79674  0.65430  1.0000
  S   S156      1.0  0.38268  0.82711  0.66132  1.0000
  Fe  Fe78      1.0  0.12571  0.62218  0.51107  1.0000
  S   S157      1.0  0.14830  0.63799  0.53163  1.0000
  S   S158      1.0  0.10658  0.58947  0.51453  1.0000
  Fe  Fe79      1.0  0.23285  0.64586  0.65313  1.0000
  S   S159      1.0  0.19448  0.65649  0.65045  1.0000
  S   S160      1.0  0.25590  0.67702  0.64661  1.0000
  Fe  Fe80      1.0  0.22110  0.59530  0.66463  1.0000
  S   S161      1.0  0.18268  0.60433  0.66346  1.0000
  S   S162      1.0  0.23592  0.55849  0.67376  1.0000
  Fe  Fe81      1.0  0.19121  0.62271  0.63689  1.0000
  S   S163      1.0  0.16658  0.61302  0.61505  1.0000
  Fe  Fe82      1.0  0.18907  0.63748  0.67715  1.0000
  S   S164      1.0  0.16268  0.65520  0.69742  1.0000
  S   S165      1.0  0.22983  0.61281  0.63769  1.0000
  S   S166      1.0  0.22725  0.62753  0.68022  1.0000
  C   C1102     1.0  0.16304  0.66303  0.72042  1.0000
  H   H863      1.0  0.47367  0.75512  0.67181  1.0000
  C   C1103     1.0  0.99349  0.60126  0.50360  1.0000
  C   C1104     1.0  0.25620  0.79190  0.69449  1.0000
  H   H864      1.0  0.12916  0.68143  0.71958  1.0000
  C   C1105     1.0  0.22927  0.52825  0.60116  1.0000
  C   C1106     1.0  0.37372  0.94754  0.58981  1.0000
  H   H865      1.0  0.41289  0.83822  0.61729  1.0000
  C   C1107     1.0  0.24699  0.51233  0.68225  1.0000
  C   C1108     1.0  0.23172  0.52790  0.67276  1.0000
  C   C1109     1.0  0.21445  0.51856  0.66289  1.0000
  C   C1110     1.0  0.17042  0.76196  0.72883  1.0000
  H   H866      1.0  0.26027  0.51909  0.69006  1.0000
  H   H867      1.0  0.20218  0.53034  0.65590  1.0000
  C   C1111     1.0  0.15362  0.63021  0.55469  1.0000
  C   C1112     1.0  0.17005  0.64206  0.56371  1.0000
  C   C1113     1.0  0.17452  0.63690  0.58204  1.0000
  C   C1114     1.0  0.16243  0.61990  0.59171  1.0000
  C   C1115     1.0  0.14616  0.60792  0.58266  1.0000
  C   C1116     1.0  0.14182  0.61294  0.56430  1.0000
  H   H868      1.0  0.17927  0.65548  0.55649  1.0000
  H   H869      1.0  0.18704  0.64635  0.58874  1.0000
  H   H870      1.0  0.13667  0.59475  0.58994  1.0000
  H   H871      1.0  0.12912  0.60370  0.55764  1.0000
  C   C1117     1.0  0.21318  0.49395  0.66213  1.0000
  H   H872      1.0  0.19495  0.57040  0.62223  1.0000
  H   H873      1.0  0.09498  0.54533  0.49819  1.0000
  C   C1118     1.0  0.23540  0.68119  0.70886  1.0000
  H   H874      1.0  0.23726  0.73142  0.66320  1.0000
  C   C1119     1.0  0.32324  0.71409  0.65751  1.0000
  C   C1120     1.0  0.31945  0.69202  0.66560  1.0000
  C   C1121     1.0  0.29889  0.68064  0.66280  1.0000
  C   C1122     1.0  0.28182  0.69097  0.65156  1.0000
  C   C1123     1.0  0.28553  0.71314  0.64361  1.0000
  C   C1124     1.0  0.30595  0.72463  0.64658  1.0000
  H   H875      1.0  0.33261  0.68350  0.67401  1.0000
  H   H876      1.0  0.29647  0.66366  0.66904  1.0000
  H   H877      1.0  0.27258  0.72140  0.63488  1.0000
  H   H878      1.0  0.30847  0.74147  0.64011  1.0000
  C   C1125     1.0  0.47589  0.79205  0.66754  1.0000
  H   H879      1.0  0.42164  0.74431  0.55179  1.0000
  C   C1126     1.0  0.06136  0.70640  0.72343  1.0000
  C   C1127     1.0  0.12701  0.49582  0.53479  1.0000
  H   H880      1.0  0.07921  0.71691  0.69872  1.0000
  C   C1128     1.0  0.31009  0.83512  0.73369  1.0000
  C   C1129     1.0  0.33069  0.83190  0.72293  1.0000
  C   C1130     1.0  0.23827  0.54202  0.58688  1.0000
  C   C1131     1.0  0.26744  0.74532  0.68658  1.0000
  C   C1132     1.0  0.27753  0.49366  0.58132  1.0000
  C   C1133     1.0  0.36746  0.83830  0.55091  1.0000
  C   C1134     1.0  0.37128  0.85842  0.56001  1.0000
  C   C1135     1.0  0.37041  0.85806  0.57903  1.0000
  C   C1136     1.0  0.36607  0.83757  0.58925  1.0000
  C   C1137     1.0  0.36270  0.81734  0.58014  1.0000
  C   C1138     1.0  0.36328  0.81777  0.56113  1.0000
  H   H881      1.0  0.37451  0.87434  0.55241  1.0000
  H   H882      1.0  0.37297  0.87384  0.58589  1.0000
  H   H883      1.0  0.35910  0.80154  0.58776  1.0000
  H   H884      1.0  0.36034  0.80208  0.55428  1.0000
  C   C1139     1.0  0.02299  0.53948  0.50678  1.0000
  C   C1140     1.0  0.41253  0.81649  0.74095  1.0000
  H   H885      1.0  0.47359  0.77425  0.60700  1.0000
  C   C1141     1.0  0.01027  0.60624  0.55435  1.0000
  C   C1142     1.0  0.17879  0.56059  0.69879  1.0000
  H   H886      1.0  0.12635  0.50243  0.72445  1.0000
  H   H887      1.0  0.43122  0.95733  0.58460  1.0000
  C   C1143     1.0  0.43447  0.98824  0.50145  1.0000
  C   C1144     1.0  0.46404  0.80557  0.62078  1.0000
  H   H888      1.0  0.42275  0.83310  0.69043  1.0000
  C   C1145     1.0  0.28266  0.76238  0.68115  1.0000
  H   H889      1.0  0.16008  0.50505  0.62982  1.0000
  H   H890      1.0  0.09474  0.67683  0.69183  1.0000
  H   H891      1.0  0.18710  0.49674  0.55330  1.0000
  H   H892      1.0  0.01623  0.66256  0.73337  1.0000
  C   C1146     1.0  0.15203  0.58131  0.72673  1.0000
  C   C1147     1.0  0.08938  0.50701  0.72139  1.0000
  C   C1148     1.0  0.42901  0.74575  0.70468  1.0000
  H   H893      1.0  0.36762  0.83493  0.72183  1.0000
  C   C1149     1.0  0.16538  0.50016  0.69939  1.0000
  H   H894      1.0  0.16114  0.50355  0.52495  1.0000
  H   H895      1.0  0.30509  0.78208  0.71361  1.0000
  H   H896      1.0  0.21079  0.53020  0.55688  1.0000
  C   C1150     1.0  0.21575  0.57598  0.59799  1.0000
  H   H897      1.0  0.06261  0.53739  0.68702  1.0000
  H   H898      1.0  0.05529  0.72410  0.72634  1.0000
  H   H899      1.0  0.14159  0.58960  0.73742  1.0000
  H   H900      1.0  0.20627  0.52825  0.62480  1.0000
  Fe  Fe83      1.0  0.07833  0.60851  0.49816  1.0000
  H   H901      1.0  0.40349  0.93818  0.60582  1.0000
  C   C1151     1.0  0.46041  0.72430  0.58104  1.0000
  C   C1152     1.0  0.46034  0.74868  0.57926  1.0000
  H   H902      1.0  0.37610  0.74006  0.72617  1.0000
  P   P37       1.0  0.43426  0.76711  0.58375  1.0000
  C   C1153     1.0  0.41119  0.75138  0.59463  1.0000
  C   C1154     1.0  0.43981  0.78951  0.59903  1.0000
  C   C1155     1.0  0.42255  0.80734  0.60255  1.0000
  C   C1156     1.0  0.46049  0.78849  0.60853  1.0000
  C   C1157     1.0  0.38839  0.75425  0.58846  1.0000
  C   C1158     1.0  0.37034  0.74311  0.59761  1.0000
  C   C1159     1.0  0.37487  0.72910  0.61300  1.0000
  C   C1160     1.0  0.39746  0.72627  0.61929  1.0000
  C   C1161     1.0  0.41553  0.73757  0.61027  1.0000
  C   C1162     1.0  0.42555  0.77848  0.56192  1.0000
  C   C1163     1.0  0.42078  0.76289  0.54873  1.0000
  C   C1164     1.0  0.41468  0.77120  0.53153  1.0000
  C   C1165     1.0  0.41355  0.79511  0.52734  1.0000
  C   C1166     1.0  0.41851  0.81068  0.54034  1.0000
  C   C1167     1.0  0.42436  0.80246  0.55759  1.0000
  C   C1168     1.0  0.38390  0.95400  0.72708  1.0000
  C   C1169     1.0  0.21065  0.72224  0.68324  1.0000
  H   H903      1.0  0.05340  0.51456  0.71508  1.0000
  H   H904      1.0  0.44484  0.71589  0.58543  1.0000
  C   C1170     1.0  0.01379  0.61283  0.49919  1.0000
  H   H905      1.0  0.40598  0.80776  0.59616  1.0000
  H   H906      1.0  0.21634  0.71145  0.73967  1.0000
  H   H907      1.0  0.38429  0.76553  0.57688  1.0000
  H   H908      1.0  0.35269  0.74572  0.59302  1.0000
  H   H909      1.0  0.36075  0.72090  0.62034  1.0000
  H   H910      1.0  0.40067  0.71599  0.63156  1.0000
  H   H911      1.0  0.43274  0.73601  0.61574  1.0000
  P   P38       1.0  0.23795  0.49761  0.60391  1.0000
  C   C1171     1.0  0.06476  0.66503  0.73109  1.0000
  C   C1172     1.0  0.41764  0.84587  0.71720  1.0000
  H   H912      1.0  0.41712  0.82926  0.53714  1.0000
  H   H913      1.0  0.42778  0.81498  0.56738  1.0000
  C   C1173     1.0  0.35173  0.83721  0.72998  1.0000
  C   C1174     1.0  0.01791  0.59900  0.57135  1.0000
  H   H914      1.0  0.41742  0.97691  0.55661  1.0000
  H   H915      1.0  0.28519  0.50479  0.59054  1.0000
  C   C1175     1.0  0.18167  0.65639  0.73143  1.0000
  H   H916      1.0  0.21192  0.63496  0.49495  1.0000
  H   H917      1.0  0.24548  0.53580  0.53674  1.0000
  H   H918      1.0  0.48071  0.69164  0.57835  1.0000
  C   C1176     1.0  0.03307  0.51884  0.53467  1.0000
  C   C1177     1.0  0.20411  0.72601  0.73658  1.0000
  H   H919      1.0  0.27206  0.72737  0.68321  1.0000
  C   C1178     1.0  0.32982  0.81215  0.49673  1.0000
  H   H920      1.0  0.21452  0.72325  0.63739  1.0000
  H   H921      1.0  0.36163  0.93907  0.59903  1.0000
  C   C1179     1.0  0.24102  0.50544  0.52150  1.0000
  H   H922      1.0  0.37172  0.71493  0.70068  1.0000
  C   C1180     1.0  0.15463  0.51429  0.65748  1.0000
  C   C1181     1.0  0.07657  0.52965  0.69509  1.0000
  C   C1182     1.0  0.41292  0.95777  0.58165  1.0000
  C   C1183     1.0  0.26846  0.66387  0.72494  1.0000
  H   H923      1.0  0.02283  0.60982  0.54349  1.0000
  H   H924      1.0  0.03643  0.59704  0.57369  1.0000
  H   H925      1.0  0.41816  0.86399  0.71280  1.0000
  H   H926      1.0  0.12830  0.55487  0.72363  1.0000
  C   C1184     1.0  0.40695  0.94905  0.73198  1.0000
  C   C1185     1.0  0.10131  0.52755  0.49580  1.0000
  H   H927      1.0  0.27391  0.78989  0.73652  1.0000
  H   H928      1.0  0.22503  0.78024  0.70724  1.0000
  H   H929      1.0  0.20258  0.58713  0.70221  1.0000
  C   C1186     1.0  0.15623  0.51912  0.63892  1.0000
  H   H930      1.0  0.19477  0.51737  0.70880  1.0000
  H   H931      1.0  0.25054  0.53461  0.57697  1.0000
  C   C1187     1.0  0.23141  0.56580  0.58529  1.0000
  H   H932      1.0  0.23833  0.57651  0.57432  1.0000
  H   H933      1.0  0.28354  0.52257  0.65391  1.0000
  C   C1188     1.0  0.47892  0.81834  0.53904  1.0000
  H   H934      1.0  0.15707  0.77558  0.72574  1.0000
  C   C1189     1.0  0.42019  0.82847  0.70459  1.0000
  H   H935      1.0  0.48466  0.82773  0.66350  1.0000
  C   C1190     1.0  0.15320  0.54208  0.63217  1.0000
  C   C1191     1.0  0.14848  0.56021  0.64397  1.0000
  C   C1192     1.0  0.14698  0.55547  0.66252  1.0000
  C   C1193     1.0  0.15041  0.53249  0.66947  1.0000
  C   C1194     1.0  0.38788  0.72321  0.70208  1.0000
  P   P39       1.0  0.14796  0.52656  0.69349  1.0000
  C   C1195     1.0  0.15789  0.55114  0.70470  1.0000
  C   C1196     1.0  0.11795  0.52261  0.70010  1.0000
  H   H936      1.0  0.08538  0.49713  0.73369  1.0000
  H   H937      1.0  0.40836  0.80173  0.51416  1.0000
  C   C1197     1.0  0.14358  0.67594  0.72796  1.0000
  C   C1198     1.0  0.31846  0.75020  0.72652  1.0000
  C   C1199     1.0  0.09977  0.53258  0.68970  1.0000
  H   H938      1.0  0.11988  0.51362  0.53270  1.0000
  H   H939      1.0  0.24156  0.64441  0.71478  1.0000
  H   H940      1.0  0.41064  0.75916  0.52147  1.0000
  H   H941      1.0  0.42098  0.79206  0.70005  1.0000
  C   C1200     1.0  0.14456  0.56160  0.71882  1.0000
  H   H942      1.0  0.36452  0.79808  0.50219  1.0000
  C   C1201     1.0  0.01984  0.51834  0.49873  1.0000
  C   C1202     1.0  0.30303  0.76990  0.72491  1.0000
  C   C1203     1.0  0.11259  0.50996  0.71607  1.0000
  C   C1204     1.0  0.20517  0.73808  0.71982  1.0000
  H   H943      1.0  0.32569  0.81623  0.51064  1.0000
  C   C1205     1.0  0.27695  0.78569  0.68495  1.0000
  S   S167      1.0  0.04097  0.60023  0.50666  1.0000
  H   H944      1.0  0.14621  0.57806  0.63874  1.0000
  H   H945      1.0  0.14330  0.56983  0.67140  1.0000
  C   C1206     1.0  0.27938  0.50809  0.64601  1.0000
  C   C1207     1.0  0.48448  0.79066  0.71223  1.0000
  H   H946      1.0  0.18916  0.55301  0.68779  1.0000
  H   H947      1.0  0.29245  0.68777  0.73364  1.0000
  C   C1208     1.0  0.02336  0.49748  0.50896  1.0000
  H   H948      1.0  0.10342  0.54269  0.67748  1.0000
  C   C1209     1.0  0.24095  0.77488  0.69999  1.0000
  H   H949      1.0  0.44957  0.83647  0.63362  1.0000
  H   H950      1.0  0.29892  0.75756  0.67395  1.0000
  H   H951      1.0  0.19679  0.64656  0.72590  1.0000
  C   C1210     1.0  0.02997  0.49769  0.52681  1.0000
  C   C1211     1.0  0.08795  0.50916  0.50180  1.0000
  H   H952      1.0  0.25567  0.52926  0.63003  1.0000
  C   C1212     1.0  0.20680  0.56237  0.61223  1.0000
  H   H953      1.0  0.48523  0.82754  0.70679  1.0000
  H   H954      1.0  0.17620  0.66151  0.49499  1.0000
  C   C1213     1.0  0.39731  0.94702  0.59362  1.0000
  H   H955      1.0  0.18128  0.70960  0.69908  1.0000
  C   C1214     1.0  0.21333  0.53857  0.61370  1.0000
  C   C1215     1.0  0.21555  0.51794  0.54645  1.0000
  C   C1216     1.0  0.44708  0.82369  0.62370  1.0000
  C   C1217     1.0  0.02959  0.53973  0.52464  1.0000
  C   C1218     1.0  0.41915  0.80506  0.71014  1.0000
  C   C1219     1.0  0.07850  0.66116  0.71544  1.0000
  H   H956      1.0  0.33198  0.74696  0.71617  1.0000
  H   H957      1.0  0.28883  0.79888  0.68074  1.0000
  C   C1220     1.0  0.18851  0.71349  0.68572  1.0000
  H   H958      1.0  0.02060  0.55589  0.49945  1.0000
  H   H959      1.0  0.25619  0.50788  0.51272  1.0000
  C   C1221     1.0  0.48070  0.71044  0.57685  1.0000
  C   C1222     1.0  0.17556  0.70913  0.67089  1.0000
  C   C1223     1.0  0.21992  0.72572  0.66567  1.0000
  C   C1224     1.0  0.23505  0.52112  0.53507  1.0000
  C   C1225     1.0  0.17288  0.59056  0.72073  1.0000
  H   H960      1.0  0.46522  0.81989  0.52942  1.0000
  C   C1226     1.0  0.41087  0.74945  0.71766  1.0000
  H   H961      1.0  0.17849  0.60601  0.72669  1.0000
  H   H962      1.0  0.40331  0.70959  0.67754  1.0000
  C   C1227     1.0  0.18789  0.75582  0.71593  1.0000
  H   H963      1.0  0.45674  0.85862  0.49317  1.0000
  C   C1228     1.0  0.00169  0.59449  0.58532  1.0000
  H   H964      1.0  0.17487  0.70931  0.64198  1.0000
  C   C1229     1.0  0.24633  0.75142  0.69597  1.0000
  C   C1230     1.0  0.07499  0.70242  0.70771  1.0000
  H   H965      1.0  0.47947  0.80434  0.62863  1.0000
  P   P40       1.0  0.22660  0.72909  0.70254  1.0000
  C   C1231     1.0  0.25722  0.49302  0.62248  1.0000
  C   C1232     1.0  0.26392  0.70570  0.71981  1.0000
  C   C1233     1.0  0.20695  0.72123  0.65088  1.0000
  H   H966      1.0  0.34801  0.95793  0.73621  1.0000
  H   H967      1.0  0.15465  0.54596  0.61781  1.0000
  H   H968      1.0  0.27019  0.72272  0.72162  1.0000
  C   C1234     1.0  0.41388  0.83987  0.73539  1.0000
  C   C1235     1.0  0.08367  0.67984  0.70377  1.0000
  H   H969      1.0  0.07151  0.51287  0.50889  1.0000
  C   C1236     1.0  0.24352  0.70342  0.71047  1.0000
  H   H970      1.0  0.21946  0.67894  0.70207  1.0000
  H   H971      1.0  0.44006  0.72922  0.67999  1.0000
  H   H972      1.0  0.18764  0.76454  0.70276  1.0000
  H   H973      1.0  0.29367  0.83121  0.72836  1.0000
  C   C1237     1.0  0.18466  0.71328  0.65347  1.0000
  C   C1238     1.0  0.05626  0.68773  0.73533  1.0000
  H   H974      1.0  0.25199  0.80999  0.69757  1.0000
  S   S168      1.0  0.09645  0.64217  0.49626  1.0000
  C   C1239     1.0  0.18637  0.58004  0.70690  1.0000
  H   H975      1.0  0.21059  0.59447  0.59690  1.0000
  H   H976      1.0  0.03239  0.55621  0.53051  1.0000
  C   C1240     1.0  0.07138  0.51683  0.71091  1.0000
  C   C1241     1.0  0.40574  0.72018  0.68896  1.0000
  C   C1242     1.0  0.26329  0.51176  0.63246  1.0000
  H   H977      1.0  0.00767  0.58903  0.59853  1.0000
  C   C1243     1.0  0.39040  0.73772  0.71642  1.0000
  H   H978      1.0  0.15879  0.70179  0.67293  1.0000
  C   C1244     1.0  0.24786  0.66153  0.71610  1.0000
  H   H979      1.0  0.45950  0.83904  0.55873  1.0000
  C   C1245     1.0  0.42636  0.73133  0.69032  1.0000
  H   H980      1.0  0.44499  0.75446  0.70538  1.0000
  H   H981      1.0  0.42094  0.94907  0.72180  1.0000
  H   H982      1.0  0.46796  0.78960  0.70597  1.0000
  C   C1246     1.0  0.28530  0.77422  0.73798  1.0000
  H   H983      1.0  0.30845  0.49079  0.56406  1.0000
  C   C1247     1.0  0.48521  0.76915  0.67059  1.0000
  C   C1248     1.0  0.31538  0.95814  0.51635  1.0000
  H   H984      1.0  0.27818  0.64852  0.73029  1.0000
  C   C1249     1.0  0.27648  0.68596  0.72681  1.0000
  H   H985      1.0  0.19384  0.50198  0.58604  1.0000
  H   H986      1.0  0.08560  0.64372  0.71250  1.0000
  C   C1250     1.0  0.20200  0.49911  0.54425  1.0000
  H   H987      1.0  0.38002  0.95794  0.71312  1.0000
  H   H988      1.0  0.19978  0.80217  0.73317  1.0000
  H   H989      1.0  0.99467  0.58506  0.51142  1.0000
  H   H990      1.0  0.48051  0.77763  0.57043  1.0000
  C   C1251     1.0  0.41556  0.79883  0.72838  1.0000
  C   C1252     1.0  0.40501  0.96886  0.56577  1.0000
  H   H991      1.0  0.36682  0.78970  0.73475  1.0000
  H   H992      1.0  0.48872  0.75394  0.71886  1.0000
  C   C1253     1.0  0.18740  0.50100  0.70672  1.0000
  C   C1254     1.0  0.47575  0.82917  0.55551  1.0000
  C   C1255     1.0  0.48049  0.75889  0.57247  1.0000
  P   P41       1.0  0.41428  0.76864  0.73592  1.0000
  H   H993      1.0  0.15719  0.49640  0.66236  1.0000
  H   H994      1.0  0.42901  0.95290  0.49499  1.0000
  C   C1256     1.0  0.36573  0.95871  0.57399  1.0000
  H   H995      1.0  0.23021  0.77140  0.74120  1.0000
  H   H996      1.0  0.30952  0.89262  0.73954  1.0000
  H   H997      1.0  0.06126  0.65039  0.74015  1.0000
  C   C1257     1.0  0.36579  0.95385  0.74017  1.0000
  H   H998      1.0  0.36934  0.93173  0.54135  1.0000
  C   C1258     1.0  0.38136  0.96924  0.56175  1.0000
  H   H999      1.0  0.34169  0.90590  0.52958  1.0000
  H   H1000     1.0  0.39493  0.94988  0.51568  1.0000
  H   H1001     1.0  0.34739  0.95888  0.57118  1.0000
  C   C1259     1.0  0.35417  0.93941  0.53463  1.0000
  C   C1260     1.0  0.15047  0.49003  0.53045  1.0000
  C   C1261     1.0  0.33853  0.92466  0.52798  1.0000
  C   C1262     1.0  0.42292  0.96767  0.50295  1.0000
  C   C1263     1.0  0.40353  0.96601  0.51475  1.0000
  H   H1002     1.0  0.30758  0.92256  0.51302  1.0000
  C   C1264     1.0  0.31920  0.93402  0.51877  1.0000
  C   C1265     1.0  0.35040  0.96375  0.53237  1.0000
  P   P42       1.0  0.37102  0.98255  0.54092  1.0000
  C   C1266     1.0  0.39539  0.98504  0.52503  1.0000
  C   C1267     1.0  0.33094  0.97298  0.52302  1.0000
  C   C1268     1.0  0.47284  0.86719  0.49283  1.0000
  H   H1003     1.0  0.30078  0.96532  0.50871  1.0000
  C   C1269     1.0  0.35181  0.80195  0.49196  1.0000
  C   C1270     1.0  0.31672  0.73514  0.74162  1.0000
  H   H1004     1.0  0.05572  0.68034  0.86277  1.0000
  H   H1005     1.0  0.01135  0.73389  0.74534  1.0000
  H   H1006     1.0  0.31091  0.98420  0.76228  1.0000
  C   C1271     1.0  0.00807  0.55712  0.95306  1.0000
  Fe  Fe84      1.0  0.35199  0.88153  0.97042  1.0000
  S   S169      1.0  0.33314  0.86429  0.94839  1.0000
  S   S170      1.0  0.37164  0.91366  0.96625  1.0000
  Fe  Fe85      1.0  0.30136  0.88136  0.84223  1.0000
  S   S171      1.0  0.26227  0.88769  0.84197  1.0000
  S   S172      1.0  0.32594  0.89044  0.86416  1.0000
  Fe  Fe86      1.0  0.30467  0.87108  0.80110  1.0000
  S   S173      1.0  0.26602  0.87811  0.79820  1.0000
  S   S174      1.0  0.33332  0.86075  0.77988  1.0000
  Fe  Fe87      1.0  0.26908  0.90878  0.81622  1.0000
  S   S175      1.0  0.25261  0.94605  0.81182  1.0000
  Fe  Fe88      1.0  0.26244  0.85651  0.82406  1.0000
  S   S176      1.0  0.24325  0.82246  0.82706  1.0000
  S   S177      1.0  0.30766  0.90316  0.81695  1.0000
  S   S178      1.0  0.30138  0.84884  0.82645  1.0000
  C   C1272     1.0  0.45514  0.77481  0.75409  1.0000
  H   H1007     1.0  0.19198  0.83634  0.75233  1.0000
  C   C1273     1.0  0.35571  0.93242  0.79495  1.0000
  H   H1008     1.0  0.12744  0.69165  0.75178  1.0000
  C   C1274     1.0  0.39847  0.97072  0.95116  1.0000
  H   H1009     1.0  0.10453  0.62338  0.87582  1.0000
  Fe  Fe89      1.0  0.09631  0.63123  0.97069  1.0000
  S   S179      1.0  0.09214  0.65806  0.94697  1.0000
  S   S180      1.0  0.08462  0.59456  0.97171  1.0000
  Fe  Fe90      1.0  0.13567  0.69891  0.80191  1.0000
  S   S181      1.0  0.11160  0.73107  0.79787  1.0000
  S   S182      1.0  0.15993  0.67983  0.78095  1.0000
  Fe  Fe91      1.0  0.12751  0.69943  0.84373  1.0000
  S   S183      1.0  0.10363  0.73209  0.84206  1.0000
  S   S184      1.0  0.13919  0.67723  0.86852  1.0000
  Fe  Fe92      1.0  0.08713  0.71534  0.81910  1.0000
  S   S185      1.0  0.04797  0.70734  0.81966  1.0000
  Fe  Fe93      1.0  0.13002  0.74516  0.82110  1.0000
  S   S186      1.0  0.14271  0.78237  0.81875  1.0000
  S   S187      1.0  0.11057  0.68218  0.82164  1.0000
  S   S188      1.0  0.15470  0.71361  0.82434  1.0000
  C   C1275     1.0  0.01080  0.73757  0.80768  1.0000
  C   C1276     1.0  0.01801  0.71566  0.81513  1.0000
  C   C1277     1.0  0.26547  0.80344  0.87266  1.0000
  H   H1010     1.0  0.02352  0.75018  0.80458  1.0000
  H   H1011     1.0  0.00597  0.68284  0.82530  1.0000
  C   C1278     1.0  0.42215  0.97032  0.95477  1.0000
  C   C1279     1.0  0.16078  0.67441  0.75743  1.0000
  C   C1280     1.0  0.05744  0.75448  0.77661  1.0000
  C   C1281     1.0  0.10553  0.66287  0.92516  1.0000
  C   C1282     1.0  0.09710  0.68200  0.91428  1.0000
  C   C1283     1.0  0.10681  0.68643  0.89685  1.0000
  C   C1284     1.0  0.12556  0.67209  0.89018  1.0000
  C   C1285     1.0  0.13423  0.65318  0.90114  1.0000
  C   C1286     1.0  0.12418  0.64845  0.91843  1.0000
  H   H1012     1.0  0.08305  0.69363  0.91940  1.0000
  H   H1013     1.0  0.09999  0.70110  0.88869  1.0000
  H   H1014     1.0  0.14879  0.64202  0.89618  1.0000
  H   H1015     1.0  0.13099  0.63377  0.92659  1.0000
  C   C1287     1.0  0.46827  0.72714  0.75656  1.0000
  H   H1016     1.0  0.19914  0.72866  0.80632  1.0000
  H   H1017     1.0  0.18578  0.85525  0.90437  1.0000
  H   H1018     1.0  0.48663  0.77930  0.76787  1.0000
  C   C1288     1.0  0.99083  0.67977  0.92321  1.0000
  C   C1289     1.0  0.37184  0.97439  0.90289  1.0000
  H   H1019     1.0  0.25703  0.94838  0.85403  1.0000
  C   C1290     1.0  0.21533  0.81168  0.82376  1.0000
  C   C1291     1.0  0.19617  0.82597  0.81802  1.0000
  C   C1292     1.0  0.17425  0.81669  0.81646  1.0000
  C   C1293     1.0  0.17115  0.79289  0.82023  1.0000
  C   C1294     1.0  0.19049  0.77846  0.82547  1.0000
  C   C1295     1.0  0.21230  0.78783  0.82733  1.0000
  H   H1020     1.0  0.19812  0.84427  0.81504  1.0000
  H   H1021     1.0  0.15952  0.82810  0.81239  1.0000
  H   H1022     1.0  0.18852  0.76018  0.82851  1.0000
  H   H1023     1.0  0.22693  0.77646  0.83166  1.0000
  C   C1296     1.0  0.33154  0.84919  0.75816  1.0000
  C   C1297     1.0  0.00081  0.69981  0.81942  1.0000
  H   H1024     1.0  0.43248  0.95381  0.95480  1.0000
  H   H1025     1.0  0.36758  0.90190  0.78014  1.0000
  H   H1026     1.0  0.29447  0.84635  0.75920  1.0000
  C   C1298     1.0  0.26580  0.97294  0.81435  1.0000
  H   H1027     1.0  0.29935  0.95761  0.82166  1.0000
  H   H1028     1.0  0.07092  0.54153  0.94647  1.0000
  C   C1299     1.0  0.33050  0.87286  0.92521  1.0000
  C   C1300     1.0  0.34394  0.88975  0.91673  1.0000
  C   C1301     1.0  0.34212  0.89500  0.89812  1.0000
  C   C1302     1.0  0.32660  0.88379  0.88777  1.0000
  C   C1303     1.0  0.31275  0.86733  0.89632  1.0000
  C   C1304     1.0  0.31488  0.86177  0.91487  1.0000
  H   H1029     1.0  0.35610  0.89837  0.92443  1.0000
  H   H1030     1.0  0.35298  0.90768  0.89170  1.0000
  H   H1031     1.0  0.30071  0.85861  0.88858  1.0000
  H   H1032     1.0  0.30447  0.84867  0.92128  1.0000
  H   H1033     1.0  0.04200  0.63405  0.90858  1.0000
  C   C1305     1.0  0.28124  0.92902  0.76931  1.0000
  C   C1306     1.0  0.08032  0.52616  0.94119  1.0000
  C   C1307     1.0  0.01382  0.67657  0.91622  1.0000
  C   C1308     1.0  0.03216  0.67396  0.92819  1.0000
  C   C1309     1.0  0.31760  0.96531  0.94591  1.0000
  C   C1310     1.0  0.00309  0.51943  0.96816  1.0000
  C   C1311     1.0  0.35903  0.95697  0.87625  1.0000
  H   H1034     1.0  0.14480  0.67732  0.97754  1.0000
  H   H1035     1.0  0.42980  0.94053  0.75386  1.0000
  C   C1312     1.0  0.32419  0.96642  0.92764  1.0000
  C   C1313     1.0  0.35212  0.84574  0.74748  1.0000
  H   H1036     1.0  0.40903  0.81221  0.75505  1.0000
  C   C1314     1.0  0.02758  0.67413  0.94675  1.0000
  H   H1037     1.0  0.21472  0.83971  0.77961  1.0000
  H   H1038     1.0  0.18533  0.72229  0.76209  1.0000
  C   C1315     1.0  0.03453  0.72168  0.89570  1.0000
  C   C1316     1.0  0.16207  0.84251  0.86900  1.0000
  H   H1039     1.0  0.15607  0.75459  0.75552  1.0000
  H   H1040     1.0  0.26402  0.93307  0.77529  1.0000
  C   C1317     1.0  0.07368  0.62640  0.89322  1.0000
  P   P43       1.0  0.01982  0.67699  0.89213  1.0000
  H   H1041     1.0  0.28507  0.92277  0.87152  1.0000
  C   C1318     1.0  0.36516  0.90941  0.79325  1.0000
  C   C1319     1.0  0.35439  0.97186  0.89061  1.0000
  C   C1320     1.0  0.37060  0.94831  0.75823  1.0000
  C   C1321     1.0  0.39319  0.96132  0.90134  1.0000
  C   C1322     1.0  0.39737  0.94589  0.88736  1.0000
  C   C1323     1.0  0.13564  0.50344  0.98599  1.0000
  C   C1324     1.0  0.38037  0.94386  0.87474  1.0000
  H   H1042     1.0  0.32314  0.95021  0.95427  1.0000
  H   H1043     1.0  0.00249  0.57060  0.94329  1.0000
  C   C1325     1.0  0.07977  0.67055  0.77241  1.0000
  C   C1326     1.0  0.17051  0.87378  0.84752  1.0000
  C   C1327     1.0  0.99408  0.69489  0.76828  1.0000
  H   H1044     1.0  0.14937  0.83325  0.87706  1.0000
  H   H1045     1.0  0.05006  0.67182  0.92327  1.0000
  H   H1046     1.0  0.01303  0.70231  0.85741  1.0000
  H   H1047     1.0  0.29873  0.72836  0.76692  1.0000
  C   C1328     1.0  0.29935  0.73968  0.75496  1.0000
  H   H1048     1.0  0.02424  0.66798  0.78977  1.0000
  H   H1049     1.0  0.03554  0.57654  0.96254  1.0000
  C   C1329     1.0  0.10319  0.50727  0.91721  1.0000
  H   H1050     1.0  0.07925  0.61176  0.90197  1.0000
  P   P44       1.0  0.04070  0.69271  0.75660  1.0000
  C   C1330     1.0  0.47568  0.76691  0.76247  1.0000
  H   H1051     1.0  0.40637  0.96295  0.91111  1.0000
  C   C1331     1.0  0.34091  0.97989  0.77912  1.0000
  H   H1052     1.0  0.31633  0.81536  0.79710  1.0000
  C   C1332     1.0  0.18649  0.73205  0.74936  1.0000
  H   H1053     1.0  0.33452  0.95182  0.92200  1.0000
  C   C1333     1.0  0.09061  0.52696  0.92389  1.0000
  C   C1334     1.0  0.02448  0.70651  0.88441  1.0000
  H   H1054     1.0  0.01097  0.63070  0.87967  1.0000
  C   C1335     1.0  0.05450  0.65019  0.80096  1.0000
  C   C1336     1.0  0.08790  0.63286  0.87848  1.0000
  C   C1337     1.0  0.16978  0.75014  0.74557  1.0000
  P   P45       1.0  0.32648  0.98791  0.89341  1.0000
  C   C1338     1.0  0.47766  0.97703  0.94345  1.0000
  H   H1055     1.0  0.29736  0.95306  0.78527  1.0000
  C   C1339     1.0  0.28455  0.91197  0.75644  1.0000
  C   C1340     1.0  0.05732  0.73082  0.77299  1.0000
  C   C1341     1.0  0.03520  0.75121  0.87163  1.0000
  H   H1056     1.0  0.02233  0.74160  0.84643  1.0000
  H   H1057     1.0  0.38354  0.93177  0.86398  1.0000
  C   C1342     1.0  0.35629  0.92699  0.82746  1.0000
  C   C1343     1.0  0.30254  0.95127  0.88149  1.0000
  H   H1058     1.0  0.15662  0.79086  0.94341  1.0000
  H   H1059     1.0  0.07000  0.76028  0.78559  1.0000
  H   H1060     1.0  0.06987  0.71857  0.77929  1.0000
  C   C1344     1.0  0.37138  0.75281  0.77936  1.0000
  C   C1345     1.0  0.35043  0.76516  0.77509  1.0000
  C   C1346     1.0  0.34897  0.77861  0.75909  1.0000
  C   C1347     1.0  0.99624  0.53672  0.95520  1.0000
  C   C1348     1.0  0.38960  0.76747  0.75159  1.0000
  C   C1349     1.0  0.39093  0.75391  0.76765  1.0000
  C   C1350     1.0  0.24806  0.71947  0.76941  1.0000
  C   C1351     1.0  0.17935  0.84106  0.91273  1.0000
  H   H1061     1.0  0.04769  0.54643  0.98549  1.0000
  H   H1062     1.0  0.34308  0.91219  0.74945  1.0000
  C   C1352     1.0  0.03355  0.54347  0.97684  1.0000
  H   H1063     1.0  0.23686  0.68451  0.76851  1.0000
  C   C1353     1.0  0.48340  0.90622  0.97913  1.0000
  H   H1064     1.0  0.31466  0.93975  0.88897  1.0000
  H   H1065     1.0  0.39067  0.95466  0.94863  1.0000
  C   C1354     1.0  0.31750  0.98621  0.91690  1.0000
  H   H1066     1.0  0.13593  0.86608  0.85690  1.0000
  H   H1067     1.0  0.26078  0.71672  0.75855  1.0000
  H   H1068     1.0  0.04187  0.67190  0.95587  1.0000
  H   H1069     1.0  0.36884  0.89304  0.83754  1.0000
  H   H1070     1.0  0.37245  0.74245  0.79180  1.0000
  H   H1071     1.0  0.33535  0.76427  0.78419  1.0000
  H   H1072     1.0  0.33279  0.78832  0.75575  1.0000
  H   H1073     1.0  0.15346  0.50432  0.98103  1.0000
  H   H1074     1.0  0.40696  0.74421  0.77121  1.0000
  H   H1075     1.0  0.37662  0.87738  0.80713  1.0000
  C   C1355     1.0  0.28566  0.94154  0.87170  1.0000
  C   C1356     1.0  0.32258  0.93523  0.76732  1.0000
  H   H1076     1.0  0.23365  0.79542  0.86103  1.0000
  C   C1357     1.0  0.27563  0.81306  0.88713  1.0000
  C   C1358     1.0  0.24130  0.80245  0.87251  1.0000
  C   C1359     1.0  0.15439  0.86126  0.85773  1.0000
  C   C1360     1.0  0.20558  0.82309  0.75566  1.0000
  C   C1361     1.0  0.36840  0.77957  0.74729  1.0000
  C   C1362     1.0  0.48118  0.97391  0.91097  1.0000
  H   H1077     1.0  0.29435  0.81412  0.88716  1.0000
  C   C1363     1.0  0.28901  0.97371  0.81912  1.0000
  C   C1364     1.0  0.16885  0.84584  0.92956  1.0000
  C   C1365     1.0  0.04081  0.72314  0.76165  1.0000
  H   H1078     1.0  0.99908  0.70648  0.77833  1.0000
  H   H1079     1.0  0.09240  0.65742  0.85630  1.0000
  C   C1366     1.0  0.44094  0.75889  0.74687  1.0000
  C   C1367     1.0  0.02527  0.73622  0.86030  1.0000
  C   C1368     1.0  0.31048  0.84369  0.75120  1.0000
  H   H1080     1.0  0.29901  0.98274  0.96772  1.0000
  C   C1369     1.0  0.08108  0.65213  0.86748  1.0000
  H   H1081     1.0  0.11119  0.50843  0.90386  1.0000
  C   C1370     1.0  0.17353  0.80003  0.91803  1.0000
  C   C1371     1.0  0.18166  0.81813  0.90678  1.0000
  P   P46       1.0  0.19572  0.81223  0.88515  1.0000
  C   C1372     1.0  0.22702  0.81148  0.88664  1.0000
  C   C1373     1.0  0.18769  0.78422  0.87806  1.0000
  C   C1374     1.0  0.16842  0.78238  0.86735  1.0000
  C   C1375     1.0  0.16133  0.76048  0.86333  1.0000
  C   C1376     1.0  0.17353  0.74022  0.86974  1.0000
  C   C1377     1.0  0.19295  0.74185  0.88014  1.0000
  C   C1378     1.0  0.20001  0.76372  0.88431  1.0000
  C   C1379     1.0  0.23734  0.82101  0.90120  1.0000
  C   C1380     1.0  0.26157  0.82170  0.90143  1.0000
  C   C1381     1.0  0.99557  0.66607  0.88113  1.0000
  H   H1082     1.0  0.02639  0.51084  0.98996  1.0000
  C   C1382     1.0  0.18594  0.83577  0.86983  1.0000
  C   C1383     1.0  0.28304  0.75886  0.75297  1.0000
  C   C1384     1.0  0.99588  0.64243  0.87704  1.0000
  C   C1385     1.0  0.09131  0.65603  0.78516  1.0000
  H   H1083     1.0  0.16459  0.88826  0.83873  1.0000
  C   C1386     1.0  0.20202  0.84865  0.85966  1.0000
  H   H1084     1.0  0.17515  0.78217  0.91389  1.0000
  H   H1085     1.0  0.15884  0.79763  0.86184  1.0000
  H   H1086     1.0  0.14648  0.75924  0.85502  1.0000
  H   H1087     1.0  0.16790  0.72327  0.86662  1.0000
  H   H1088     1.0  0.20238  0.72610  0.88509  1.0000
  H   H1089     1.0  0.21484  0.76462  0.89268  1.0000
  H   H1090     1.0  0.22685  0.82823  0.91226  1.0000
  C   C1387     1.0  0.30020  0.94044  0.77487  1.0000
  C   C1388     1.0  0.27034  0.98013  0.86241  1.0000
  H   H1091     1.0  0.08770  0.63507  0.80957  1.0000
  C   C1389     1.0  0.04611  0.65925  0.88644  1.0000
  H   H1092     1.0  0.20686  0.87719  0.84064  1.0000
  H   H1093     1.0  0.22055  0.84422  0.86008  1.0000
  C   C1390     1.0  0.01990  0.71395  0.86663  1.0000
  H   H1094     1.0  0.39801  0.94049  0.77708  1.0000
  C   C1391     1.0  0.23438  0.70113  0.77492  1.0000
  H   H1095     1.0  0.04481  0.64300  0.81239  1.0000
  H   H1096     1.0  0.11686  0.70802  0.98956  1.0000
  H   H1097     1.0  0.04085  0.78881  0.77217  1.0000
  C   C1392     1.0  0.35103  0.94103  0.81220  1.0000
  C   C1393     1.0  0.19430  0.86759  0.84861  1.0000
  S   S189      1.0  0.12734  0.62201  0.98784  1.0000
  H   H1098     1.0  0.11016  0.65321  0.78422  1.0000
  C   C1394     1.0  0.02432  0.73943  0.75408  1.0000
  C   C1395     1.0  0.03976  0.74397  0.88934  1.0000
  C   C1396     1.0  0.05271  0.63932  0.89706  1.0000
  C   C1397     1.0  0.16063  0.82777  0.94061  1.0000
  C   C1398     1.0  0.01071  0.68552  0.75575  1.0000
  P   P47       1.0  0.34719  0.94931  0.77506  1.0000
  H   H1099     1.0  0.35140  0.93310  0.84071  1.0000
  C   C1399     1.0  0.22731  0.78654  0.74938  1.0000
  H   H1100     1.0  0.15248  0.83150  0.95365  1.0000
  H   H1101     1.0  0.04788  0.75542  0.89803  1.0000
  C   C1400     1.0  0.02674  0.56046  0.96384  1.0000
  C   C1401     1.0  0.36597  0.90423  0.82565  1.0000
  H   H1102     1.0  0.19483  0.65631  0.75822  1.0000
  H   H1103     1.0  0.47337  0.70866  0.75751  1.0000
  C   C1402     1.0  0.29068  0.77084  0.81982  1.0000
  C   C1403     1.0  0.30472  0.78952  0.81659  1.0000
  C   C1404     1.0  0.30565  0.80068  0.79959  1.0000
  C   C1405     1.0  0.29244  0.79328  0.78587  1.0000
  C   C1406     1.0  0.27833  0.77449  0.78898  1.0000
  C   C1407     1.0  0.27760  0.76322  0.80604  1.0000
  P   P48       1.0  0.26169  0.76540  0.77084  1.0000
  C   C1408     1.0  0.24053  0.78860  0.76459  1.0000
  C   C1409     1.0  0.21304  0.72599  0.79621  1.0000
  C   C1410     1.0  0.30386  0.98363  0.95349  1.0000
  C   C1411     1.0  0.16298  0.80488  0.93484  1.0000
  H   H1104     1.0  0.41143  0.85339  0.74514  1.0000
  H   H1105     1.0  0.08992  0.67866  0.76167  1.0000
  H   H1106     1.0  0.03891  0.71618  0.90928  1.0000
  H   H1107     1.0  0.36844  0.84996  0.75275  1.0000
  C   C1412     1.0  0.21842  0.82505  0.77099  1.0000
  C   C1413     1.0  0.23576  0.80786  0.77550  1.0000
  C   C1414     1.0  0.21698  0.70434  0.78840  1.0000
  C   C1415     1.0  0.22672  0.74430  0.79079  1.0000
  C   C1416     1.0  0.05542  0.67466  0.77363  1.0000
  C   C1417     1.0  0.04094  0.77056  0.76910  1.0000
  C   C1418     1.0  0.07866  0.64581  0.79942  1.0000
  H   H1108     1.0  0.20612  0.69025  0.79249  1.0000
  H   H1109     1.0  0.28963  0.76252  0.83310  1.0000
  H   H1110     1.0  0.31457  0.79564  0.82735  1.0000
  H   H1111     1.0  0.03978  0.76825  0.86654  1.0000
  H   H1112     1.0  0.26945  0.82935  0.91257  1.0000
  H   H1113     1.0  0.26683  0.74878  0.80888  1.0000
  H   H1114     1.0  0.08910  0.54297  0.91575  1.0000
  C   C1419     1.0  0.48227  0.74310  0.76368  1.0000
  C   C1420     1.0  0.02153  0.52327  0.97924  1.0000
  H   H1115     1.0  0.27622  0.79730  0.86130  1.0000
  C   C1421     1.0  0.24467  0.74109  0.77762  1.0000
  C   C1422     1.0  0.04288  0.66451  0.78810  1.0000
  C   C1423     1.0  0.41192  0.94418  0.75002  1.0000
  H   H1116     1.0  0.24493  0.80954  0.78775  1.0000
  H   H1117     1.0  0.22321  0.76107  0.79681  1.0000
  H   H1118     1.0  0.29305  0.80240  0.77286  1.0000
  H   H1119     1.0  0.16713  0.86358  0.93406  1.0000
  H   H1120     1.0  0.41372  0.93542  0.88637  1.0000
  C   C1424     1.0  0.18048  0.66196  0.74979  1.0000
  C   C1425     1.0  0.26976  0.95594  0.86198  1.0000
  C   C1426     1.0  0.06029  0.66529  0.87139  1.0000
  H   H1121     1.0  0.00113  0.67751  0.96792  1.0000
  C   C1427     1.0  0.44768  0.73497  0.74821  1.0000
  H   H1122     1.0  0.07459  0.50510  0.96520  1.0000
  H   H1123     1.0  0.24545  0.68818  0.99027  1.0000
  H   H1124     1.0  0.01136  0.77545  0.75222  1.0000
  C   C1428     1.0  0.37035  0.89542  0.80854  1.0000
  C   C1429     1.0  0.08253  0.50565  0.95181  1.0000
  C   C1430     1.0  0.30395  0.97555  0.88132  1.0000
  C   C1431     1.0  0.00468  0.67718  0.95355  1.0000
  H   H1125     1.0  0.34225  0.95804  0.81401  1.0000
  C   C1432     1.0  0.02434  0.76303  0.75787  1.0000
  H   H1126     1.0  0.45068  0.79333  0.75317  1.0000
  C   C1433     1.0  0.46364  0.89589  0.98668  1.0000
  H   H1127     1.0  0.34606  0.95520  0.86639  1.0000
  C   C1434     1.0  0.47092  0.98461  0.92615  1.0000
  C   C1435     1.0  0.21001  0.80383  0.74487  1.0000
  C   C1436     1.0  0.39383  0.94399  0.76314  1.0000
  S   S190      1.0  0.13541  0.55132  0.98714  1.0000
  H   H1128     1.0  0.36879  0.98620  0.91383  1.0000
  Fe  Fe94      1.0  0.11389  0.58575  0.99035  1.0000
  C   C1437     1.0  0.14249  0.68171  0.74627  1.0000
  H   H1129     1.0  0.47585  0.97980  0.89767  1.0000
  H   H1130     1.0  0.26991  0.90280  0.75245  1.0000
  C   C1438     1.0  0.12246  0.52419  0.99014  1.0000
  C   C1439     1.0  0.32585  0.91766  0.75470  1.0000
  H   H1131     1.0  0.37055  0.98232  0.79578  1.0000
  Fe  Fe95      1.0  0.39786  0.89677  0.98545  1.0000
  C   C1440     1.0  0.14614  0.68276  0.99122  1.0000
  S   S191      1.0  0.43587  0.90382  0.97753  1.0000
  S   S192      1.0  0.37935  0.86333  0.98806  1.0000
  H   H1132     1.0  0.43700  0.72232  0.74284  1.0000
  C   C1441     1.0  0.30685  0.90630  0.74914  1.0000
  H   H1133     1.0  0.48132  0.91841  0.96783  1.0000
  C   C1442     1.0  0.47080  0.97383  0.98327  1.0000
  H   H1134     1.0  0.43813  0.95733  0.98746  1.0000
  Fe  Fe96      1.0  0.35199  0.92584  0.99104  1.0000
  C   C1443     1.0  0.00380  0.67020  0.74308  1.0000
  H   H1135     1.0  0.32909  0.72019  0.74311  1.0000
  Fe  Fe97      1.0  0.62562  0.13493  0.01082  1.0000
  S   S193      1.0  0.64650  0.15095  0.03218  1.0000
  S   S194      1.0  0.60870  0.10123  0.01472  1.0000
  Fe  Fe98      1.0  0.67719  0.13003  0.17997  1.0000
  S   S195      1.0  0.71367  0.11510  0.18445  1.0000
  S   S196      1.0  0.64938  0.14422  0.20056  1.0000
  Fe  Fe99      1.0  0.68354  0.12460  0.13851  1.0000
  S   S197      1.0  0.72101  0.11113  0.14096  1.0000
  S   S198      1.0  0.66119  0.11871  0.11439  1.0000
  Fe  Fe100     1.0  0.70751  0.08840  0.16388  1.0000
  S   S199      1.0  0.72064  0.04982  0.16170  1.0000
  Fe  Fe101     1.0  0.72400  0.13919  0.16116  1.0000
  S   S200      1.0  0.75500  0.16006  0.16848  1.0000
  S   S201      1.0  0.67028  0.10153  0.16127  1.0000
  S   S202      1.0  0.68729  0.15440  0.15708  1.0000
  Fe  Fe102     1.0  0.86993  0.38960  0.01166  1.0000
  S   S203      1.0  0.88439  0.42422  0.01535  1.0000
  S   S204      1.0  0.85063  0.36894  0.03390  1.0000
  C   C1444     1.0  0.67289  0.21146  0.08705  1.0000
  Fe  Fe103     1.0  0.83925  0.27378  0.15387  1.0000
  S   S205      1.0  0.82771  0.31216  0.15302  1.0000
  S   S206      1.0  0.81175  0.24967  0.14447  1.0000
  Fe  Fe104     1.0  0.88878  0.28485  0.16499  1.0000
  S   S207      1.0  0.87899  0.32331  0.16564  1.0000
  S   S208      1.0  0.92592  0.26831  0.16957  1.0000
  Fe  Fe105     1.0  0.84520  0.31348  0.17961  1.0000
  S   S209      1.0  0.82256  0.33364  0.20113  1.0000
  Fe  Fe106     1.0  0.86232  0.31864  0.13909  1.0000
  S   S210      1.0  0.87376  0.34460  0.11648  1.0000
  S   S211      1.0  0.85585  0.27493  0.18078  1.0000
  S   S212      1.0  0.87297  0.28035  0.13819  1.0000
  C   C1445     1.0  0.95398  0.28019  0.16804  1.0000
  C   C1446     1.0  0.96317  0.31401  0.06222  1.0000
  C   C1447     1.0  0.95679  0.30400  0.16493  1.0000
  H   H1136     1.0  0.76660  0.14888  0.23099  1.0000
  H   H1137     1.0  0.94159  0.31589  0.16316  1.0000
  H   H1138     1.0  0.56929  0.07096  0.05987  1.0000
  C   C1448     1.0  0.82183  0.33535  0.22510  1.0000
  C   C1449     1.0  0.77182  0.42162  0.24051  1.0000
  H   H1139     1.0  0.93759  0.27613  0.01276  1.0000
  H   H1140     1.0  0.79003  0.35750  0.22557  1.0000
  C   C1450     1.0  0.85777  0.36209  0.05672  1.0000
  C   C1451     1.0  0.87582  0.37220  0.06499  1.0000
  C   C1452     1.0  0.88056  0.36643  0.08318  1.0000
  C   C1453     1.0  0.86742  0.35045  0.09338  1.0000
  C   C1454     1.0  0.84961  0.34012  0.08503  1.0000
  C   C1455     1.0  0.84479  0.34600  0.06688  1.0000
  H   H1141     1.0  0.88589  0.38466  0.05742  1.0000
  H   H1142     1.0  0.89436  0.37454  0.08947  1.0000
  H   H1143     1.0  0.83929  0.32788  0.09264  1.0000
  H   H1144     1.0  0.83080  0.33805  0.06068  1.0000
  C   C1456     1.0  0.76990  0.18556  0.16180  1.0000
  C   C1457     1.0  0.78774  0.19231  0.17253  1.0000
  C   C1458     1.0  0.80055  0.21187  0.16762  1.0000
  C   C1459     1.0  0.79587  0.22498  0.15176  1.0000
  C   C1460     1.0  0.77778  0.21842  0.14119  1.0000
  C   C1461     1.0  0.76484  0.19898  0.14617  1.0000
  H   H1145     1.0  0.79182  0.18222  0.18469  1.0000
  H   H1146     1.0  0.81427  0.21661  0.17598  1.0000
  H   H1147     1.0  0.77387  0.22840  0.12894  1.0000
  H   H1148     1.0  0.75124  0.19416  0.13774  1.0000
  C   C1462     1.0  0.65172  0.15324  0.22309  1.0000
  C   C1463     1.0  0.64041  0.04197  0.14041  1.0000
  C   C1464     1.0  0.60670  0.25063  0.13832  1.0000
  H   H1149     1.0  0.61535  0.16480  0.22559  1.0000
  H   H1150     1.0  0.68822  0.14340  0.22520  1.0000
  C   C1465     1.0  0.84663  0.41894  0.19940  1.0000
  C   C1466     1.0  0.68681  0.01981  0.17422  1.0000
  C   C1467     1.0  0.70871  0.02219  0.16577  1.0000
  C   C1468     1.0  0.72209  0.00187  0.16074  1.0000
  C   C1469     1.0  0.97928  0.31255  0.16450  1.0000
  P   P49       1.0  0.96851  0.31896  0.09893  1.0000
  H   H1151     1.0  0.67631  0.03517  0.17823  1.0000
  H   H1152     1.0  0.73914  0.00343  0.15434  1.0000
  C   C1470     1.0  0.65173  0.13995  0.05446  1.0000
  C   C1471     1.0  0.63762  0.12393  0.06335  1.0000
  C   C1472     1.0  0.64106  0.11744  0.08158  1.0000
  C   C1473     1.0  0.65875  0.12660  0.09113  1.0000
  C   C1474     1.0  0.67338  0.14188  0.08204  1.0000
  C   C1475     1.0  0.66969  0.14874  0.06391  1.0000
  H   H1153     1.0  0.62363  0.11710  0.05634  1.0000
  H   H1154     1.0  0.62969  0.10552  0.08844  1.0000
  H   H1155     1.0  0.68737  0.14867  0.08902  1.0000
  H   H1156     1.0  0.68070  0.16114  0.05721  1.0000
  H   H1157     1.0  0.77740  0.07429  0.16091  1.0000
  H   H1158     1.0  0.93980  0.34945  0.02890  1.0000
  H   H1159     1.0  0.70304  0.05765  0.19782  1.0000
  H   H1160     1.0  0.69366  0.02689  0.01898  1.0000
  H   H1161     1.0  0.95667  0.24680  0.13566  1.0000
  H   H1162     1.0  0.49829  0.08984  0.01487  1.0000
  C   C1476     1.0  0.68966  0.04546  0.01931  1.0000
  C   C1477     1.0  0.64466  0.19206  0.10648  1.0000
  H   H1163     1.0  0.62478  0.17462  0.15086  1.0000
  C   C1478     1.0  0.95643  0.32154  0.04500  1.0000
  S   S213      1.0  0.94968  0.41609  0.01249  1.0000
  C   C1479     1.0  0.94995  0.40626  0.09439  1.0000
  C   C1480     1.0  0.74920  0.41418  0.24160  1.0000
  H   H1164     1.0  0.62939  0.23566  0.11776  1.0000
  H   H1165     1.0  0.77810  0.01976  0.20624  1.0000
  H   H1166     1.0  0.89851  0.47931  0.99912  1.0000
  S   S214      1.0  0.90258  0.37335  0.99854  1.0000
  H   H1167     1.0  0.58369  0.01111  0.06476  1.0000
  C   C1481     1.0  0.57688  0.22656  0.15095  1.0000
  C   C1482     1.0  0.80521  0.27414  0.23292  1.0000
  C   C1483     1.0  0.74561  0.20530  0.22526  1.0000
  C   C1484     1.0  0.77390  0.07975  0.17457  1.0000
  H   H1168     1.0  0.78479  0.30242  0.22038  1.0000
  H   H1169     1.0  0.66188  0.99580  0.18461  1.0000
  C   C1485     1.0  0.68504  0.22122  0.24078  1.0000
  C   C1486     1.0  0.63531  0.02197  0.15063  1.0000
  C   C1487     1.0  0.95914  0.32873  0.07679  1.0000
  H   H1170     1.0  0.78575  0.11414  0.16920  1.0000
  C   C1488     1.0  0.95025  0.25823  0.12477  1.0000
  C   C1489     1.0  0.96293  0.27697  0.11855  1.0000
  H   H1171     1.0  0.67420  0.11212  0.01803  1.0000
  C   C1490     1.0  0.56096  0.19489  0.07862  1.0000
  C   C1491     1.0  0.60491  0.99478  0.08561  1.0000
  C   C1492     1.0  0.76173  0.26260  0.18420  1.0000
  C   C1493     1.0  0.75798  0.28475  0.19116  1.0000
  C   C1494     1.0  0.73934  0.28948  0.20336  1.0000
  C   C1495     1.0  0.72431  0.27211  0.20851  1.0000
  C   C1496     1.0  0.72755  0.24994  0.20114  1.0000
  C   C1497     1.0  0.74668  0.24523  0.18919  1.0000
  P   P50       1.0  0.70827  0.22707  0.20723  1.0000
  C   C1498     1.0  0.68722  0.23521  0.22497  1.0000
  C   C1499     1.0  0.69120  0.22020  0.18851  1.0000
  C   C1500     1.0  0.69707  0.22762  0.17080  1.0000
  C   C1501     1.0  0.68304  0.22283  0.15667  1.0000
  C   C1502     1.0  0.66305  0.21072  0.16010  1.0000
  C   C1503     1.0  0.65726  0.20300  0.17762  1.0000
  C   C1504     1.0  0.67125  0.20770  0.19177  1.0000
  H   H1172     1.0  0.95990  0.31027  0.03380  1.0000
  C   C1505     1.0  0.76170  0.01160  0.20740  1.0000
  C   C1506     1.0  0.71410  0.06800  0.22355  1.0000
  C   C1507     1.0  0.67123  0.25449  0.22226  1.0000
  H   H1173     1.0  0.70045  0.01314  0.10991  1.0000
  C   C1508     1.0  0.72653  0.20208  0.21468  1.0000
  P   P51       1.0  0.74285  0.05359  0.22091  1.0000
  H   H1174     1.0  0.77614  0.12721  0.19989  1.0000
  C   C1509     1.0  0.75533  0.16369  0.22662  1.0000
  C   C1510     1.0  0.73631  0.16036  0.21617  1.0000
  C   C1511     1.0  0.72198  0.17945  0.21015  1.0000
  H   H1175     1.0  0.77636  0.25895  0.17486  1.0000
  H   H1176     1.0  0.76976  0.29813  0.18719  1.0000
  H   H1177     1.0  0.73671  0.30661  0.20893  1.0000
  H   H1178     1.0  0.71047  0.27612  0.21833  1.0000
  H   H1179     1.0  0.74995  0.22811  0.18364  1.0000
  H   H1180     1.0  0.71239  0.23704  0.16773  1.0000
  H   H1181     1.0  0.68783  0.22836  0.14302  1.0000
  H   H1182     1.0  0.65233  0.20692  0.14914  1.0000
  H   H1183     1.0  0.64219  0.19293  0.18030  1.0000
  H   H1184     1.0  0.66656  0.20131  0.20524  1.0000
  C   C1512     1.0  0.70781  0.08131  0.23862  1.0000
  C   C1513     1.0  0.52411  0.17001  0.23654  1.0000
  C   C1514     1.0  0.78563  0.28972  0.23153  1.0000
  C   C1515     1.0  0.72058  0.01271  0.21583  1.0000
  H   H1185     1.0  0.56816  0.03052  0.00241  1.0000
  H   H1186     1.0  0.85457  0.41467  0.18639  1.0000
  H   H1187     1.0  0.53025  0.16545  0.22310  1.0000
  H   H1188     1.0  0.97957  0.38142  0.14110  1.0000
  H   H1189     1.0  0.73287  0.14301  0.21238  1.0000
  H   H1190     1.0  0.70763  0.17638  0.20180  1.0000
  C   C1516     1.0  0.61694  0.13895  0.15481  1.0000
  C   C1517     1.0  0.60471  0.14125  0.11877  1.0000
  C   C1518     1.0  0.61254  0.16104  0.12647  1.0000
  H   H1191     1.0  0.74951  0.22264  0.22880  1.0000
  C   C1519     1.0  0.59400  0.17535  0.06305  1.0000
  H   H1192     1.0  0.56060  0.18319  0.05144  1.0000
  P   P52       1.0  0.66469  0.03771  0.05198  1.0000
  C   C1520     1.0  0.67982  0.04251  0.07233  1.0000
  C   C1521     1.0  0.67587  0.05544  0.03340  1.0000
  H   H1193     1.0  0.78951  0.06432  0.23196  1.0000
  C   C1522     1.0  0.92865  0.35636  0.13595  1.0000
  H   H1194     1.0  0.60172  0.16717  0.05113  1.0000
  H   H1195     1.0  0.93156  0.42477  0.05301  1.0000
  C   C1523     1.0  0.57420  0.19631  0.09385  1.0000
  C   C1524     1.0  0.68451  0.06515  0.07690  1.0000
  C   C1525     1.0  0.69487  0.06891  0.09312  1.0000
  C   C1526     1.0  0.70072  0.05018  0.10495  1.0000
  C   C1527     1.0  0.69626  0.02760  0.10055  1.0000
  C   C1528     1.0  0.68579  0.02378  0.08438  1.0000
  C   C1529     1.0  0.63426  0.04753  0.05493  1.0000
  C   C1530     1.0  0.62528  0.05634  0.07131  1.0000
  C   C1531     1.0  0.60190  0.06459  0.07314  1.0000
  C   C1532     1.0  0.58731  0.06419  0.05863  1.0000
  C   C1533     1.0  0.59614  0.05564  0.04226  1.0000
  C   C1534     1.0  0.61959  0.04773  0.04031  1.0000
  C   C1535     1.0  0.60391  0.21165  0.12751  1.0000
  C   C1536     1.0  0.66300  0.18147  0.11635  1.0000
  H   H1196     1.0  0.85316  0.31367  0.22950  1.0000
  C   C1537     1.0  0.64927  0.99478  0.04201  1.0000
  C   C1538     1.0  0.63400  0.00030  0.12333  1.0000
  H   H1197     1.0  0.98106  0.33104  0.16243  1.0000
  H   H1198     1.0  0.57620  0.19255  0.14024  1.0000
  H   H1199     1.0  0.56616  0.20435  0.10564  1.0000
  C   C1539     1.0  0.69821  0.06710  0.20983  1.0000
  C   C1540     1.0  0.67264  0.15059  0.23211  1.0000
  H   H1200     1.0  0.67978  0.08010  0.06827  1.0000
  H   H1201     1.0  0.69802  0.08648  0.09668  1.0000
  H   H1202     1.0  0.70842  0.05321  0.11766  1.0000
  H   H1203     1.0  0.61518  0.26688  0.13785  1.0000
  H   H1204     1.0  0.75969  0.04770  0.18314  1.0000
  H   H1205     1.0  0.63633  0.05751  0.08255  1.0000
  H   H1206     1.0  0.59520  0.07175  0.08571  1.0000
  H   H1207     1.0  0.58494  0.05583  0.03087  1.0000
  H   H1208     1.0  0.62637  0.04198  0.02732  1.0000
  H   H1209     1.0  0.91084  0.35664  0.14134  1.0000
  S   S215      1.0  0.54319  0.10755  0.00781  1.0000
  P   P53       1.0  0.89189  0.29250  0.99997  1.0000
  H   H1210     1.0  0.94252  0.36161  0.08516  1.0000
  C   C1541     1.0  0.60724  0.17674  0.07824  1.0000
  C   C1542     1.0  0.57085  0.18440  0.06323  1.0000
  H   H1211     1.0  0.85506  0.45480  0.19740  1.0000
  C   C1543     1.0  0.67006  0.07956  0.03259  1.0000
  H   H1212     1.0  0.60042  0.14152  0.10476  1.0000
  C   C1544     1.0  0.94435  0.37093  0.14268  1.0000
  C   C1545     1.0  0.77309  0.10953  0.19662  1.0000
  H   H1213     1.0  0.70558  0.00482  0.04976  1.0000
  H   H1214     1.0  0.96575  0.45682  0.03107  1.0000
  C   C1546     1.0  0.82546  0.40729  0.22660  1.0000
  C   C1547     1.0  0.76380  0.06465  0.18731  1.0000
  C   C1548     1.0  0.65417  0.26041  0.23552  1.0000
  H   H1215     1.0  0.64172  0.01986  0.09877  1.0000
  C   C1549     1.0  0.96713  0.41477  0.05931  1.0000
  C   C1550     1.0  0.88907  0.29274  0.02423  1.0000
  C   C1551     1.0  0.89597  0.31200  0.03316  1.0000
  C   C1552     1.0  0.89372  0.31268  0.05190  1.0000
  C   C1553     1.0  0.88416  0.29439  0.06185  1.0000
  C   C1554     1.0  0.87738  0.27508  0.05311  1.0000
  C   C1555     1.0  0.87991  0.27415  0.03436  1.0000
  C   C1556     1.0  0.96282  0.29535  0.99749  1.0000
  H   H1216     1.0  0.56224  0.22412  0.16028  1.0000
  C   C1557     1.0  0.66826  0.00712  0.04663  1.0000
  H   H1217     1.0  0.97353  0.41809  0.04565  1.0000
  C   C1558     1.0  0.83657  0.44697  0.22243  1.0000
  H   H1218     1.0  0.91844  0.24106  0.12322  1.0000
  C   C1559     1.0  0.83892  0.32405  0.23578  1.0000
  C   C1560     1.0  0.97364  0.40094  0.00225  1.0000
  C   C1561     1.0  0.82597  0.42980  0.23320  1.0000
  H   H1219     1.0  0.94317  0.40272  0.10795  1.0000
  H   H1220     1.0  0.54297  0.20182  0.07873  1.0000
  C   C1562     1.0  0.97452  0.35514  0.12208  1.0000
  H   H1221     1.0  0.97904  0.27942  0.12487  1.0000
  C   C1563     1.0  0.92863  0.25503  0.11779  1.0000
  C   C1564     1.0  0.93471  0.41437  0.08103  1.0000
  C   C1565     1.0  0.67864  0.99743  0.17776  1.0000
  H   H1222     1.0  0.90247  0.32680  0.02559  1.0000
  H   H1223     1.0  0.89867  0.32775  0.05870  1.0000
  H   H1224     1.0  0.88156  0.29549  0.07631  1.0000
  H   H1225     1.0  0.86980  0.26099  0.06087  1.0000
  H   H1226     1.0  0.69849  0.09432  0.99335  1.0000
  S   S216      1.0  0.59525  0.15276  0.99609  1.0000
  H   H1227     1.0  0.93043  0.37453  0.05472  1.0000
  C   C1566     1.0  0.75810  0.07191  0.20480  1.0000
  C   C1567     1.0  0.71991  0.98961  0.21085  1.0000
  H   H1228     1.0  0.74013  0.41176  0.22941  1.0000
  C   C1568     1.0  0.97414  0.26511  0.17022  1.0000
  H   H1229     1.0  0.93877  0.38241  0.15344  1.0000
  C   C1569     1.0  0.66984  0.09158  0.22657  1.0000
  H   H1230     1.0  0.58168  0.26130  0.15921  1.0000
  C   C1570     1.0  0.91971  0.27045  0.10444  1.0000
  C   C1571     1.0  0.69103  0.20098  0.09709  1.0000
  C   C1572     1.0  0.68607  0.18606  0.11178  1.0000
  H   H1231     1.0  0.70895  0.20419  0.09338  1.0000
  H   H1232     1.0  0.70016  0.17759  0.11938  1.0000
  H   H1233     1.0  0.65959  0.16933  0.12738  1.0000
  C   C1573     1.0  0.94699  0.35048  0.07403  1.0000
  H   H1234     1.0  0.62507  0.16943  0.07794  1.0000
  C   C1574     1.0  0.96727  0.37039  0.13570  1.0000
  H   H1235     1.0  0.75777  0.10081  0.22258  1.0000
  H   H1236     1.0  0.97172  0.29677  0.06421  1.0000
  H   H1237     1.0  0.62206  0.13794  0.16869  1.0000
  H   H1238     1.0  0.59774  0.10513  0.12286  1.0000
  C   C1575     1.0  0.77855  0.10217  0.17922  1.0000
  H   H1239     1.0  0.67675  0.22283  0.07554  1.0000
  C   C1576     1.0  0.95417  0.29262  0.10509  1.0000
  H   H1240     1.0  0.60327  0.01010  0.09359  1.0000
  C   C1577     1.0  0.97516  0.47282  0.00549  1.0000
  H   H1241     1.0  0.64199  0.27538  0.23343  1.0000
  C   C1578     1.0  0.64978  0.20719  0.09180  1.0000
  H   H1242     1.0  0.66406  0.07826  0.20065  1.0000
  C   C1579     1.0  0.63163  0.16258  0.23240  1.0000
  C   C1580     1.0  0.93591  0.34090  0.12252  1.0000
  H   H1243     1.0  0.87748  0.46851  0.05661  1.0000
  H   H1244     1.0  0.70479  0.02150  0.22126  1.0000
  C   C1581     1.0  0.61853  0.15972  0.14461  1.0000
  C   C1582     1.0  0.93230  0.28924  0.09818  1.0000
  C   C1583     1.0  0.61471  0.23282  0.12691  1.0000
  C   C1584     1.0  0.94506  0.34356  0.04225  1.0000
  C   C1585     1.0  0.58485  0.20871  0.13957  1.0000
  H   H1245     1.0  0.68178  0.00626  0.08166  1.0000
  H   H1246     1.0  0.90256  0.26837  0.09953  1.0000
  C   C1586     1.0  0.97379  0.40223  0.09020  1.0000
  C   C1587     1.0  0.59750  0.18726  0.09374  1.0000
  H   H1247     1.0  0.91617  0.41701  0.08420  1.0000
  H   H1248     1.0  0.92442  0.30164  0.08855  1.0000
  C   C1588     1.0  0.74137  0.02413  0.21368  1.0000
  H   H1249     1.0  0.64341  0.05790  0.14699  1.0000
  C   C1589     1.0  0.69248  0.08350  0.00458  1.0000
  H   H1250     1.0  0.67187  0.26483  0.20979  1.0000
  C   C1590     1.0  0.60311  0.12049  0.12903  1.0000
  C   C1591     1.0  0.96737  0.47311  0.02351  1.0000
  H   H1251     1.0  0.63183  0.00289  0.04181  1.0000
  H   H1252     1.0  0.65859  0.08765  0.04275  1.0000
  C   C1592     1.0  0.60931  0.11931  0.14701  1.0000
  C   C1593     1.0  0.58783  0.24749  0.15035  1.0000
  H   H1253     1.0  0.64709  0.05663  0.11391  1.0000
  H   H1254     1.0  0.63434  0.02241  0.16517  1.0000
  C   C1594     1.0  0.84692  0.44150  0.20564  1.0000
  H   H1255     1.0  0.97230  0.24666  0.17262  1.0000
  C   C1595     1.0  0.64242  0.04121  0.12170  1.0000
  H   H1256     1.0  0.84984  0.26797  0.99699  1.0000
  C   C1596     1.0  0.95898  0.33997  0.11558  1.0000
  H   H1257     1.0  0.83530  0.38437  0.20497  1.0000
  P   P54       1.0  0.61469  0.18807  0.11345  1.0000
  C   C1597     1.0  0.67613  0.07876  0.21139  1.0000
  H   H1258     1.0  0.63593  0.21567  0.08399  1.0000
  H   H1259     1.0  0.92347  0.32951  0.11780  1.0000
  C   C1598     1.0  0.63932  0.02043  0.11320  1.0000
  H   H1260     1.0  0.98530  0.37629  0.04292  1.0000
  C   C1599     1.0  0.94000  0.35784  0.05681  1.0000
  C   C1600     1.0  0.69790  0.05946  0.00498  1.0000
  C   C1601     1.0  0.67866  0.09352  0.01843  1.0000
  C   C1602     1.0  0.83581  0.40186  0.20986  1.0000
  C   C1603     1.0  0.94334  0.41874  0.06350  1.0000
  H   H1261     1.0  0.60863  0.10309  0.15481  1.0000
  C   C1604     1.0  0.80341  0.34871  0.23364  1.0000
  C   C1605     1.0  0.51496  0.11818  0.00107  1.0000
  C   C1606     1.0  0.76272  0.09455  0.20935  1.0000
  Fe  Fe107     1.0  0.57947  0.11788  0.99821  1.0000
  C   C1607     1.0  0.98252  0.40628  0.07256  1.0000
  H   H1262     1.0  0.81666  0.39394  0.23423  1.0000
  Fe  Fe108     1.0  0.91600  0.40865  0.00065  1.0000
  H   H1263     1.0  0.87442  0.25907  0.02792  1.0000
  H   H1264     1.0  0.81926  0.27474  0.22277  1.0000
  C   C1608     1.0  0.59339  0.99533  0.06937  1.0000
  C   C1609     1.0  0.63248  0.00112  0.14219  1.0000
  H   H1265     1.0  0.65288  0.10101  0.22758  1.0000
  C   C1610     1.0  0.76001  0.18617  0.23114  1.0000
  H   H1266     1.0  0.83668  0.46464  0.22673  1.0000
  C   C1611     1.0  0.58604  0.02538  0.99850  1.0000
  H   H1267     1.0  0.85619  0.32682  0.01474  1.0000
  H   H1268     1.0  0.97942  0.45619  0.99947  1.0000
  C   C1612     1.0  0.69062  0.99560  0.04649  1.0000
  C   C1613     1.0  0.59336  0.00177  0.99768  1.0000
  H   H1269     1.0  0.98527  0.39602  0.10074  1.0000
  H   H1270     1.0  0.70797  0.05161  0.99394  1.0000
  H   H1271     1.0  0.77967  0.42538  0.22736  1.0000
  H   H1272     1.0  0.82717  0.35387  0.00041  1.0000
  C   C1614     1.0  0.68566  0.09286  0.24018  1.0000
  H   H1273     1.0  0.77495  0.18881  0.23900  1.0000
  H   H1274     1.0  0.49419  0.14986  0.23617  1.0000
  C   C1615     1.0  0.49566  0.10561  0.00660  1.0000
  C   C1616     1.0  0.92098  0.30071  0.99374  1.0000
  H   H1275     1.0  0.59573  0.06064  0.99439  1.0000
  H   H1276     1.0  0.97760  0.28645  0.00398  1.0000
  C   C1617     1.0  0.60166  0.04245  0.99396  1.0000
  C   C1618     1.0  0.94017  0.28953  0.00237  1.0000
  C   C1619     1.0  0.85510  0.32700  0.00028  1.0000
  H   H1277     1.0  0.90900  0.48582  0.03810  1.0000
  C   C1620     1.0  0.88243  0.48586  0.05926  1.0000
  H   H1278     1.0  0.55225  0.19193  0.24051  1.0000
  C   C1621     1.0  0.86442  0.25675  0.99202  1.0000
  C   C1622     1.0  0.83834  0.34226  0.99217  1.0000
  C   C1623     1.0  0.61649  0.99527  0.99263  1.0000
  C   C1624     1.0  0.88717  0.26411  0.99184  1.0000
  Fe  Fe109     1.0  0.61277  0.19156  0.34428  1.0000
  S   S217      1.0  0.59756  0.22885  0.34056  1.0000
  S   S218      1.0  0.60431  0.16694  0.36877  1.0000
  Fe  Fe110     1.0  0.62989  0.18966  0.30387  1.0000
  S   S219      1.0  0.61479  0.22599  0.29834  1.0000
  S   S220      1.0  0.65446  0.17036  0.28325  1.0000
  Fe  Fe111     1.0  0.63086  0.23540  0.32402  1.0000
  S   S221      1.0  0.65153  0.26825  0.31820  1.0000
  Fe  Fe112     1.0  0.58308  0.21639  0.31521  1.0000
  S   S222      1.0  0.54677  0.22672  0.30412  1.0000
  S   S223      1.0  0.64679  0.19891  0.32931  1.0000
  S   S224      1.0  0.59728  0.17919  0.31909  1.0000
  Fe  Fe113     1.0  0.60951  0.13606  0.47889  1.0000
  S   S225      1.0  0.58359  0.10846  0.48070  1.0000
  S   S226      1.0  0.62500  0.15359  0.45308  1.0000
  C   C1625     1.0  0.67321  0.15636  0.25036  1.0000
  H   H1279     1.0  0.72596  0.43437  0.42791  1.0000
  C   C1626     1.0  0.59898  0.03245  0.39525  1.0000
  C   C1627     1.0  0.78567  0.47093  0.31618  1.0000
  H   H1280     1.0  0.53926  0.07874  0.46965  1.0000
  H   H1281     1.0  0.61915  0.04682  0.46763  1.0000
  Fe  Fe114     1.0  0.76631  0.40458  0.32212  1.0000
  S   S227      1.0  0.80483  0.39591  0.32018  1.0000
  S   S228      1.0  0.74909  0.44133  0.31663  1.0000
  Fe  Fe115     1.0  0.75622  0.35472  0.33579  1.0000
  S   S229      1.0  0.79466  0.34390  0.33526  1.0000
  S   S230      1.0  0.73104  0.32833  0.34800  1.0000
  Fe  Fe116     1.0  0.80015  0.37810  0.34749  1.0000
  S   S231      1.0  0.82631  0.38718  0.36826  1.0000
  Fe  Fe117     1.0  0.79621  0.36237  0.30801  1.0000
  S   S232      1.0  0.81952  0.34253  0.28701  1.0000
  S   S233      1.0  0.76190  0.38794  0.34985  1.0000
  S   S234      1.0  0.75752  0.37194  0.30813  1.0000
  Fe  Fe118     1.0  0.86162  0.38086  0.47382  1.0000
  S   S235      1.0  0.88280  0.41204  0.47026  1.0000
  S   S236      1.0  0.83786  0.36756  0.45292  1.0000
  C   C1628     1.0  0.70602  0.29705  0.26504  1.0000
  C   C1629     1.0  0.77924  0.44844  0.48034  1.0000
  C   C1630     1.0  0.76137  0.27891  0.29833  1.0000
  C   C1631     1.0  0.54470  0.12391  0.43649  1.0000
  H   H1282     1.0  0.68367  0.35339  0.26498  1.0000
  H   H1283     1.0  0.88779  0.46006  0.47484  1.0000
  H   H1284     1.0  0.82540  0.45175  0.29031  1.0000
  H   H1285     1.0  0.50005  0.17635  0.42789  1.0000
  H   H1286     1.0  0.70394  0.41771  0.32680  1.0000
  H   H1287     1.0  0.78106  0.42394  0.28534  1.0000
  C   C1632     1.0  0.63184  0.07956  0.42978  1.0000
  C   C1633     1.0  0.81951  0.33994  0.26316  1.0000
  H   H1288     1.0  0.57812  0.07669  0.45424  1.0000
  H   H1289     1.0  0.67416  0.31435  0.25565  1.0000
  H   H1290     1.0  0.85117  0.31760  0.26267  1.0000
  C   C1634     1.0  0.61797  0.01366  0.43458  1.0000
  C   C1635     1.0  0.76158  0.46893  0.31634  1.0000
  H   H1291     1.0  0.79727  0.45534  0.31660  1.0000
  H   H1292     1.0  0.53772  0.20318  0.27096  1.0000
  C   C1636     1.0  0.82899  0.38175  0.39186  1.0000
  C   C1637     1.0  0.84822  0.38974  0.40030  1.0000
  C   C1638     1.0  0.85116  0.38582  0.41895  1.0000
  C   C1639     1.0  0.83488  0.37378  0.42942  1.0000
  C   C1640     1.0  0.81570  0.36573  0.42095  1.0000
  C   C1641     1.0  0.81270  0.36977  0.40233  1.0000
  H   H1293     1.0  0.86105  0.39889  0.39234  1.0000
  H   H1294     1.0  0.86623  0.39178  0.42515  1.0000
  H   H1295     1.0  0.80320  0.35610  0.42887  1.0000
  H   H1296     1.0  0.79790  0.36353  0.39605  1.0000
  H   H1297     1.0  0.72024  0.44005  0.35007  1.0000
  C   C1642     1.0  0.80225  0.35106  0.25251  1.0000
  C   C1643     1.0  0.80868  0.46735  0.25872  1.0000
  C   C1644     1.0  0.53033  0.04290  0.40372  1.0000
  H   H1298     1.0  0.54021  0.13223  0.46450  1.0000
  H   H1299     1.0  0.57267  0.13691  0.34411  1.0000
  C   C1645     1.0  0.67438  0.28400  0.32657  1.0000
  C   C1646     1.0  0.68302  0.30256  0.31593  1.0000
  C   C1647     1.0  0.70067  0.31591  0.32202  1.0000
  C   C1648     1.0  0.70979  0.31115  0.33901  1.0000
  C   C1649     1.0  0.70127  0.29253  0.34961  1.0000
  C   C1650     1.0  0.68389  0.27892  0.34340  1.0000
  H   H1300     1.0  0.67588  0.30675  0.30289  1.0000
  H   H1301     1.0  0.70682  0.33023  0.31375  1.0000
  H   H1302     1.0  0.70807  0.28864  0.36280  1.0000
  H   H1303     1.0  0.67752  0.26480  0.35180  1.0000
  C   C1651     1.0  0.61809  0.15747  0.42984  1.0000
  C   C1652     1.0  0.60335  0.14319  0.42147  1.0000
  C   C1653     1.0  0.59948  0.14631  0.40284  1.0000
  C   C1654     1.0  0.60997  0.16392  0.39228  1.0000
  C   C1655     1.0  0.62450  0.17829  0.40069  1.0000
  C   C1656     1.0  0.62866  0.17493  0.41924  1.0000
  H   H1304     1.0  0.59541  0.12948  0.42931  1.0000
  H   H1305     1.0  0.58827  0.13504  0.39653  1.0000
  H   H1306     1.0  0.63280  0.19184  0.39286  1.0000
  H   H1307     1.0  0.64022  0.18599  0.42546  1.0000
  C   C1657     1.0  0.51252  0.21165  0.32881  1.0000
  C   C1658     1.0  0.51764  0.22237  0.31207  1.0000
  C   C1659     1.0  0.77586  0.43364  0.38018  1.0000
  H   H1308     1.0  0.52659  0.20543  0.33735  1.0000
  H   H1309     1.0  0.69878  0.19144  0.28684  1.0000
  C   C1660     1.0  0.69577  0.38895  0.34484  1.0000
  C   C1661     1.0  0.65298  0.16516  0.25982  1.0000
  C   C1662     1.0  0.51298  0.02732  0.40701  1.0000
  H   H1310     1.0  0.52510  0.08489  0.36028  1.0000
  H   H1311     1.0  0.68938  0.15365  0.25729  1.0000
  H   H1312     1.0  0.76574  0.33924  0.37572  1.0000
  C   C1663     1.0  0.52529  0.06666  0.40617  1.0000
  C   C1664     1.0  0.78651  0.47837  0.26241  1.0000
  H   H1313     1.0  0.64833  0.46538  0.40001  1.0000
  C   C1665     1.0  0.61103  0.99799  0.44838  1.0000
  H   H1314     1.0  0.70300  0.26389  0.29617  1.0000
  C   C1666     1.0  0.52196  0.22665  0.37751  1.0000
  C   C1667     1.0  0.76760  0.28942  0.24468  1.0000
  C   C1668     1.0  0.83363  0.47527  0.41361  1.0000
  H   H1315     1.0  0.75116  0.38291  0.38981  1.0000
  H   H1316     1.0  0.77090  0.46904  0.26198  1.0000
  H   H1317     1.0  0.51182  0.24064  0.37070  1.0000
  C   C1669     1.0  0.83619  0.45151  0.41848  1.0000
  C   C1670     1.0  0.84070  0.44440  0.43623  1.0000
  C   C1671     1.0  0.84225  0.46100  0.44921  1.0000
  H   H1318     1.0  0.58037  0.09662  0.38144  1.0000
  H   H1319     1.0  0.54690  0.12061  0.40793  1.0000
  C   C1672     1.0  0.66763  0.22693  0.25383  1.0000
  C   C1673     1.0  0.53493  0.13657  0.45088  1.0000
  H   H1320     1.0  0.78752  0.04324  0.28785  1.0000
  H   H1321     1.0  0.80992  0.30137  0.31333  1.0000
  H   H1322     1.0  0.90500  0.33019  0.40728  1.0000
  H   H1323     1.0  0.74306  0.30619  0.38651  1.0000
  C   C1674     1.0  0.74023  0.22768  0.27163  1.0000
  H   H1324     1.0  0.49439  0.11482  0.46672  1.0000
  H   H1325     1.0  0.73280  0.47444  0.40556  1.0000
  C   C1675     1.0  0.49587  0.14206  0.30183  1.0000
  H   H1326     1.0  0.55801  0.09784  0.34057  1.0000
  H   H1327     1.0  0.83477  0.43854  0.40847  1.0000
  H   H1328     1.0  0.84273  0.42601  0.44005  1.0000
  H   H1329     1.0  0.84549  0.45541  0.46300  1.0000
  C   C1676     1.0  0.82846  0.48009  0.26007  1.0000
  C   C1677     1.0  0.75106  0.37995  0.43544  1.0000
  H   H1330     1.0  0.69624  0.20556  0.24294  1.0000
  C   C1678     1.0  0.53828  0.12994  0.41891  1.0000
  S   S237      1.0  0.94657  0.39982  0.47953  1.0000
  C   C1679     1.0  0.59700  0.04948  0.40832  1.0000
  H   H1331     1.0  0.77903  0.41688  0.38703  1.0000
  H   H1332     1.0  0.49683  0.11399  0.25832  1.0000
  C   C1680     1.0  0.84030  0.39996  0.27074  1.0000
  C   C1681     1.0  0.74799  0.38843  0.40348  1.0000
  C   C1682     1.0  0.69583  0.33842  0.26723  1.0000
  C   C1683     1.0  0.72845  0.20726  0.27417  1.0000
  C   C1684     1.0  0.64941  0.09398  0.45575  1.0000
  C   C1685     1.0  0.71493  0.41416  0.37152  1.0000
  C   C1686     1.0  0.53149  0.10195  0.36177  1.0000
  H   H1333     1.0  0.73816  0.40739  0.45276  1.0000
  H   H1334     1.0  0.68923  0.37878  0.33445  1.0000
  H   H1335     1.0  0.55436  0.16312  0.36626  1.0000
  H   H1336     1.0  0.72816  0.03512  0.25616  1.0000
  C   C1687     1.0  0.77850  0.46025  0.46347  1.0000
  C   C1688     1.0  0.78396  0.44823  0.44770  1.0000
  C   C1689     1.0  0.79007  0.42430  0.44865  1.0000
  H   H1337     1.0  0.50154  0.33462  0.34215  1.0000
  C   C1690     1.0  0.53646  0.18501  0.24628  1.0000
  C   C1691     1.0  0.55000  0.10918  0.35068  1.0000
  C   C1692     1.0  0.79497  0.44473  0.37258  1.0000
  H   H1338     1.0  0.53880  0.07868  0.40382  1.0000
  H   H1339     1.0  0.75649  0.36814  0.44643  1.0000
  C   C1693     1.0  0.83386  0.43469  0.28804  1.0000
  H   H1340     1.0  0.79480  0.41497  0.43650  1.0000
  H   H1341     1.0  0.79484  0.39369  0.46601  1.0000
  C   C1694     1.0  0.82998  0.42265  0.27247  1.0000
  C   C1695     1.0  0.50383  0.27580  0.33873  1.0000
  H   H1342     1.0  0.74063  0.41219  0.28699  1.0000
  C   C1696     1.0  0.70790  0.20725  0.28481  1.0000
  H   H1343     1.0  0.70164  0.28020  0.26073  1.0000
  C   C1697     1.0  0.52171  0.14855  0.41564  1.0000
  C   C1698     1.0  0.83978  0.48473  0.44441  1.0000
  P   P55       1.0  0.51488  0.15814  0.39297  1.0000
  C   C1699     1.0  0.52928  0.13893  0.37670  1.0000
  H   H1344     1.0  0.72813  0.48825  0.31600  1.0000
  H   H1345     1.0  0.65227  0.10966  0.42917  1.0000
  H   H1346     1.0  0.62969  0.08095  0.41545  1.0000
  C   C1700     1.0  0.52116  0.11678  0.37470  1.0000
  C   C1701     1.0  0.52567  0.18681  0.38967  1.0000
  H   H1347     1.0  0.49060  0.08087  0.44838  1.0000
  C   C1702     1.0  0.77993  0.05740  0.24354  1.0000
  C   C1703     1.0  0.54487  0.22977  0.38191  1.0000
  C   C1704     1.0  0.55800  0.21169  0.39062  1.0000
  C   C1705     1.0  0.54838  0.19041  0.39466  1.0000
  C   C1706     1.0  0.88534  0.47707  0.48046  1.0000
  C   C1707     1.0  0.51232  0.20531  0.38146  1.0000
  C   C1708     1.0  0.73738  0.41063  0.40690  1.0000
  C   C1709     1.0  0.52833  0.19130  0.26346  1.0000
  C   C1710     1.0  0.50381  0.16100  0.24408  1.0000
  H   H1348     1.0  0.64414  0.01981  0.41357  1.0000
  H   H1349     1.0  0.94030  0.45201  0.47997  1.0000
  H   H1350     1.0  0.51137  0.14348  0.29326  1.0000
  H   H1351     1.0  0.50667  0.11117  0.38304  1.0000
  H   H1352     1.0  0.73520  0.19137  0.26793  1.0000
  C   C1711     1.0  0.49604  0.31699  0.34339  1.0000
  H   H1353     1.0  0.55257  0.24608  0.37844  1.0000
  H   H1354     1.0  0.57591  0.21389  0.39386  1.0000
  H   H1355     1.0  0.55904  0.17647  0.40106  1.0000
  H   H1356     1.0  0.51696  0.00884  0.40527  1.0000
  C   C1712     1.0  0.75649  0.03826  0.27364  1.0000
  H   H1357     1.0  0.64404  0.07451  0.48062  1.0000
  H   H1358     1.0  0.83635  0.21448  0.35610  1.0000
  C   C1713     1.0  0.74999  0.46544  0.36892  1.0000
  H   H1359     1.0  0.50190  0.18760  0.28428  1.0000
  C   C1714     1.0  0.58523  0.07862  0.38531  1.0000
  C   C1715     1.0  0.74558  0.04086  0.25717  1.0000
  C   C1716     1.0  0.79370  0.29289  0.31387  1.0000
  H   H1360     1.0  0.68267  0.22789  0.30068  1.0000
  H   H1361     1.0  0.73391  0.26587  0.31603  1.0000
  H   H1362     1.0  0.87166  0.19813  0.37143  1.0000
  C   C1717     1.0  0.59470  0.03865  0.37726  1.0000
  C   C1718     1.0  0.57459  0.04320  0.44314  1.0000
  C   C1719     1.0  0.56694  0.06259  0.45310  1.0000
  C   C1720     1.0  0.54486  0.06384  0.46172  1.0000
  C   C1721     1.0  0.53025  0.04566  0.46043  1.0000
  C   C1722     1.0  0.53759  0.02639  0.45028  1.0000
  C   C1723     1.0  0.55958  0.02526  0.44150  1.0000
  H   H1363     1.0  0.52636  0.01217  0.44944  1.0000
  H   H1364     1.0  0.77381  0.47878  0.46252  1.0000
  C   C1724     1.0  0.78388  0.42451  0.25624  1.0000
  H   H1365     1.0  0.88311  0.33315  0.43661  1.0000
  H   H1366     1.0  0.58684  0.08569  0.41330  1.0000
  C   C1725     1.0  0.63225  0.16862  0.25059  1.0000
  C   C1726     1.0  0.64037  0.07605  0.46646  1.0000
  C   C1727     1.0  0.78431  0.42417  0.48105  1.0000
  H   H1367     1.0  0.81237  0.43639  0.37358  1.0000
  H   H1368     1.0  0.51562  0.13187  0.32512  1.0000
  C   C1728     1.0  0.54780  0.14607  0.36541  1.0000
  C   C1729     1.0  0.78279  0.28927  0.29791  1.0000
  H   H1369     1.0  0.72036  0.40521  0.25924  1.0000
  H   H1370     1.0  0.51335  0.04640  0.46745  1.0000
  C   C1730     1.0  0.73808  0.41046  0.25837  1.0000
  C   C1731     1.0  0.97204  0.46191  0.46637  1.0000
  C   C1732     1.0  0.78318  0.28668  0.33044  1.0000
  C   C1733     1.0  0.49837  0.13511  0.31989  1.0000
  H   H1371     1.0  0.59679  0.02555  0.36715  1.0000
  H   H1372     1.0  0.72000  0.08314  0.24906  1.0000
  C   C1734     1.0  0.69883  0.22777  0.29262  1.0000
  H   H1373     1.0  0.73269  0.47356  0.36695  1.0000
  P   P56       1.0  0.72814  0.43011  0.38845  1.0000
  C   C1735     1.0  0.73231  0.32170  0.27871  1.0000
  C   C1736     1.0  0.71681  0.34107  0.27546  1.0000
  P   P57       1.0  0.74715  0.27459  0.27761  1.0000
  C   C1737     1.0  0.85912  0.40227  0.29906  1.0000
  H   H1374     1.0  0.75608  0.22716  0.26338  1.0000
  H   H1375     1.0  0.52786  0.30176  0.33115  1.0000
  C   C1738     1.0  0.76917  0.27360  0.25952  1.0000
  H   H1376     1.0  0.51150  0.16527  0.45895  1.0000
  C   C1739     1.0  0.70529  0.39278  0.37593  1.0000
  H   H1377     1.0  0.63904  0.25098  0.26158  1.0000
  C   C1740     1.0  0.76916  0.47654  0.36148  1.0000
  H   H1378     1.0  0.74846  0.32413  0.28514  1.0000
  H   H1379     1.0  0.72103  0.35809  0.27953  1.0000
  H   H1380     1.0  0.74746  0.03070  0.28526  1.0000
  C   C1741     1.0  0.76171  0.27679  0.33102  1.0000
  C   C1742     1.0  0.95358  0.46454  0.47904  1.0000
  H   H1381     1.0  0.70517  0.38558  0.38956  1.0000
  C   C1743     1.0  0.79163  0.46617  0.36326  1.0000
  C   C1744     1.0  0.71441  0.47226  0.40430  1.0000
  H   H1382     1.0  0.54773  0.03650  0.39944  1.0000
  C   C1745     1.0  0.64526  0.09564  0.43741  1.0000
  H   H1383     1.0  0.75287  0.30199  0.24338  1.0000
  C   C1746     1.0  0.50285  0.07491  0.41175  1.0000
  H   H1384     1.0  0.65953  0.10669  0.46169  1.0000
  H   H1385     1.0  0.61655  0.17539  0.25761  1.0000
  H   H1386     1.0  0.83010  0.48026  0.39980  1.0000
  H   H1387     1.0  0.49462  0.20338  0.37790  1.0000
  C   C1747     1.0  0.75451  0.37309  0.41771  1.0000
  C   C1748     1.0  0.51868  0.15528  0.44772  1.0000
  H   H1388     1.0  0.66560  0.21582  0.26580  1.0000
  C   C1749     1.0  0.65243  0.24666  0.25134  1.0000
  H   H1389     1.0  0.97297  0.44726  0.45760  1.0000
  C   C1750     1.0  0.71347  0.42342  0.35385  1.0000
  C   C1751     1.0  0.70409  0.41078  0.34055  1.0000
  C   C1752     1.0  0.58812  0.06176  0.37226  1.0000
  H   H1390     1.0  0.55790  0.10998  0.43895  1.0000
  C   C1753     1.0  0.77254  0.42082  0.27303  1.0000
  H   H1391     1.0  0.85131  0.43400  0.31313  1.0000
  C   C1754     1.0  0.73392  0.41738  0.42480  1.0000
  P   P58       1.0  0.60281  0.04205  0.43158  1.0000
  H   H1392     1.0  0.76243  0.35589  0.41496  1.0000
  C   C1755     1.0  0.79012  0.41229  0.46530  1.0000
  H   H1393     1.0  0.75305  0.27291  0.34388  1.0000
  H   H1394     1.0  0.49929  0.09341  0.41359  1.0000
  H   H1395     1.0  0.51535  0.26154  0.33380  1.0000
  H   H1396     1.0  0.68983  0.36304  0.36580  1.0000
  C   C1756     1.0  0.77906  0.04530  0.27509  1.0000
  C   C1757     1.0  0.85786  0.34669  0.34116  1.0000
  C   C1758     1.0  0.85843  0.33590  0.32468  1.0000
  C   C1759     1.0  0.85489  0.31221  0.32417  1.0000
  C   C1760     1.0  0.85046  0.29932  0.34012  1.0000
  C   C1761     1.0  0.84981  0.31002  0.35680  1.0000
  C   C1762     1.0  0.85350  0.33385  0.35713  1.0000
  P   P59       1.0  0.84184  0.29420  0.37741  1.0000
  C   C1763     1.0  0.81059  0.29790  0.38093  1.0000
  C   C1764     1.0  0.85135  0.26372  0.37560  1.0000
  C   C1765     1.0  0.87135  0.25431  0.38419  1.0000
  C   C1766     1.0  0.87860  0.23074  0.38268  1.0000
  C   C1767     1.0  0.86600  0.21639  0.37258  1.0000
  C   C1768     1.0  0.84612  0.22560  0.36395  1.0000
  C   C1769     1.0  0.83881  0.24915  0.36544  1.0000
  C   C1770     1.0  0.79895  0.31966  0.37717  1.0000
  C   C1771     1.0  0.77471  0.32261  0.37927  1.0000
  C   C1772     1.0  0.76192  0.30396  0.38541  1.0000
  C   C1773     1.0  0.77344  0.28249  0.38994  1.0000
  C   C1774     1.0  0.79772  0.27950  0.38791  1.0000
  C   C1775     1.0  0.85524  0.30600  0.39628  1.0000
  C   C1776     1.0  0.87779  0.31390  0.39437  1.0000
  C   C1777     1.0  0.88783  0.32361  0.40888  1.0000
  C   C1778     1.0  0.87561  0.32517  0.42543  1.0000
  C   C1779     1.0  0.85345  0.31681  0.42754  1.0000
  C   C1780     1.0  0.84323  0.30733  0.41304  1.0000
  H   H1397     1.0  0.86010  0.36519  0.34158  1.0000
  H   H1398     1.0  0.86107  0.34596  0.31225  1.0000
  H   H1399     1.0  0.85497  0.30405  0.31129  1.0000
  H   H1400     1.0  0.84726  0.28117  0.33922  1.0000
  H   H1401     1.0  0.85245  0.34277  0.36970  1.0000
  H   H1402     1.0  0.88142  0.26504  0.39209  1.0000
  H   H1403     1.0  0.89404  0.22360  0.38937  1.0000
  C   C1781     1.0  0.72687  0.29948  0.27374  1.0000
  C   C1782     1.0  0.78905  0.25810  0.26090  1.0000
  H   H1404     1.0  0.82336  0.25600  0.35864  1.0000
  H   H1405     1.0  0.80854  0.33437  0.37248  1.0000
  C   C1783     1.0  0.74074  0.40207  0.43899  1.0000
  Fe  Fe119     1.0  0.90901  0.39257  0.48824  1.0000
  H   H1406     1.0  0.76349  0.26815  0.39497  1.0000
  H   H1407     1.0  0.80631  0.26286  0.39181  1.0000
  H   H1408     1.0  0.88750  0.31282  0.38164  1.0000
  H   H1409     1.0  0.79121  0.29033  0.34283  1.0000
  C   C1784     1.0  0.62158  0.06223  0.44067  1.0000
  H   H1410     1.0  0.84393  0.31832  0.44037  1.0000
  H   H1411     1.0  0.82588  0.30134  0.41496  1.0000
  C   C1785     1.0  0.51217  0.16136  0.43017  1.0000
  C   C1786     1.0  0.50807  0.18234  0.27102  1.0000
  C   C1787     1.0  0.66678  0.46726  0.40127  1.0000
  H   H1412     1.0  0.86234  0.37224  0.28251  1.0000
  C   C1788     1.0  0.51090  0.29852  0.33721  1.0000
  H   H1413     1.0  0.79094  0.29518  0.28533  1.0000
  H   H1414     1.0  0.82233  0.24651  0.24877  1.0000
  H   H1415     1.0  0.59667  0.00259  0.45765  1.0000
  C   C1789     1.0  0.98924  0.47799  0.46511  1.0000
  C   C1790     1.0  0.85482  0.38990  0.28393  1.0000
  C   C1791     1.0  0.69615  0.38008  0.36256  1.0000
  H   H1416     1.0  0.50263  0.23961  0.28861  1.0000
  C   C1792     1.0  0.58918  0.07241  0.40332  1.0000
  C   C1793     1.0  0.73149  0.24829  0.27975  1.0000
  C   C1794     1.0  0.55818  0.13119  0.35257  1.0000
  C   C1795     1.0  0.75314  0.44397  0.37848  1.0000
  C   C1796     1.0  0.74963  0.41409  0.27403  1.0000
  C   C1797     1.0  0.71045  0.24820  0.29001  1.0000
  C   C1798     1.0  0.69047  0.31644  0.26197  1.0000
  C   C1799     1.0  0.84859  0.42466  0.30113  1.0000
  H   H1417     1.0  0.87009  0.39429  0.30939  1.0000
  H   H1418     1.0  0.79098  0.24626  0.27250  1.0000
  C   C1800     1.0  0.75081  0.27293  0.31507  1.0000
  C   C1801     1.0  0.83773  0.32634  0.25464  1.0000
  H   H1419     1.0  0.58545  0.06664  0.35826  1.0000
  C   C1802     1.0  0.62635  0.06035  0.45902  1.0000
  S   S238      1.0  0.88883  0.36009  0.49022  1.0000
  H   H1420     1.0  0.56502  0.01021  0.43370  1.0000
  H   H1421     1.0  0.78811  0.36160  0.25878  1.0000
  H   H1422     1.0  0.80841  0.05996  0.26110  1.0000
  H   H1423     1.0  0.78390  0.45748  0.43474  1.0000
  C   C1803     1.0  0.68305  0.44982  0.39525  1.0000
  C   C1804     1.0  0.63782  0.00758  0.42374  1.0000
  H   H1424     1.0  0.67687  0.43455  0.38944  1.0000
  H   H1425     1.0  0.81068  0.48419  0.47986  1.0000
  H   H1426     1.0  0.83707  0.38967  0.25944  1.0000
  C   C1805     1.0  0.97461  0.38772  0.48564  1.0000
  C   C1806     1.0  0.70700  0.45229  0.39658  1.0000
  P   P60       1.0  0.81215  0.43636  0.25493  1.0000
  C   C1807     1.0  0.95210  0.48343  0.49033  1.0000
  C   C1808     1.0  0.49896  0.23089  0.30145  1.0000
  C   C1809     1.0  0.79080  0.05477  0.26003  1.0000
  H   H1427     1.0  0.80638  0.47453  0.35705  1.0000
  H   H1428     1.0  0.60389  0.01442  0.39884  1.0000
  H   H1429     1.0  0.68085  0.10326  0.25175  1.0000
  H   H1430     1.0  0.84575  0.47178  0.25791  1.0000
  C   C1810     1.0  0.80690  0.25828  0.24758  1.0000
  H   H1431     1.0  0.55671  0.00605  0.48664  1.0000
  C   C1811     1.0  0.49053  0.03549  0.41269  1.0000
  C   C1812     1.0  0.49601  0.16660  0.26160  1.0000
  C   C1813     1.0  0.67429  0.48722  0.40871  1.0000
  C   C1814     1.0  0.75707  0.05082  0.24209  1.0000
  C   C1815     1.0  0.57399  0.00616  0.49179  1.0000
  Fe  Fe120     1.0  0.60913  0.13962  0.52124  1.0000
  S   S239      1.0  0.58336  0.11218  0.52535  1.0000
  S   S240      1.0  0.61935  0.16409  0.54287  1.0000
  Fe  Fe121     1.0  0.62594  0.19694  0.64680  1.0000
  S   S241      1.0  0.60915  0.23254  0.64049  1.0000
  S   S242      1.0  0.62751  0.16552  0.62859  1.0000
  Fe  Fe122     1.0  0.63574  0.20979  0.68578  1.0000
  S   S243      1.0  0.61812  0.24582  0.68183  1.0000
  S   S244      1.0  0.66054  0.20059  0.70881  1.0000
  Fe  Fe123     1.0  0.59026  0.22841  0.66744  1.0000
  S   S245      1.0  0.55130  0.24143  0.66866  1.0000
  Fe  Fe124     1.0  0.63837  0.24685  0.65541  1.0000
  S   S246      1.0  0.65685  0.27936  0.64506  1.0000
  S   S247      1.0  0.60648  0.19225  0.67357  1.0000
  S   S248      1.0  0.65657  0.21135  0.65947  1.0000
  Fe  Fe125     1.0  0.87053  0.37621  0.51485  1.0000
  S   S249      1.0  0.89255  0.40686  0.51383  1.0000
  S   S250      1.0  0.86119  0.35647  0.54121  1.0000
  Fe  Fe126     1.0  0.80342  0.38752  0.64265  1.0000
  S   S251      1.0  0.76431  0.39404  0.64582  1.0000
  S   S252      1.0  0.82220  0.39834  0.61604  1.0000
  Fe  Fe127     1.0  0.80846  0.38097  0.68431  1.0000
  S   S253      1.0  0.76996  0.38775  0.68936  1.0000
  S   S254      1.0  0.83424  0.37914  0.70726  1.0000
  Fe  Fe128     1.0  0.76589  0.36386  0.66633  1.0000
  S   S255      1.0  0.74289  0.33274  0.67240  1.0000
  Fe  Fe129     1.0  0.77207  0.41708  0.66840  1.0000
  S   S256      1.0  0.75421  0.45360  0.67225  1.0000
  S   S257      1.0  0.80492  0.35607  0.66201  1.0000
  S   S258      1.0  0.81064  0.41165  0.66464  1.0000
  H   H1432     1.0  0.50513  0.22664  0.56908  1.0000
  H   H1433     1.0  0.84853  0.43807  0.61328  1.0000
  C   C1816     1.0  0.92586  0.35753  0.55055  1.0000
  H   H1434     1.0  0.64460  0.38312  0.67550  1.0000
  C   C1817     1.0  0.83415  0.36189  0.72777  1.0000
  C   C1818     1.0  0.81817  0.34498  0.73150  1.0000
  H   H1435     1.0  0.55784  0.15681  0.54453  1.0000
  H   H1436     1.0  0.93745  0.48586  0.49979  1.0000
  H   H1437     1.0  0.80566  0.34183  0.72160  1.0000
  C   C1819     1.0  0.85103  0.47154  0.62506  1.0000
  C   C1820     1.0  0.84947  0.36850  0.56167  1.0000
  C   C1821     1.0  0.84999  0.39222  0.56499  1.0000
  C   C1822     1.0  0.84138  0.40092  0.58162  1.0000
  C   C1823     1.0  0.83215  0.38612  0.59521  1.0000
  C   C1824     1.0  0.83159  0.36241  0.59190  1.0000
  C   C1825     1.0  0.84031  0.35368  0.57527  1.0000
  H   H1438     1.0  0.85733  0.40379  0.55484  1.0000
  H   H1439     1.0  0.84181  0.41927  0.58396  1.0000
  H   H1440     1.0  0.82463  0.35075  0.60219  1.0000
  H   H1441     1.0  0.83995  0.33528  0.57295  1.0000
  H   H1442     1.0  0.79446  0.44790  0.69828  1.0000
  C   C1826     1.0  0.56428  0.99851  0.55905  1.0000
  H   H1443     1.0  0.89744  0.37657  0.56412  1.0000
  C   C1827     1.0  0.68086  0.29387  0.65296  1.0000
  C   C1828     1.0  0.69304  0.28595  0.66818  1.0000
  C   C1829     1.0  0.71201  0.29795  0.67371  1.0000
  C   C1830     1.0  0.71917  0.31806  0.66422  1.0000
  C   C1831     1.0  0.70687  0.32611  0.64910  1.0000
  C   C1832     1.0  0.68789  0.31412  0.64357  1.0000
  H   H1444     1.0  0.68784  0.27055  0.67564  1.0000
  H   H1445     1.0  0.72121  0.29164  0.68548  1.0000
  H   H1446     1.0  0.71196  0.34156  0.64165  1.0000
  H   H1447     1.0  0.67863  0.32053  0.63182  1.0000
  C   C1833     1.0  0.65744  0.18644  0.73036  1.0000
  C   C1834     1.0  0.82618  0.47717  0.57222  1.0000
  H   H1448     1.0  0.81941  0.46980  0.54478  1.0000
  H   H1449     1.0  0.80783  0.44927  0.62152  1.0000
  C   C1835     1.0  0.58267  0.02754  0.49601  1.0000
  C   C1836     1.0  0.75628  0.34171  0.73154  1.0000
  C   C1837     1.0  0.52418  0.22789  0.66820  1.0000
  C   C1838     1.0  0.52248  0.20391  0.67130  1.0000
  C   C1839     1.0  0.50352  0.24190  0.66510  1.0000
  H   H1450     1.0  0.53800  0.19287  0.67397  1.0000
  H   H1451     1.0  0.50447  0.26047  0.66271  1.0000
  C   C1840     1.0  0.62032  0.16398  0.56685  1.0000
  C   C1841     1.0  0.62280  0.18516  0.57520  1.0000
  C   C1842     1.0  0.62422  0.18609  0.59405  1.0000
  C   C1843     1.0  0.62388  0.16566  0.60486  1.0000
  C   C1844     1.0  0.62139  0.14445  0.59653  1.0000
  C   C1845     1.0  0.61944  0.14360  0.57770  1.0000
  H   H1452     1.0  0.62377  0.20101  0.56698  1.0000
  H   H1453     1.0  0.62626  0.20252  0.60017  1.0000
  H   H1454     1.0  0.62129  0.12850  0.60470  1.0000
  H   H1455     1.0  0.61807  0.12710  0.57152  1.0000
  H   H1456     1.0  0.77133  0.42605  0.72382  1.0000
  C   C1846     1.0  0.92206  0.48613  0.55201  1.0000
  C   C1847     1.0  0.93950  0.46887  0.55639  1.0000
  C   C1848     1.0  0.77941  0.44847  0.52113  1.0000
  C   C1849     1.0  0.62374  0.32944  0.65258  1.0000
  C   C1850     1.0  0.62486  0.35067  0.64299  1.0000
  C   C1851     1.0  0.63240  0.36995  0.65133  1.0000
  C   C1852     1.0  0.63889  0.36795  0.66925  1.0000
  C   C1853     1.0  0.63824  0.34650  0.67891  1.0000
  C   C1854     1.0  0.63052  0.32726  0.67042  1.0000
  P   P61       1.0  0.64616  0.34445  0.70221  1.0000
  C   C1855     1.0  0.67006  0.36274  0.70448  1.0000
  C   C1856     1.0  0.68813  0.36264  0.69127  1.0000
  C   C1857     1.0  0.70611  0.37756  0.69224  1.0000
  C   C1858     1.0  0.70636  0.39257  0.70648  1.0000
  C   C1859     1.0  0.68855  0.39268  0.71980  1.0000
  C   C1860     1.0  0.67038  0.37789  0.71879  1.0000
  C   C1861     1.0  0.65455  0.31461  0.70893  1.0000
  C   C1862     1.0  0.74007  0.46902  0.50026  1.0000
  Fe  Fe130     1.0  0.86535  0.42371  0.49606  1.0000
  C   C1863     1.0  0.63575  0.18223  0.73847  1.0000
  H   H1457     1.0  0.69174  0.31879  0.70870  1.0000
  C   C1864     1.0  0.67799  0.30707  0.71129  1.0000
  H   H1458     1.0  0.61828  0.31434  0.64605  1.0000
  H   H1459     1.0  0.62013  0.35204  0.62903  1.0000
  H   H1460     1.0  0.63339  0.38640  0.64385  1.0000
  H   H1461     1.0  0.63014  0.31035  0.67723  1.0000
  H   H1462     1.0  0.68818  0.35120  0.68007  1.0000
  H   H1463     1.0  0.71980  0.37750  0.68181  1.0000
  H   H1464     1.0  0.72027  0.40426  0.70701  1.0000
  H   H1465     1.0  0.68870  0.40446  0.73076  1.0000
  C   C1865     1.0  0.70324  0.10241  0.72788  1.0000
  C   C1866     1.0  0.62155  0.35410  0.71650  1.0000
  C   C1867     1.0  0.74829  0.30228  0.72510  1.0000
  H   H1466     1.0  0.81189  0.43335  0.50994  1.0000
  H   H1467     1.0  0.78188  0.48685  0.70868  1.0000
  C   C1868     1.0  0.84738  0.46599  0.70778  1.0000
  H   H1468     1.0  0.81066  0.42635  0.73621  1.0000
  H   H1469     1.0  0.54647  0.03241  0.55479  1.0000
  H   H1470     1.0  0.82214  0.41036  0.53738  1.0000
  H   H1471     1.0  0.95028  0.47125  0.56765  1.0000
  H   H1472     1.0  0.86564  0.46000  0.70736  1.0000
  H   H1473     1.0  0.90010  0.46106  0.51633  1.0000
  H   H1474     1.0  0.60358  0.13631  0.68884  1.0000
  H   H1475     1.0  0.61281  0.11733  0.71846  1.0000
  H   H1476     1.0  0.70215  0.27813  0.71798  1.0000
  C   C1869     1.0  0.91509  0.37714  0.55862  1.0000
  C   C1870     1.0  0.50738  0.12331  0.50330  1.0000
  C   C1871     1.0  0.85068  0.36531  0.74070  1.0000
  C   C1872     1.0  0.75721  0.48294  0.62232  1.0000
  C   C1873     1.0  0.80725  0.45903  0.70292  1.0000
  H   H1477     1.0  0.79682  0.41368  0.56506  1.0000
  H   H1478     1.0  0.76258  0.35811  0.72666  1.0000
  C   C1874     1.0  0.63728  0.29871  0.71222  1.0000
  C   C1875     1.0  0.66233  0.12746  0.68277  1.0000
  C   C1876     1.0  0.52046  0.12431  0.58058  1.0000
  C   C1877     1.0  0.51399  0.09958  0.50178  1.0000
  P   P62       1.0  0.69809  0.10989  0.70453  1.0000
  C   C1878     1.0  0.70687  0.08583  0.69044  1.0000
  C   C1879     1.0  0.71571  0.13415  0.69939  1.0000
  C   C1880     1.0  0.74011  0.13077  0.69917  1.0000
  C   C1881     1.0  0.75390  0.14960  0.69549  1.0000
  C   C1882     1.0  0.74341  0.17185  0.69191  1.0000
  C   C1883     1.0  0.71915  0.17528  0.69220  1.0000
  C   C1884     1.0  0.70537  0.15664  0.69623  1.0000
  C   C1885     1.0  0.71826  0.08967  0.67367  1.0000
  C   C1886     1.0  0.72432  0.07100  0.66255  1.0000
  C   C1887     1.0  0.71887  0.04845  0.66803  1.0000
  C   C1888     1.0  0.70717  0.04458  0.68458  1.0000
  C   C1889     1.0  0.70102  0.06323  0.69570  1.0000
  C   C1890     1.0  0.71918  0.22692  0.72270  1.0000
  H   H1479     1.0  0.62058  0.02914  0.54539  1.0000
  P   P63       1.0  0.83545  0.48770  0.60737  1.0000
  H   H1480     1.0  0.51578  0.16714  0.54766  1.0000
  C   C1891     1.0  0.60616  0.99667  0.55375  1.0000
  C   C1892     1.0  0.75920  0.23714  0.72287  1.0000
  H   H1481     1.0  0.62003  0.18711  0.73136  1.0000
  C   C1893     1.0  0.75644  0.32372  0.71952  1.0000
  H   H1482     1.0  0.73381  0.43382  0.50959  1.0000
  H   H1483     1.0  0.67589  0.13053  0.67261  1.0000
  H   H1484     1.0  0.58261  0.05185  0.54603  1.0000
  H   H1485     1.0  0.74844  0.11361  0.70189  1.0000
  H   H1486     1.0  0.77272  0.14694  0.69532  1.0000
  H   H1487     1.0  0.75400  0.18645  0.68888  1.0000
  H   H1488     1.0  0.71077  0.19234  0.68926  1.0000
  H   H1489     1.0  0.68666  0.16002  0.69689  1.0000
  H   H1490     1.0  0.72215  0.10709  0.66900  1.0000
  H   H1491     1.0  0.73302  0.07407  0.64957  1.0000
  H   H1492     1.0  0.83613  0.43406  0.69777  1.0000
  C   C1894     1.0  0.61846  0.00675  0.50504  1.0000
  H   H1493     1.0  0.55543  0.28284  0.63948  1.0000
  C   C1895     1.0  0.60496  0.02794  0.50273  1.0000
  Fe  Fe131     1.0  0.56532  0.13030  0.50208  1.0000
  C   C1896     1.0  0.76535  0.45073  0.53694  1.0000
  H   H1494     1.0  0.87771  0.46290  0.59231  1.0000
  C   C1897     1.0  0.79628  0.46470  0.61954  1.0000
  H   H1495     1.0  0.57644  0.12612  0.56429  1.0000
  S   S259      1.0  0.84217  0.39415  0.49862  1.0000
  C   C1898     1.0  0.94856  0.35818  0.54329  1.0000
  H   H1496     1.0  0.73532  0.18030  0.73322  1.0000
  H   H1497     1.0  0.50973  0.21994  0.53672  1.0000
  C   C1899     1.0  0.84248  0.47513  0.58582  1.0000
  S   S260      1.0  0.61681  0.05420  0.50865  1.0000
  C   C1900     1.0  0.58074  0.28044  0.61737  1.0000
  C   C1901     1.0  0.60297  0.36832  0.70954  1.0000
  H   H1498     1.0  0.77526  0.23868  0.72959  1.0000
  H   H1499     1.0  0.59137  0.29338  0.62240  1.0000
  C   C1902     1.0  0.75834  0.24364  0.70457  1.0000
  C   C1903     1.0  0.83193  0.46814  0.55532  1.0000
  H   H1500     1.0  0.63008  0.26321  0.71951  1.0000
  S   S261      1.0  0.52796  0.14413  0.50355  1.0000
  C   C1904     1.0  0.58390  0.37541  0.72074  1.0000
  H   H1501     1.0  0.51018  0.11465  0.59040  1.0000
  C   C1905     1.0  0.86772  0.46959  0.65464  1.0000
  H   H1502     1.0  0.97663  0.33769  0.57664  1.0000
  C   C1906     1.0  0.54729  0.25720  0.62088  1.0000
  S   S262      1.0  0.85030  0.45979  0.50186  1.0000
  C   C1907     1.0  0.54619  0.20920  0.53764  1.0000
  C   C1908     1.0  0.80017  0.48126  0.70890  1.0000
  H   H1503     1.0  0.72347  0.03405  0.65933  1.0000
  H   H1504     1.0  0.97770  0.37858  0.53775  1.0000
  C   C1909     1.0  0.73780  0.24220  0.69544  1.0000
  C   C1910     1.0  0.50812  0.22763  0.60547  1.0000
  H   H1505     1.0  0.95675  0.34308  0.53672  1.0000
  H   H1506     1.0  0.70222  0.23274  0.69747  1.0000
  C   C1911     1.0  0.80634  0.42173  0.53735  1.0000
  H   H1507     1.0  0.67127  0.25000  0.72314  1.0000
  C   C1912     1.0  0.49684  0.08362  0.50021  1.0000
  C   C1913     1.0  0.97772  0.36966  0.49863  1.0000
  C   C1914     1.0  0.91112  0.46339  0.52747  1.0000
  H   H1508     1.0  0.55252  0.10457  0.58689  1.0000
  H   H1509     1.0  0.93133  0.43112  0.52345  1.0000
  C   C1915     1.0  0.64977  0.11316  0.71237  1.0000
  C   C1916     1.0  0.87019  0.45485  0.56537  1.0000
  C   C1917     1.0  0.57468  0.25141  0.59565  1.0000
  C   C1918     1.0  0.55422  0.24543  0.60514  1.0000
  C   C1919     1.0  0.66790  0.11762  0.69977  1.0000
  P   P64       1.0  0.53832  0.22114  0.59876  1.0000
  C   C1920     1.0  0.54126  0.21690  0.57473  1.0000
  C   C1921     1.0  0.54991  0.19545  0.61098  1.0000
  C   C1922     1.0  0.55368  0.17398  0.60263  1.0000
  C   C1923     1.0  0.56356  0.15452  0.61209  1.0000
  C   C1924     1.0  0.56902  0.15612  0.63006  1.0000
  C   C1925     1.0  0.56454  0.17716  0.63862  1.0000
  C   C1926     1.0  0.55517  0.19679  0.62913  1.0000
  C   C1927     1.0  0.52209  0.22087  0.56363  1.0000
  C   C1928     1.0  0.52458  0.21704  0.54518  1.0000
  C   C1929     1.0  0.62142  0.13066  0.69178  1.0000
  H   H1510     1.0  0.58201  0.19881  0.54276  1.0000
  C   C1930     1.0  0.56278  0.20862  0.56702  1.0000
  C   C1931     1.0  0.97054  0.42510  0.60674  1.0000
  C   C1932     1.0  0.50052  0.19425  0.67161  1.0000
  H   H1511     1.0  0.88709  0.44597  0.56271  1.0000
  H   H1512     1.0  0.76293  0.32648  0.70579  1.0000
  C   C1933     1.0  0.83080  0.45136  0.70240  1.0000
  C   C1934     1.0  0.69145  0.47535  0.49833  1.0000
  H   H1513     1.0  0.60386  0.27299  0.59459  1.0000
  H   H1514     1.0  0.70268  0.02715  0.68871  1.0000
  C   C1935     1.0  0.52345  0.15385  0.55666  1.0000
  H   H1515     1.0  0.58098  0.24245  0.58380  1.0000
  H   H1516     1.0  0.63576  0.00686  0.51017  1.0000
  H   H1517     1.0  0.54951  0.17224  0.58876  1.0000
  H   H1518     1.0  0.56778  0.13839  0.60537  1.0000
  H   H1519     1.0  0.57740  0.14129  0.63722  1.0000
  H   H1520     1.0  0.56892  0.17847  0.65250  1.0000
  H   H1521     1.0  0.55231  0.21298  0.63601  1.0000
  C   C1936     1.0  0.80465  0.48576  0.61269  1.0000
  H   H1522     1.0  0.57205  0.04366  0.49423  1.0000
  C   C1937     1.0  0.90774  0.48328  0.53763  1.0000
  C   C1938     1.0  0.64340  0.27558  0.71745  1.0000
  H   H1523     1.0  0.57761  0.20453  0.57534  1.0000
  C   C1939     1.0  0.79204  0.42359  0.55290  1.0000
  H   H1524     1.0  0.77352  0.25017  0.69748  1.0000
  H   H1525     1.0  0.87258  0.47828  0.66643  1.0000
  H   H1526     1.0  0.96449  0.20712  0.71393  1.0000
  H   H1527     1.0  0.50452  0.19579  0.62154  1.0000
  H   H1528     1.0  0.88064  0.27393  0.72865  1.0000
  H   H1529     1.0  0.80234  0.46545  0.66338  1.0000
  H   H1530     1.0  0.98279  0.37745  0.58597  1.0000
  C   C1940     1.0  0.77168  0.43831  0.55275  1.0000
  C   C1941     1.0  0.67765  0.17989  0.73984  1.0000
  C   C1942     1.0  0.56048  0.27460  0.62693  1.0000
  H   H1531     1.0  0.95519  0.23982  0.73412  1.0000
  H   H1532     1.0  0.86323  0.37825  0.73797  1.0000
  H   H1533     1.0  0.60298  0.37381  0.69548  1.0000
  C   C1943     1.0  0.85829  0.48269  0.64011  1.0000
  H   H1534     1.0  0.73700  0.24759  0.68133  1.0000
  H   H1535     1.0  0.61908  0.30406  0.71041  1.0000
  C   C1944     1.0  0.79148  0.48145  0.66455  1.0000
  H   H1536     1.0  0.65326  0.10462  0.72525  1.0000
  S   S263      1.0  0.63156  0.11905  0.50098  1.0000
  H   H1537     1.0  0.50606  0.26156  0.59185  1.0000
  C   C1945     1.0  0.85382  0.45677  0.55197  1.0000
  C   C1946     1.0  0.76755  0.48058  0.66837  1.0000
  C   C1947     1.0  0.63922  0.13412  0.67886  1.0000
  C   C1948     1.0  0.71823  0.23387  0.70453  1.0000
  H   H1538     1.0  0.91776  0.41271  0.56503  1.0000
  P   P65       1.0  0.77132  0.46415  0.50054  1.0000
  H   H1539     1.0  0.85806  0.44935  0.53900  1.0000
  H   H1540     1.0  0.76661  0.44728  0.63031  1.0000
  C   C1949     1.0  0.95312  0.22211  0.73912  1.0000
  C   C1950     1.0  0.56528  0.20511  0.54857  1.0000
  C   C1951     1.0  0.77271  0.46336  0.62439  1.0000
  C   C1952     1.0  0.54438  0.11845  0.57857  1.0000
  H   H1541     1.0  0.73042  0.07526  0.72247  1.0000
  H   H1542     1.0  0.97177  0.44828  0.51608  1.0000
  C   C1953     1.0  0.85420  0.44716  0.62459  1.0000
  C   C1954     1.0  0.86356  0.43411  0.63912  1.0000
  C   C1955     1.0  0.87017  0.44529  0.65421  1.0000
  H   H1543     1.0  0.74379  0.13811  0.73842  1.0000
  H   H1544     1.0  0.78381  0.41422  0.49367  1.0000
  H   H1545     1.0  0.63517  0.14231  0.66586  1.0000
  C   C1956     1.0  0.72602  0.45066  0.50515  1.0000
  H   H1546     1.0  0.65652  0.37860  0.72901  1.0000
  H   H1547     1.0  0.67913  0.12976  0.73806  1.0000
  H   H1548     1.0  0.54814  0.20594  0.52339  1.0000
  Fe  Fe132     1.0  0.60421  0.09251  0.50382  1.0000
  C   C1957     1.0  0.55787  0.13049  0.56582  1.0000
  H   H1549     1.0  0.50257  0.15544  0.60544  1.0000
  H   H1550     1.0  0.86487  0.41522  0.63885  1.0000
  H   H1551     1.0  0.87683  0.43507  0.66565  1.0000
  C   C1958     1.0  0.60494  0.02061  0.54959  1.0000
  C   C1959     1.0  0.80031  0.43452  0.52169  1.0000
  C   C1960     1.0  0.54738  0.14801  0.55478  1.0000
  C   C1961     1.0  0.62666  0.12002  0.70847  1.0000
  H   H1552     1.0  0.53224  0.09364  0.50160  1.0000
  H   H1553     1.0  0.74952  0.46202  0.53710  1.0000
  S   S264      1.0  0.58965  0.15876  0.49892  1.0000
  C   C1962     1.0  0.97474  0.42929  0.57417  1.0000
  C   C1963     1.0  0.96216  0.42201  0.58969  1.0000
  P   P66       1.0  0.96401  0.42541  0.55207  1.0000
  C   C1964     1.0  0.94273  0.44872  0.54628  1.0000
  C   C1965     1.0  0.58346  0.03346  0.54994  1.0000
  C   C1966     1.0  0.58779  0.26889  0.60172  1.0000
  H   H1554     1.0  0.91634  0.34203  0.54964  1.0000
  C   C1967     1.0  0.56314  0.02245  0.55479  1.0000
  H   H1555     1.0  0.69162  0.06008  0.70835  1.0000
  H   H1556     1.0  0.76076  0.43990  0.56490  1.0000
  C   C1968     1.0  0.92865  0.44630  0.53165  1.0000
  H   H1557     1.0  0.94600  0.41372  0.58874  1.0000
  C   C1969     1.0  0.50982  0.14222  0.56974  1.0000
  C   C1970     1.0  0.66673  0.26813  0.71954  1.0000
  H   H1558     1.0  0.49952  0.17576  0.67437  1.0000
  C   C1971     1.0  0.94961  0.39844  0.55188  1.0000
  C   C1972     1.0  0.92677  0.39756  0.55916  1.0000
  C   C1973     1.0  0.96042  0.37851  0.54393  1.0000
  C   C1974     1.0  0.86470  0.46427  0.58217  1.0000
  C   C1975     1.0  0.73953  0.22887  0.73218  1.0000
  C   C1976     1.0  0.72044  0.08495  0.73265  1.0000
  H   H1559     1.0  0.53218  0.25239  0.62896  1.0000
  H   H1560     1.0  0.50188  0.06531  0.49877  1.0000
  C   C1977     1.0  0.68401  0.28392  0.71661  1.0000
  H   H1561     1.0  0.96262  0.36221  0.50500  1.0000
  H   H1562     1.0  0.56949  0.38617  0.71525  1.0000
  H   H1563     1.0  0.74346  0.39861  0.73656  1.0000
  C   C1978     1.0  0.62082  0.34720  0.73481  1.0000
  H   H1564     1.0  0.69101  0.43971  0.50829  1.0000
  H   H1565     1.0  0.80908  0.48579  0.57462  1.0000
  H   H1566     1.0  0.70386  0.22017  0.72930  1.0000
  H   H1567     1.0  0.74809  0.28867  0.71553  1.0000
  C   C1979     1.0  0.86810  0.48159  0.49386  1.0000
  H   H1568     1.0  0.73913  0.48202  0.62675  1.0000
  H   H1569     1.0  0.96088  0.41918  0.61866  1.0000
  C   C1980     1.0  0.77602  0.41462  0.73521  1.0000
  H   H1570     1.0  0.66813  0.00294  0.73099  1.0000
  H   H1571     1.0  0.49398  0.10225  0.55811  1.0000
  C   C1981     1.0  0.49598  0.21195  0.61658  1.0000
  H   H1572     1.0  0.65681  0.04513  0.72905  1.0000
  C   C1982     1.0  0.49679  0.24901  0.60006  1.0000
  C   C1983     1.0  0.70178  0.45390  0.50433  1.0000
  C   C1984     1.0  0.95637  0.18069  0.73405  1.0000
  C   C1985     1.0  0.95850  0.20364  0.72769  1.0000
  H   H1573     1.0  0.96063  0.16637  0.72521  1.0000
  C   C1986     1.0  0.98725  0.43775  0.51964  1.0000
  C   C1987     1.0  0.98829  0.42461  0.53593  1.0000
  H   H1574     1.0  0.69448  0.18233  0.73350  1.0000
  C   C1988     1.0  0.58325  0.36838  0.73892  1.0000
  C   C1989     1.0  0.84038  0.48822  0.71383  1.0000
  H   H1575     1.0  0.63493  0.33615  0.74043  1.0000
  H   H1576     1.0  0.54832  0.99010  0.56230  1.0000
  H   H1577     1.0  0.67266  0.47783  0.49771  1.0000
  C   C1990     1.0  0.66642  0.03781  0.74039  1.0000
  C   C1991     1.0  0.69169  0.11553  0.74143  1.0000
  C   C1992     1.0  0.89057  0.27720  0.74022  1.0000
  H   H1578     1.0  0.90855  0.24339  0.74066  1.0000
  C   C1993     1.0  0.67288  0.01390  0.74153  1.0000
  H   H1579     1.0  0.66092  0.36189  0.76344  1.0000
  C   C1994     1.0  0.96870  0.34579  0.90201  1.0000
  H   H1580     1.0  0.58025  0.11913  0.91976  1.0000
  C   C1995     1.0  0.63221  0.01234  0.98830  1.0000
  C   C1996     1.0  0.57072  0.12407  0.90780  1.0000
  C   C1997     1.0  0.92621  0.48728  0.93480  1.0000
  Fe  Fe133     1.0  0.61364  0.13930  0.97064  1.0000
  S   S265      1.0  0.61694  0.16073  0.94429  1.0000
  S   S266      1.0  0.59589  0.10581  0.97193  1.0000
  Fe  Fe134     1.0  0.68021  0.14116  0.80738  1.0000
  S   S267      1.0  0.71780  0.13158  0.80021  1.0000
  S   S268      1.0  0.65185  0.15322  0.78771  1.0000
  Fe  Fe135     1.0  0.68668  0.12798  0.84763  1.0000
  S   S269      1.0  0.72508  0.11818  0.84268  1.0000
  S   S270      1.0  0.67009  0.11730  0.87499  1.0000
  Fe  Fe136     1.0  0.72581  0.15104  0.82484  1.0000
  S   S271      1.0  0.74954  0.18215  0.82163  1.0000
  Fe  Fe137     1.0  0.71368  0.09959  0.81865  1.0000
  S   S272      1.0  0.72821  0.06244  0.81151  1.0000
  S   S273      1.0  0.68784  0.16176  0.83134  1.0000
  S   S274      1.0  0.67568  0.10822  0.82421  1.0000
  Fe  Fe138     1.0  0.88867  0.38689  0.97173  1.0000
  S   S275      1.0  0.90549  0.42110  0.97307  1.0000
  S   S276      1.0  0.89608  0.36206  0.94807  1.0000
  H   H1581     1.0  0.92799  0.25947  0.86744  1.0000
  H   H1582     1.0  0.51552  0.13609  0.89348  1.0000
  C   C1998     1.0  0.55097  0.07028  0.96796  1.0000
  H   H1583     1.0  0.91230  0.48459  0.92596  1.0000
  H   H1584     1.0  0.67725  0.04770  0.91729  1.0000
  Fe  Fe139     1.0  0.90355  0.29403  0.82386  1.0000
  S   S277      1.0  0.88210  0.32847  0.82194  1.0000
  S   S278      1.0  0.94288  0.29956  0.81848  1.0000
  Fe  Fe140     1.0  0.85855  0.26747  0.83287  1.0000
  S   S279      1.0  0.83593  0.30086  0.83251  1.0000
  S   S280      1.0  0.84361  0.23131  0.83858  1.0000
  Fe  Fe141     1.0  0.85608  0.31012  0.80678  1.0000
  S   S281      1.0  0.83421  0.31850  0.78164  1.0000
  Fe  Fe142     1.0  0.86418  0.31620  0.84782  1.0000
  S   S282      1.0  0.85626  0.34206  0.87073  1.0000
  S   S283      1.0  0.87840  0.27638  0.80698  1.0000
  S   S284      1.0  0.88578  0.28216  0.84994  1.0000
  C   C1999     1.0  0.83492  0.33548  0.76100  1.0000
  C   C2000     1.0  0.94604  0.28924  0.87410  1.0000
  H   H1585     1.0  0.86368  0.35537  0.76706  1.0000
  C   C2001     1.0  0.97317  0.29094  0.82153  1.0000
  C   C2002     1.0  0.92761  0.26364  0.89607  1.0000
  H   H1586     1.0  0.60836  0.99113  0.95615  1.0000
  C   C2003     1.0  0.86717  0.48299  0.91194  1.0000
  H   H1587     1.0  0.96808  0.25797  0.83524  1.0000
  C   C2004     1.0  0.88431  0.35661  0.92679  1.0000
  C   C2005     1.0  0.89328  0.33702  0.91728  1.0000
  C   C2006     1.0  0.88481  0.33203  0.90035  1.0000
  C   C2007     1.0  0.86738  0.34681  0.89243  1.0000
  C   C2008     1.0  0.85833  0.36630  0.90202  1.0000
  C   C2009     1.0  0.86662  0.37114  0.91904  1.0000
  H   H1588     1.0  0.90689  0.32556  0.92309  1.0000
  H   H1589     1.0  0.89184  0.31680  0.89339  1.0000
  H   H1590     1.0  0.84476  0.37782  0.89620  1.0000
  H   H1591     1.0  0.85940  0.38621  0.92610  1.0000
  H   H1592     1.0  0.69275  0.16831  0.91052  1.0000
  C   C2010     1.0  0.67453  0.99786  0.94554  1.0000
  C   C2011     1.0  0.54680  0.13943  0.87717  1.0000
  H   H1593     1.0  0.69205  0.16513  0.76451  1.0000
  H   H1594     1.0  0.69766  0.06512  0.89061  1.0000
  C   C2012     1.0  0.54452  0.09375  0.94057  1.0000
  C   C2013     1.0  0.98418  0.23773  0.78426  1.0000
  C   C2014     1.0  0.77587  0.19543  0.82658  1.0000
  C   C2015     1.0  0.77905  0.21846  0.82021  1.0000
  C   C2016     1.0  0.79941  0.22974  0.82379  1.0000
  C   C2017     1.0  0.81718  0.21813  0.83370  1.0000
  C   C2018     1.0  0.81405  0.19505  0.83998  1.0000
  C   C2019     1.0  0.79362  0.18383  0.83651  1.0000
  H   H1595     1.0  0.76555  0.22774  0.81255  1.0000
  H   H1596     1.0  0.80133  0.24747  0.81896  1.0000
  H   H1597     1.0  0.82753  0.18578  0.84766  1.0000
  H   H1598     1.0  0.79167  0.16616  0.84151  1.0000
  C   C2020     1.0  0.68399  0.00935  0.82013  1.0000
  C   C2021     1.0  0.69257  0.03187  0.81852  1.0000
  C   C2022     1.0  0.71643  0.03449  0.81534  1.0000
  C   C2023     1.0  0.73148  0.01415  0.81424  1.0000
  H   H1599     1.0  0.95284  0.30631  0.91684  1.0000
  H   H1600     1.0  0.92876  0.23796  0.83783  1.0000
  H   H1601     1.0  0.68064  0.04720  0.81938  1.0000
  H   H1602     1.0  0.74996  0.01578  0.81187  1.0000
  C   C2024     1.0  0.65462  0.16596  0.76564  1.0000
  H   H1603     1.0  0.49787  0.16009  0.93462  1.0000
  P   P67       1.0  0.53073  0.11904  0.92933  1.0000
  H   H1604     1.0  0.61751  0.16898  0.76223  1.0000
  C   C2025     1.0  0.63146  0.14884  0.92488  1.0000
  C   C2026     1.0  0.63657  0.16338  0.90977  1.0000
  C   C2027     1.0  0.64849  0.15425  0.89433  1.0000
  C   C2028     1.0  0.65517  0.13042  0.89382  1.0000
  C   C2029     1.0  0.64963  0.11600  0.90881  1.0000
  C   C2030     1.0  0.63817  0.12510  0.92432  1.0000
  H   H1605     1.0  0.63145  0.18180  0.91007  1.0000
  H   H1606     1.0  0.65244  0.16559  0.88285  1.0000
  H   H1607     1.0  0.65429  0.09757  0.90842  1.0000
  H   H1608     1.0  0.63458  0.11376  0.93587  1.0000
  H   H1609     1.0  0.71807  0.10076  0.89313  1.0000
  H   H1610     1.0  0.87429  0.31166  0.74342  1.0000
  H   H1611     1.0  0.76803  0.15490  0.91954  1.0000
  S   S285      1.0  0.64508  0.12463  0.98512  1.0000
  H   H1612     1.0  0.65418  0.40336  0.77133  1.0000
  H   H1613     1.0  0.68500  0.99773  0.86660  1.0000
  P   P68       1.0  0.96923  0.32800  0.88240  1.0000
  H   H1614     1.0  0.75432  0.12921  0.89004  1.0000
  H   H1615     1.0  0.69840  0.10176  0.94975  1.0000
  H   H1616     1.0  0.53415  0.10475  0.96730  1.0000
  C   C2031     1.0  0.79814  0.41486  0.74220  1.0000
  C   C2032     1.0  0.72297  0.99168  0.81635  1.0000
  H   H1617     1.0  0.69179  0.19212  0.88247  1.0000
  C   C2033     1.0  0.69832  0.36208  0.76341  1.0000
  H   H1618     1.0  0.52582  0.14862  0.98630  1.0000
  C   C2034     1.0  0.83634  0.34293  0.97352  1.0000
  Fe  Fe143     1.0  0.87254  0.43446  0.98762  1.0000
  H   H1619     1.0  0.67775  0.14456  0.93465  1.0000
  H   H1620     1.0  0.66055  0.16652  0.96025  1.0000
  H   H1621     1.0  0.68781  0.42684  0.77602  1.0000
  H   H1622     1.0  0.87732  0.20600  0.80890  1.0000
  C   C2035     1.0  0.76664  0.38336  0.75668  1.0000
  H   H1623     1.0  0.55610  0.07686  0.91597  1.0000
  H   H1624     1.0  0.85858  0.47949  0.94034  1.0000
  H   H1625     1.0  0.72241  0.18551  0.85842  1.0000
  H   H1626     1.0  0.65007  0.00725  0.98439  1.0000
  C   C2036     1.0  0.76123  0.18106  0.77354  1.0000
  C   C2037     1.0  0.55492  0.17095  0.95785  1.0000
  C   C2038     1.0  0.53619  0.18772  0.95819  1.0000
  S   S286      1.0  0.85468  0.40093  0.98475  1.0000
  H   H1627     1.0  0.75353  0.15421  0.86235  1.0000
  H   H1628     1.0  0.79460  0.37171  0.77435  1.0000
  H   H1629     1.0  0.73460  0.31328  0.76891  1.0000
  P   P69       1.0  0.74685  0.36192  0.76483  1.0000
  C   C2039     1.0  0.71746  0.37523  0.76608  1.0000
  C   C2040     1.0  0.71349  0.39865  0.77066  1.0000
  C   C2041     1.0  0.69074  0.40878  0.77242  1.0000
  H   H1630     1.0  0.56833  0.37369  0.74752  1.0000
  C   C2042     1.0  0.74847  0.33823  0.74949  1.0000
  C   C2043     1.0  0.75496  0.35096  0.78696  1.0000
  C   C2044     1.0  0.74372  0.36013  0.80250  1.0000
  C   C2045     1.0  0.75062  0.35202  0.81957  1.0000
  C   C2046     1.0  0.76886  0.33483  0.82126  1.0000
  C   C2047     1.0  0.78008  0.32565  0.80589  1.0000
  C   C2048     1.0  0.77313  0.33357  0.78882  1.0000
  C   C2049     1.0  0.74050  0.29855  0.74292  1.0000
  H   H1631     1.0  0.72795  0.40901  0.77314  1.0000
  C   C2050     1.0  0.88693  0.29850  0.74858  1.0000
  C   C2051     1.0  0.67560  0.37221  0.76534  1.0000
  H   H1632     1.0  0.98576  0.34693  0.84686  1.0000
  H   H1633     1.0  0.74206  0.35923  0.83153  1.0000
  H   H1634     1.0  0.77453  0.32878  0.83447  1.0000
  H   H1635     1.0  0.79452  0.31264  0.80721  1.0000
  H   H1636     1.0  0.78236  0.32648  0.77710  1.0000
  C   C2052     1.0  0.89921  0.30263  0.76381  1.0000
  C   C2053     1.0  0.71177  0.22390  0.76675  1.0000
  C   C2054     1.0  0.75209  0.25586  0.77773  1.0000
  C   C2055     1.0  0.76767  0.26960  0.78564  1.0000
  H   H1637     1.0  0.66619  0.01277  0.89459  1.0000
  C   C2056     1.0  0.69588  0.24220  0.76124  1.0000
  C   C2057     1.0  0.67321  0.24402  0.76880  1.0000
  C   C2058     1.0  0.66642  0.22795  0.78222  1.0000
  C   C2059     1.0  0.68242  0.21037  0.78834  1.0000
  C   C2060     1.0  0.70504  0.20839  0.78075  1.0000
  H   H1638     1.0  0.73361  0.25959  0.78025  1.0000
  H   H1639     1.0  0.76116  0.28355  0.79421  1.0000
  H   H1640     1.0  0.80380  0.27570  0.78896  1.0000
  H   H1641     1.0  0.95007  0.29396  0.86012  1.0000
  H   H1642     1.0  0.66076  0.25765  0.76408  1.0000
  H   H1643     1.0  0.64874  0.22895  0.78784  1.0000
  H   H1644     1.0  0.67712  0.19782  0.79869  1.0000
  H   H1645     1.0  0.56784  0.13732  0.94910  1.0000
  C   C2061     1.0  0.90233  0.22041  0.82517  1.0000
  H   H1646     1.0  0.92184  0.37173  0.82301  1.0000
  H   H1647     1.0  0.70080  0.34398  0.76000  1.0000
  C   C2062     1.0  0.76004  0.14163  0.76361  1.0000
  H   H1648     1.0  0.74626  0.15096  0.95449  1.0000
  C   C2063     1.0  0.94741  0.32420  0.97580  1.0000
  C   C2064     1.0  0.49482  0.09892  0.91266  1.0000
  C   C2065     1.0  0.63012  0.02188  0.92186  1.0000
  C   C2066     1.0  0.74421  0.17413  0.74518  1.0000
  C   C2067     1.0  0.96645  0.31267  0.98419  1.0000
  P   P70       1.0  0.93926  0.24185  0.77161  1.0000
  H   H1649     1.0  0.93003  0.27231  0.92377  1.0000
  H   H1650     1.0  0.63401  0.02751  0.95020  1.0000
  C   C2068     1.0  0.55489  0.07538  0.93051  1.0000
  C   C2069     1.0  0.62283  0.03240  0.90551  1.0000
  C   C2070     1.0  0.61607  0.05620  0.90439  1.0000
  C   C2071     1.0  0.61587  0.06947  0.91969  1.0000
  C   C2072     1.0  0.62255  0.05905  0.93609  1.0000
  C   C2073     1.0  0.62946  0.03531  0.93724  1.0000
  C   C2074     1.0  0.97069  0.38337  0.99029  1.0000
  C   C2075     1.0  0.74070  0.31641  0.75513  1.0000
  H   H1651     1.0  0.82373  0.35517  0.96722  1.0000
  C   C2076     1.0  0.85100  0.35233  0.75724  1.0000
  H   H1652     1.0  0.67665  0.01392  0.93782  1.0000
  C   C2077     1.0  0.94839  0.37345  0.92208  1.0000
  C   C2078     1.0  0.68488  0.00431  0.75642  1.0000
  C   C2079     1.0  0.50105  0.11157  0.92726  1.0000
  H   H1653     1.0  0.89582  0.31888  0.77063  1.0000
  H   H1654     1.0  0.50619  0.05992  0.94565  1.0000
  C   C2080     1.0  0.91945  0.26424  0.76204  1.0000
  H   H1655     1.0  0.84266  0.22940  0.98586  1.0000
  C   C2081     1.0  0.92539  0.23269  0.79261  1.0000
  C   C2082     1.0  0.94365  0.19464  0.76337  1.0000
  H   H1656     1.0  0.96493  0.36521  0.82132  1.0000
  H   H1657     1.0  0.95338  0.37906  0.98713  1.0000
  H   H1658     1.0  0.62226  0.02223  0.89362  1.0000
  H   H1659     1.0  0.61096  0.06441  0.89166  1.0000
  H   H1660     1.0  0.61042  0.08782  0.91885  1.0000
  H   H1661     1.0  0.62218  0.06931  0.94802  1.0000
  H   H1662     1.0  0.97986  0.22079  0.78971  1.0000
  H   H1663     1.0  0.50745  0.09454  0.90195  1.0000
  H   H1664     1.0  0.68579  0.17995  0.98332  1.0000
  H   H1665     1.0  0.71695  0.19445  0.78572  1.0000
  C   C2083     1.0  0.97370  0.27411  0.76814  1.0000
  H   H1666     1.0  0.87559  0.20336  0.97427  1.0000
  H   H1667     1.0  0.93673  0.48827  0.97925  1.0000
  C   C2084     1.0  0.80274  0.10807  0.93363  1.0000
  C   C2085     1.0  0.79624  0.13069  0.92734  1.0000
  C   C2086     1.0  0.77284  0.13725  0.92433  1.0000
  C   C2087     1.0  0.75577  0.12111  0.92739  1.0000
  C   C2088     1.0  0.76239  0.09851  0.93396  1.0000
  P   P71       1.0  0.72556  0.12990  0.92364  1.0000
  C   C2089     1.0  0.72400  0.14722  0.90278  1.0000
  C   C2090     1.0  0.70985  0.10405  0.92163  1.0000
  C   C2091     1.0  0.70979  0.09322  0.90508  1.0000
  C   C2092     1.0  0.69830  0.07280  0.90362  1.0000
  C   C2093     1.0  0.68680  0.06302  0.91866  1.0000
  C   C2094     1.0  0.68687  0.07358  0.93525  1.0000
  C   C2095     1.0  0.69849  0.09392  0.93677  1.0000
  C   C2096     1.0  0.74084  0.14319  0.88882  1.0000
  C   C2097     1.0  0.74041  0.15720  0.87303  1.0000
  C   C2098     1.0  0.72283  0.17489  0.87078  1.0000
  C   C2099     1.0  0.70568  0.17866  0.88436  1.0000
  C   C2100     1.0  0.70628  0.16498  0.90031  1.0000
  C   C2101     1.0  0.71328  0.14630  0.94243  1.0000
  H   H1668     1.0  0.74957  0.08582  0.93667  1.0000
  H   H1669     1.0  0.92338  0.25457  0.98459  1.0000
  C   C2102     1.0  0.67183  0.05221  0.75410  1.0000
  C   C2103     1.0  0.67927  0.16304  0.95895  1.0000
  C   C2104     1.0  0.68906  0.15072  0.94439  1.0000
  H   H1670     1.0  0.70263  0.00330  0.96282  1.0000
  C   C2105     1.0  0.60172  0.35431  0.74596  1.0000
  H   H1671     1.0  0.80933  0.14316  0.92475  1.0000
  H   H1672     1.0  0.70081  0.25477  0.75087  1.0000
  C   C2106     1.0  0.86768  0.31278  0.97104  1.0000
  S   S287      1.0  0.64423  0.05724  0.98311  1.0000
  H   H1673     1.0  0.93861  0.19071  0.77725  1.0000
  C   C2107     1.0  0.96707  0.35018  0.84820  1.0000
  H   H1674     1.0  0.72980  0.37367  0.80156  1.0000
  C   C2108     1.0  0.95460  0.34330  0.86391  1.0000
  H   H1675     1.0  0.89317  0.21602  0.83772  1.0000
  C   C2109     1.0  0.94904  0.17620  0.75190  1.0000
  C   C2110     1.0  0.69908  0.98902  0.81897  1.0000
  C   C2111     1.0  0.54624  0.12534  0.90836  1.0000
  C   C2112     1.0  0.63439  0.17203  0.75601  1.0000
  C   C2113     1.0  0.76044  0.23747  0.76684  1.0000
  H   H1676     1.0  0.96595  0.38048  0.94604  1.0000
  C   C2114     1.0  0.78886  0.38387  0.76371  1.0000
  C   C2115     1.0  0.67631  0.16992  0.75740  1.0000
  C   C2116     1.0  0.68386  0.04276  0.76890  1.0000
  C   C2117     1.0  0.55294  0.14982  0.94960  1.0000
  C   C2118     1.0  0.54246  0.09099  0.95933  1.0000
  H   H1677     1.0  0.82089  0.10298  0.93591  1.0000
  C   C2119     1.0  0.93374  0.23900  0.80902  1.0000
  C   C2120     1.0  0.69629  0.11044  0.75950  1.0000
  C   C2121     1.0  0.53220  0.14531  0.94156  1.0000
  H   H1678     1.0  0.57115  0.17444  0.96376  1.0000
  H   H1679     1.0  0.89963  0.35965  0.85068  1.0000
  H   H1680     1.0  0.96148  0.28556  0.76079  1.0000
  C   C2122     1.0  0.69046  0.01895  0.77002  1.0000
  C   C2123     1.0  0.79167  0.26508  0.78281  1.0000
  H   H1681     1.0  0.97462  0.44689  0.96412  1.0000
  H   H1682     1.0  0.91044  0.32767  0.97400  1.0000
  H   H1683     1.0  0.98400  0.31716  0.98040  1.0000
  C   C2124     1.0  0.78461  0.23259  0.76454  1.0000
  H   H1684     1.0  0.68785  0.05377  0.77972  1.0000
  C   C2125     1.0  0.56153  0.05218  0.95789  1.0000
  H   H1685     1.0  0.71664  0.08885  0.77819  1.0000
  H   H1686     1.0  0.66651  0.07065  0.75342  1.0000
  C   C2126     1.0  0.91539  0.28556  0.77055  1.0000
  H   H1687     1.0  0.77381  0.98876  0.76763  1.0000
  H   H1688     1.0  0.86470  0.46490  0.90947  1.0000
  H   H1689     1.0  0.95004  0.33782  0.96558  1.0000
  C   C2127     1.0  0.51371  0.16261  0.94140  1.0000
  H   H1690     1.0  0.92444  0.28883  0.78260  1.0000
  H   H1691     1.0  0.77406  0.15059  0.78868  1.0000
  H   H1692     1.0  0.89743  0.21690  0.78005  1.0000
  H   H1693     1.0  0.67756  0.06626  0.94687  1.0000
  H   H1694     1.0  0.76519  0.19263  0.78397  1.0000
  C   C2128     1.0  0.87882  0.22026  0.97919  1.0000
  H   H1695     1.0  0.57168  0.04065  0.93142  1.0000
  H   H1696     1.0  0.79149  0.21809  0.75665  1.0000
  C   C2129     1.0  0.86028  0.23490  0.98573  1.0000
  H   H1697     1.0  0.73437  0.28183  0.74722  1.0000
  C   C2130     1.0  0.78581  0.09202  0.93699  1.0000
  H   H1698     1.0  0.66548  0.00769  0.82226  1.0000
  C   C2131     1.0  0.93470  0.27690  0.90992  1.0000
  C   C2132     1.0  0.95320  0.30268  0.88793  1.0000
  H   H1699     1.0  0.87908  0.30168  0.96261  1.0000
  C   C2133     1.0  0.89347  0.21464  0.80885  1.0000
  H   H1700     1.0  0.60202  0.12913  0.89165  1.0000
  H   H1701     1.0  0.58086  0.14226  0.86436  1.0000
  C   C2134     1.0  0.98072  0.26950  0.82964  1.0000
  H   H1702     1.0  0.69938  0.01188  0.78177  1.0000
  H   H1703     1.0  0.81877  0.24265  0.77066  1.0000
  C   C2135     1.0  0.53433  0.13362  0.89306  1.0000
  C   C2136     1.0  0.92207  0.48655  0.95342  1.0000
  C   C2137     1.0  0.58311  0.12993  0.89193  1.0000
  H   H1704     1.0  0.93446  0.36296  0.89779  1.0000
  C   C2138     1.0  0.92479  0.31828  0.98057  1.0000
  C   C2139     1.0  0.57117  0.13748  0.87658  1.0000
  H   H1705     1.0  0.53759  0.14586  0.86537  1.0000
  H   H1706     1.0  0.91745  0.24875  0.89915  1.0000
  H   H1707     1.0  0.80628  0.31867  0.75047  1.0000
  C   C2140     1.0  0.90485  0.22089  0.79260  1.0000
  P   P72       1.0  0.74042  0.22025  0.75588  1.0000
  H   H1708     1.0  0.91586  0.21615  0.97373  1.0000
  C   C2141     1.0  0.56347  0.05473  0.93918  1.0000
  H   H1709     1.0  0.68688  0.12031  0.76993  1.0000
  Fe  Fe144     1.0  0.62598  0.09217  0.98822  1.0000
  H   H1710     1.0  0.83066  0.48859  0.78284  1.0000
  C   C2142     1.0  0.80013  0.24644  0.77242  1.0000
  H   H1711     1.0  0.53775  0.20401  0.96470  1.0000
  H   H1712     1.0  0.56818  0.03618  0.96459  1.0000
  H   H1713     1.0  0.79085  0.07449  0.94190  1.0000
  C   C2143     1.0  0.95528  0.36058  0.83357  1.0000
  C   C2144     1.0  0.94926  0.36098  0.90629  1.0000
  C   C2145     1.0  0.90661  0.26001  0.74700  1.0000
  H   H1714     1.0  0.73527  0.99654  0.75435  1.0000
  H   H1715     1.0  0.94773  0.15839  0.75692  1.0000
  C   C2146     1.0  0.96756  0.25225  0.77512  1.0000
  C   C2147     1.0  0.93101  0.36419  0.83448  1.0000
  C   C2148     1.0  0.85090  0.32807  0.96297  1.0000
  C   C2149     1.0  0.91850  0.35733  0.85001  1.0000
  C   C2150     1.0  0.51561  0.18358  0.94992  1.0000
  C   C2151     1.0  0.98626  0.35585  0.92967  1.0000
  C   C2152     1.0  0.92238  0.23271  0.82524  1.0000
  C   C2153     1.0  0.66476  0.99471  0.89158  1.0000
  H   H1716     1.0  0.82177  0.39952  0.76173  1.0000
  H   H1717     1.0  0.76329  0.12303  0.76607  1.0000
  H   H1718     1.0  0.92009  0.34052  0.87606  1.0000
  C   C2154     1.0  0.94761  0.29626  0.90590  1.0000
  H   H1719     1.0  0.84963  0.32888  0.94847  1.0000
  C   C2155     1.0  0.76621  0.15711  0.77630  1.0000
  C   C2156     1.0  0.93020  0.34666  0.86453  1.0000
  C   C2157     1.0  0.62475  0.03593  0.98887  1.0000
  C   C2158     1.0  0.72755  0.15419  0.95547  1.0000
  H   H1720     1.0  0.49202  0.08126  0.97269  1.0000
  C   C2159     1.0  0.90151  0.22747  0.97891  1.0000
  C   C2160     1.0  0.87017  0.31241  0.98975  1.0000
  H   H1721     1.0  0.94863  0.24933  0.80929  1.0000
  H   H1722     1.0  0.50113  0.19665  0.95005  1.0000
  C   C2161     1.0  0.75019  0.18978  0.75796  1.0000
  H   H1723     1.0  0.98481  0.32259  0.80886  1.0000
  P   P73       1.0  0.63767  0.99092  0.92350  1.0000
  C   C2162     1.0  0.93346  0.26971  0.87819  1.0000
  H   H1724     1.0  0.54945  0.06836  0.98251  1.0000
  C   C2163     1.0  0.90572  0.24932  0.98519  1.0000
  S   S288      1.0  0.85637  0.47090  0.98049  1.0000
  C   C2164     1.0  0.94524  0.21777  0.75694  1.0000
  C   C2165     1.0  0.71307  0.09277  0.76416  1.0000
  H   H1725     1.0  0.93305  0.38469  0.92547  1.0000
  C   C2166     1.0  0.80443  0.39969  0.75657  1.0000
  C   C2167     1.0  0.81859  0.33187  0.74795  1.0000
  C   C2168     1.0  0.74907  0.15014  0.74804  1.0000
  C   C2169     1.0  0.76028  0.39904  0.74247  1.0000
  C   C2170     1.0  0.71766  0.16628  0.97017  1.0000
  H   H1726     1.0  0.60108  0.34867  0.76002  1.0000
  H   H1727     1.0  0.49401  0.02049  0.94102  1.0000
  H   H1728     1.0  0.72869  0.17222  0.98025  1.0000
  C   C2171     1.0  0.72521  0.08010  0.75074  1.0000
  H   H1729     1.0  0.98807  0.35793  0.97300  1.0000
  C   C2172     1.0  0.67180  0.39555  0.76980  1.0000
  H   H1730     1.0  0.90485  0.48324  0.95900  1.0000
  C   C2173     1.0  0.69352  0.17069  0.97191  1.0000
  H   H1731     1.0  0.65616  0.99284  0.78535  1.0000
  H   H1732     1.0  0.73830  0.06650  0.75448  1.0000
  C   C2174     1.0  0.96686  0.37095  0.93374  1.0000
  C   C2175     1.0  0.68940  0.99180  0.95964  1.0000
  C   C2176     1.0  0.98710  0.34315  0.91398  1.0000
  C   C2177     1.0  0.49448  0.05192  0.95539  1.0000
  C   C2178     1.0  0.51123  0.13863  0.99048  1.0000
  H   H1733     1.0  0.48956  0.12367  0.95357  1.0000
  C   C2179     1.0  0.97920  0.71135  0.20518  1.0000
  Fe  Fe145     1.0  0.61564  0.90511  0.02172  1.0000
  S   S289      1.0  0.64356  0.90578  0.04295  1.0000
  S   S290      1.0  0.57873  0.92028  0.02472  1.0000
  Fe  Fe146     1.0  0.67797  0.87297  0.14766  1.0000
  S   S291      1.0  0.70906  0.89444  0.14915  1.0000
  S   S292      1.0  0.65742  0.86417  0.12325  1.0000
  Fe  Fe147     1.0  0.67564  0.86238  0.18916  1.0000
  S   S293      1.0  0.70621  0.88370  0.19329  1.0000
  S   S294      1.0  0.65601  0.83857  0.20936  1.0000
  Fe  Fe148     1.0  0.69016  0.91041  0.17335  1.0000
  S   S295      1.0  0.68095  0.94939  0.17838  1.0000
  Fe  Fe149     1.0  0.72287  0.86606  0.16885  1.0000
  S   S296      1.0  0.76141  0.85252  0.16947  1.0000
  S   S297      1.0  0.65833  0.88999  0.17091  1.0000
  S   S298      1.0  0.69316  0.84363  0.16563  1.0000
  H   H1734     1.0  0.84516  0.57492  0.01784  1.0000
  H   H1735     1.0  0.59868  0.78002  0.23768  1.0000
  H   H1736     1.0  0.74225  0.72007  0.14503  1.0000
  Fe  Fe150     1.0  0.86969  0.64665  0.01217  1.0000
  S   S299      1.0  0.85036  0.66232  0.03691  1.0000
  S   S300      1.0  0.90428  0.62663  0.01359  1.0000
  Fe  Fe151     1.0  0.84855  0.73165  0.15996  1.0000
  S   S301      1.0  0.84690  0.69241  0.15960  1.0000
  S   S302      1.0  0.81211  0.75084  0.15826  1.0000
  Fe  Fe152     1.0  0.90228  0.72714  0.16219  1.0000
  S   S303      1.0  0.90319  0.68825  0.16260  1.0000
  S   S304      1.0  0.93552  0.74724  0.16217  1.0000
  Fe  Fe153     1.0  0.87791  0.69276  0.14009  1.0000
  S   S305      1.0  0.88841  0.66958  0.11616  1.0000
  Fe  Fe154     1.0  0.87203  0.69126  0.18206  1.0000
  S   S306      1.0  0.87182  0.66520  0.20632  1.0000
  S   S307      1.0  0.87807  0.73188  0.13891  1.0000
  S   S308      1.0  0.87264  0.73028  0.18328  1.0000
  C   C2180     1.0  0.96540  0.73634  0.16081  1.0000
  C   C2181     1.0  0.58809  0.77216  0.22819  1.0000
  H   H1737     1.0  0.70494  0.94897  0.07724  1.0000
  C   C2182     1.0  0.70950  0.79619  0.24045  1.0000
  C   C2183     1.0  0.65263  0.97141  0.03744  1.0000
  H   H1738     1.0  0.98647  0.71518  0.11547  1.0000
  C   C2184     1.0  0.85162  0.66256  0.22507  1.0000
  C   C2185     1.0  0.78134  0.74637  0.22193  1.0000
  C   C2186     1.0  0.96964  0.57731  0.03859  1.0000
  C   C2187     1.0  0.92205  0.72167  0.10174  1.0000
  C   C2188     1.0  0.50746  0.88241  0.07327  1.0000
  C   C2189     1.0  0.61802  0.95443  0.08124  1.0000
  C   C2190     1.0  0.86179  0.66507  0.05861  1.0000
  C   C2191     1.0  0.88373  0.65507  0.06321  1.0000
  C   C2192     1.0  0.89162  0.65697  0.08077  1.0000
  C   C2193     1.0  0.87792  0.66904  0.09396  1.0000
  C   C2194     1.0  0.85615  0.67932  0.08931  1.0000
  C   C2195     1.0  0.84808  0.67712  0.07181  1.0000
  H   H1739     1.0  0.89450  0.64572  0.05328  1.0000
  H   H1740     1.0  0.90852  0.64913  0.08416  1.0000
  H   H1741     1.0  0.84537  0.68853  0.09930  1.0000
  H   H1742     1.0  0.83102  0.68465  0.06846  1.0000
  H   H1743     1.0  0.92090  0.75486  0.11428  1.0000
  H   H1744     1.0  0.84717  0.75232  0.22918  1.0000
  H   H1745     1.0  0.60675  0.93946  0.05729  1.0000
  H   H1746     1.0  0.98000  0.73010  0.20479  1.0000
  H   H1747     1.0  0.66851  0.95954  0.13815  1.0000
  C   C2196     1.0  0.69203  0.97711  0.17276  1.0000
  H   H1748     1.0  0.67193  0.86640  0.02761  1.0000
  C   C2197     1.0  0.77498  0.82388  0.16698  1.0000
  C   C2198     1.0  0.79916  0.82011  0.16920  1.0000
  C   C2199     1.0  0.81079  0.79791  0.16691  1.0000
  C   C2200     1.0  0.79847  0.77923  0.16193  1.0000
  C   C2201     1.0  0.77425  0.78295  0.15995  1.0000
  C   C2202     1.0  0.76255  0.80501  0.16257  1.0000
  H   H1749     1.0  0.80899  0.83451  0.17268  1.0000
  H   H1750     1.0  0.82931  0.79536  0.16880  1.0000
  H   H1751     1.0  0.76441  0.76866  0.15634  1.0000
  H   H1752     1.0  0.74395  0.80748  0.16091  1.0000
  C   C2203     1.0  0.67485  0.96009  0.03753  1.0000
  H   H1753     1.0  0.72457  0.96414  0.16050  1.0000
  H   H1754     1.0  0.51738  0.96303  0.01008  1.0000
  C   C2204     1.0  0.64919  0.83811  0.23300  1.0000
  C   C2205     1.0  0.67624  0.95745  0.12473  1.0000
  H   H1755     1.0  0.72804  0.93984  0.10436  1.0000
  H   H1756     1.0  0.63136  0.80656  0.23212  1.0000
  C   C2206     1.0  0.64611  0.89506  0.06564  1.0000
  C   C2207     1.0  0.66424  0.90234  0.07579  1.0000
  C   C2208     1.0  0.66757  0.89373  0.09361  1.0000
  C   C2209     1.0  0.65304  0.87730  0.10141  1.0000
  C   C2210     1.0  0.63480  0.87020  0.09130  1.0000
  C   C2211     1.0  0.63120  0.87914  0.07361  1.0000
  H   H1757     1.0  0.67591  0.91458  0.06975  1.0000
  H   H1758     1.0  0.68170  0.89936  0.10115  1.0000
  H   H1759     1.0  0.62346  0.85750  0.09716  1.0000
  H   H1760     1.0  0.61722  0.87331  0.06602  1.0000
  H   H1761     1.0  0.91622  0.51600  0.00576  1.0000
  H   H1762     1.0  0.67818  0.88183  0.99634  1.0000
  C   C2212     1.0  0.69962  0.94942  0.12284  1.0000
  C   C2213     1.0  0.98593  0.60383  0.99326  1.0000
  C   C2214     1.0  0.85360  0.64251  0.23657  1.0000
  C   C2215     1.0  0.94787  0.65473  0.12815  1.0000
  C   C2216     1.0  0.73780  0.78929  0.20947  1.0000
  C   C2217     1.0  0.74804  0.73553  0.19497  1.0000
  H   H1763     1.0  0.92775  0.68761  0.09120  1.0000
  C   C2218     1.0  0.76337  0.71583  0.16830  1.0000
  C   C2219     1.0  0.74369  0.72412  0.15901  1.0000
  C   C2220     1.0  0.72602  0.73785  0.16771  1.0000
  C   C2221     1.0  0.72811  0.74347  0.18566  1.0000
  H   H1764     1.0  0.70369  0.98106  0.21200  1.0000
  C   C2222     1.0  0.97202  0.71249  0.16112  1.0000
  C   C2223     1.0  0.49897  0.89050  0.05669  1.0000
  H   H1765     1.0  0.71079  0.74437  0.16050  1.0000
  H   H1766     1.0  0.71425  0.75413  0.19217  1.0000
  H   H1767     1.0  0.92674  0.64190  0.15035  1.0000
  C   C2224     1.0  0.79551  0.75621  0.20832  1.0000
  C   C2225     1.0  0.98307  0.75217  0.15987  1.0000
  C   C2226     1.0  0.87598  0.52166  0.07539  1.0000
  C   C2227     1.0  0.89455  0.53125  0.06554  1.0000
  C   C2228     1.0  0.90631  0.51818  0.05198  1.0000
  P   P74       1.0  0.89954  0.56172  0.06735  1.0000
  C   C2229     1.0  0.87527  0.57704  0.05622  1.0000
  C   C2230     1.0  0.90197  0.57120  0.09004  1.0000
  C   C2231     1.0  0.90666  0.59444  0.09265  1.0000
  C   C2232     1.0  0.90807  0.60252  0.11000  1.0000
  C   C2233     1.0  0.90542  0.58732  0.12489  1.0000
  C   C2234     1.0  0.90176  0.56391  0.12243  1.0000
  C   C2235     1.0  0.90021  0.55580  0.10506  1.0000
  C   C2236     1.0  0.86844  0.56924  0.03970  1.0000
  C   C2237     1.0  0.84982  0.58074  0.03080  1.0000
  C   C2238     1.0  0.83760  0.59995  0.03842  1.0000
  C   C2239     1.0  0.84379  0.60743  0.05507  1.0000
  C   C2240     1.0  0.86251  0.59607  0.06397  1.0000
  C   C2241     1.0  0.92695  0.56766  0.05600  1.0000
  C   C2242     1.0  0.94802  0.56214  0.06460  1.0000
  P   P75       1.0  0.97536  0.67107  0.09896  1.0000
  H   H1768     1.0  0.49012  0.93651  0.02547  1.0000
  C   C2243     1.0  0.94875  0.58252  0.02993  1.0000
  C   C2244     1.0  0.92755  0.57785  0.03863  1.0000
  C   C2245     1.0  0.74020  0.71858  0.23119  1.0000
  C   C2246     1.0  0.67352  0.95964  0.09229  1.0000
  C   C2247     1.0  0.96694  0.64994  0.11618  1.0000
  H   H1769     1.0  0.86543  0.53201  0.08490  1.0000
  H   H1770     1.0  0.91925  0.52582  0.04312  1.0000
  H   H1771     1.0  0.90858  0.60649  0.08122  1.0000
  H   H1772     1.0  0.91071  0.62074  0.11192  1.0000
  H   H1773     1.0  0.90602  0.59377  0.13833  1.0000
  H   H1774     1.0  0.89985  0.55212  0.13401  1.0000
  H   H1775     1.0  0.89766  0.53759  0.10352  1.0000
  H   H1776     1.0  0.87775  0.55449  0.03345  1.0000
  H   H1777     1.0  0.90384  0.72325  0.09841  1.0000
  H   H1778     1.0  0.85579  0.49166  0.08002  1.0000
  H   H1779     1.0  0.83438  0.62248  0.06088  1.0000
  H   H1780     1.0  0.86671  0.60242  0.07680  1.0000
  H   H1781     1.0  0.94798  0.55421  0.07803  1.0000
  H   H1782     1.0  0.94879  0.59030  0.01646  1.0000
  H   H1783     1.0  0.91167  0.58232  0.03174  1.0000
  H   H1784     1.0  0.94973  0.60391  0.15313  1.0000
  S   S309      1.0  0.60658  0.87828  0.00220  1.0000
  H   H1785     1.0  0.72701  0.82484  0.20193  1.0000
  H   H1786     1.0  0.94011  0.67035  0.20152  1.0000
  C   C2248     1.0  0.59417  0.97547  0.05909  1.0000
  C   C2249     1.0  0.95675  0.67765  0.20311  1.0000
  C   C2250     1.0  0.97983  0.62838  0.11777  1.0000
  C   C2251     1.0  0.95084  0.63473  0.05810  1.0000
  C   C2252     1.0  0.70997  0.94636  0.10574  1.0000
  H   H1787     1.0  0.98548  0.56307  0.06267  1.0000
  C   C2253     1.0  0.69387  0.97219  0.04201  1.0000
  C   C2254     1.0  0.95495  0.73698  0.11530  1.0000
  Fe  Fe155     1.0  0.56980  0.89563  0.00371  1.0000
  C   C2255     1.0  0.61788  0.97446  0.09143  1.0000
  H   H1788     1.0  0.98603  0.58127  0.03182  1.0000
  H   H1789     1.0  0.95878  0.70002  0.16164  1.0000
  H   H1790     1.0  0.55103  0.74400  0.19370  1.0000
  H   H1791     1.0  0.52583  0.87722  0.07437  1.0000
  C   C2256     1.0  0.88973  0.49598  0.99551  1.0000
  H   H1792     1.0  0.96223  0.75065  0.12244  1.0000
  H   H1793     1.0  0.67724  0.94192  0.03408  1.0000
  C   C2257     1.0  0.83418  0.67998  0.22909  1.0000
  C   C2258     1.0  0.96928  0.56707  0.05594  1.0000
  H   H1794     1.0  0.86706  0.62897  0.23369  1.0000
  C   C2259     1.0  0.81915  0.75832  0.21092  1.0000
  H   H1795     1.0  0.65072  0.83077  0.03339  1.0000
  C   C2260     1.0  0.62644  0.92881  0.12824  1.0000
  C   C2261     1.0  0.78332  0.83253  0.05147  1.0000
  C   C2262     1.0  0.80590  0.83287  0.04390  1.0000
  C   C2263     1.0  0.82475  0.82290  0.05342  1.0000
  C   C2264     1.0  0.82103  0.81261  0.07053  1.0000
  C   C2265     1.0  0.79840  0.81228  0.07827  1.0000
  C   C2266     1.0  0.77953  0.82223  0.06857  1.0000
  P   P76       1.0  0.79397  0.79840  0.10021  1.0000
  C   C2267     1.0  0.76530  0.80774  0.10925  1.0000
  C   C2268     1.0  0.79552  0.76710  0.09858  1.0000
  C   C2269     1.0  0.80347  0.75636  0.08264  1.0000
  C   C2270     1.0  0.80533  0.73205  0.08193  1.0000
  C   C2271     1.0  0.79938  0.71831  0.09709  1.0000
  C   C2272     1.0  0.79135  0.72889  0.11295  1.0000
  C   C2273     1.0  0.78918  0.75318  0.11363  1.0000
  C   C2274     1.0  0.76194  0.82666  0.12063  1.0000
  C   C2275     1.0  0.73943  0.83483  0.12615  1.0000
  C   C2276     1.0  0.72010  0.82408  0.12056  1.0000
  C   C2277     1.0  0.72328  0.80495  0.10955  1.0000
  C   C2278     1.0  0.74576  0.79678  0.10391  1.0000
  C   C2279     1.0  0.81692  0.80706  0.11390  1.0000
  C   C2280     1.0  0.82129  0.83072  0.11454  1.0000
  C   C2281     1.0  0.83948  0.83759  0.12457  1.0000
  C   C2282     1.0  0.85381  0.82086  0.13369  1.0000
  C   C2283     1.0  0.85001  0.79727  0.13273  1.0000
  C   C2284     1.0  0.83166  0.79035  0.12290  1.0000
  H   H1796     1.0  0.76869  0.84025  0.04408  1.0000
  H   H1797     1.0  0.80879  0.84082  0.03063  1.0000
  H   H1798     1.0  0.84226  0.82306  0.04753  1.0000
  H   H1799     1.0  0.83581  0.80480  0.07770  1.0000
  H   H1800     1.0  0.76188  0.82220  0.07412  1.0000
  H   H1801     1.0  0.80843  0.76655  0.07078  1.0000
  H   H1802     1.0  0.81169  0.72384  0.06965  1.0000
  H   H1803     1.0  0.80124  0.69948  0.09661  1.0000
  H   H1804     1.0  0.78726  0.71833  0.12488  1.0000
  H   H1805     1.0  0.78324  0.76113  0.12607  1.0000
  H   H1806     1.0  0.77645  0.83513  0.12552  1.0000
  H   H1807     1.0  0.73701  0.84940  0.13497  1.0000
  H   H1808     1.0  0.70266  0.83058  0.12479  1.0000
  H   H1809     1.0  0.70824  0.79663  0.10527  1.0000
  H   H1810     1.0  0.74785  0.78220  0.09511  1.0000
  H   H1811     1.0  0.81055  0.84388  0.10734  1.0000
  H   H1812     1.0  0.84240  0.85590  0.12533  1.0000
  H   H1813     1.0  0.86779  0.82615  0.14159  1.0000
  H   H1814     1.0  0.86096  0.78427  0.13993  1.0000
  H   H1815     1.0  0.82910  0.77195  0.12256  1.0000
  H   H1816     1.0  0.82352  0.60930  0.03135  1.0000
  H   H1817     1.0  0.94212  0.61891  0.05668  1.0000
  C   C2285     1.0  0.65420  0.83693  0.01967  1.0000
  H   H1818     1.0  0.70133  0.83074  0.22912  1.0000
  H   H1819     1.0  0.83005  0.76522  0.20004  1.0000
  C   C2286     1.0  0.56136  0.75187  0.20334  1.0000
  H   H1820     1.0  0.95532  0.49439  0.04557  1.0000
  C   C2287     1.0  0.71382  0.97951  0.16413  1.0000
  H   H1821     1.0  0.59089  0.75513  0.18488  1.0000
  C   C2288     1.0  0.90035  0.49556  0.04893  1.0000
  H   H1822     1.0  0.63591  0.81033  0.00809  1.0000
  C   C2289     1.0  0.76546  0.72130  0.18626  1.0000
  S   S310      1.0  0.53632  0.87704  0.00966  1.0000
  H   H1823     1.0  0.95334  0.62974  0.08659  1.0000
  P   P77       1.0  0.63280  0.97288  0.11242  1.0000
  H   H1824     1.0  0.97597  0.64439  0.20407  1.0000
  C   C2290     1.0  0.49217  0.88049  0.08826  1.0000
  C   C2291     1.0  0.60630  0.95498  0.06514  1.0000
  C   C2292     1.0  0.96562  0.67002  0.04482  1.0000
  C   C2293     1.0  0.96864  0.71664  0.11138  1.0000
  H   H1825     1.0  0.83252  0.69561  0.22056  1.0000
  C   C2294     1.0  0.95510  0.64917  0.04298  1.0000
  C   C2295     1.0  0.72559  0.81082  0.21203  1.0000
  H   H1826     1.0  0.62723  0.93830  0.08574  1.0000
  H   H1827     1.0  0.94997  0.64440  0.02983  1.0000
  Fe  Fe156     1.0  0.89095  0.60250  0.99378  1.0000
  S   S311      1.0  0.57303  0.98088  0.00252  1.0000
  C   C2296     1.0  0.55213  0.75595  0.22070  1.0000
  H   H1828     1.0  0.58931  0.97696  0.13394  1.0000
  C   C2297     1.0  0.72205  0.77472  0.23808  1.0000
  C   C2298     1.0  0.97045  0.51499  0.00354  1.0000
  C   C2299     1.0  0.66614  0.85707  0.01643  1.0000
  C   C2300     1.0  0.95460  0.61670  0.14285  1.0000
  C   C2301     1.0  0.97366  0.61182  0.13106  1.0000
  C   C2302     1.0  0.66294  0.96244  0.10948  1.0000
  C   C2303     1.0  0.95780  0.70179  0.20344  1.0000
  H   H1829     1.0  0.73921  0.95986  0.19970  1.0000
  H   H1830     1.0  0.77732  0.70551  0.16153  1.0000
  C   C2304     1.0  0.49993  0.96213  0.00526  1.0000
  H   H1831     1.0  0.66536  0.86945  0.23859  1.0000
  H   H1832     1.0  0.63797  0.96199  0.03375  1.0000
  S   S312      1.0  0.62428  0.93035  0.99906  1.0000
  H   H1833     1.0  0.78091  0.71472  0.19317  1.0000
  C   C2305     1.0  0.95733  0.64098  0.07507  1.0000
  C   C2306     1.0  0.58453  0.94309  0.14612  1.0000
  H   H1834     1.0  0.74872  0.78699  0.19740  1.0000
  S   S313      1.0  0.85522  0.62125  0.99372  1.0000
  H   H1835     1.0  0.98365  0.59521  0.13220  1.0000
  H   H1836     1.0  0.97824  0.77068  0.15936  1.0000
  P   P78       1.0  0.75100  0.74296  0.21807  1.0000
  H   H1837     1.0  0.64244  0.92273  0.12126  1.0000
  H   H1838     1.0  0.71114  0.96342  0.04191  1.0000
  H   H1839     1.0  0.78842  0.76181  0.19552  1.0000
  H   H1840     1.0  0.56827  0.94856  0.15302  1.0000
  H   H1841     1.0  0.93756  0.67118  0.12738  1.0000
  C   C2307     1.0  0.93163  0.73941  0.11065  1.0000
  H   H1842     1.0  0.53466  0.75111  0.22425  1.0000
  H   H1843     1.0  0.58427  0.90745  0.15625  1.0000
  C   C2308     1.0  0.95901  0.69854  0.10269  1.0000
  C   C2309     1.0  0.59347  0.91994  0.14791  1.0000
  H   H1844     1.0  0.61457  0.77322  0.20694  1.0000
  H   H1845     1.0  0.70960  0.94534  0.13471  1.0000
  C   C2310     1.0  0.96810  0.66186  0.07703  1.0000
  H   H1846     1.0  0.70407  0.73203  0.23201  1.0000
  H   H1847     1.0  0.94210  0.71315  0.20179  1.0000
  C   C2311     1.0  0.59656  0.95915  0.13540  1.0000
  C   C2312     1.0  0.61430  0.91279  0.13886  1.0000
  C   C2313     1.0  0.58384  0.75809  0.19838  1.0000
  C   C2314     1.0  0.97712  0.66305  0.20454  1.0000
  C   C2315     1.0  0.93570  0.70140  0.09768  1.0000
  C   C2316     1.0  0.96287  0.51520  0.02161  1.0000
  C   C2317     1.0  0.73567  0.77086  0.22224  1.0000
  C   C2318     1.0  0.97191  0.67648  0.06179  1.0000
  C   C2319     1.0  0.96140  0.49427  0.03162  1.0000
  C   C2320     1.0  0.61788  0.95224  0.12673  1.0000
  C   C2321     1.0  0.69695  0.95154  0.09048  1.0000
  H   H1848     1.0  0.66386  0.96361  0.08027  1.0000
  H   H1849     1.0  0.62112  0.89477  0.14007  1.0000
  C   C2322     1.0  0.94170  0.63811  0.14136  1.0000
  C   C2323     1.0  0.50856  0.88507  0.00068  1.0000
  S   S314      1.0  0.90298  0.56410  0.99866  1.0000
  C   C2324     1.0  0.64595  0.82535  0.00529  1.0000
  C   C2325     1.0  0.76092  0.98854  0.20231  1.0000
  C   C2326     1.0  0.63662  0.81982  0.24068  1.0000
  C   C2327     1.0  0.59720  0.76822  0.21081  1.0000
  H   H1850     1.0  0.51073  0.89135  0.04493  1.0000
  H   H1851     1.0  0.95775  0.53164  0.02769  1.0000
  C   C2328     1.0  0.74000  0.97759  0.20394  1.0000
  Fe  Fe157     1.0  0.58699  0.94357  0.00095  1.0000
  C   C2329     1.0  0.89975  0.51681  0.99923  1.0000
  H   H1852     1.0  0.96858  0.68129  0.03305  1.0000
  C   C2330     1.0  0.56539  0.76628  0.23322  1.0000
  H   H1853     1.0  0.49873  0.87366  0.10098  1.0000
  H   H1854     1.0  0.97961  0.69295  0.06306  1.0000
  C   C2331     1.0  0.82872  0.75115  0.22734  1.0000
  C   C2332     1.0  0.75532  0.69910  0.23541  1.0000
  C   C2333     1.0  0.79083  0.74018  0.23866  1.0000
  C   C2334     1.0  0.88880  0.53862  0.99436  1.0000
  C   C2335     1.0  0.71646  0.71808  0.23625  1.0000
  H   H1855     1.0  0.77324  0.69813  0.23038  1.0000
  H   H1856     1.0  0.77649  0.97916  0.19698  1.0000
  C   C2336     1.0  0.66977  0.86570  0.99882  1.0000
  C   C2337     1.0  0.97696  0.49377  0.99542  1.0000
  H   H1857     1.0  0.56575  0.81464  0.23446  1.0000
  C   C2338     1.0  0.71123  0.81419  0.22741  1.0000
  C   C2339     1.0  0.87023  0.49892  0.07247  1.0000
  H   H1858     1.0  0.97104  0.53140  0.99594  1.0000
  H   H1859     1.0  0.58530  0.97591  0.04646  1.0000
  H   H1860     1.0  0.62989  0.98556  0.15048  1.0000
  H   H1861     1.0  0.49090  0.86181  0.01911  1.0000
  C   C2340     1.0  0.81450  0.74230  0.24128  1.0000
  C   C2341     1.0  0.97067  0.64418  0.99217  1.0000
  Fe  Fe158     1.0  0.61580  0.80649  0.31261  1.0000
  S   S315      1.0  0.60121  0.77405  0.30347  1.0000
  S   S316      1.0  0.62908  0.83589  0.29394  1.0000
  Fe  Fe159     1.0  0.61098  0.79109  0.35264  1.0000
  S   S317      1.0  0.59686  0.75716  0.34545  1.0000
  S   S318      1.0  0.61267  0.79484  0.38320  1.0000
  Fe  Fe160     1.0  0.62485  0.75483  0.32347  1.0000
  S   S319      1.0  0.64653  0.72309  0.31214  1.0000
  Fe  Fe161     1.0  0.57416  0.77887  0.32625  1.0000
  S   S320      1.0  0.53530  0.77112  0.33001  1.0000
  S   S321      1.0  0.64048  0.78723  0.33175  1.0000
  S   S322      1.0  0.58735  0.81281  0.33427  1.0000
  H   H1862     1.0  0.51222  0.90817  0.45041  1.0000
  C   C2342     1.0  0.78327  0.55894  0.46273  1.0000
  C   C2343     1.0  0.98226  0.59053  0.45543  1.0000
  C   C2344     1.0  0.62287  0.97609  0.45060  1.0000
  H   H1863     1.0  0.92125  0.56213  0.41950  1.0000
  H   H1864     1.0  0.81343  0.49442  0.31488  1.0000
  Fe  Fe162     1.0  0.61075  0.87968  0.46835  1.0000
  S   S323      1.0  0.62283  0.87559  0.43876  1.0000
  S   S324      1.0  0.57477  0.89657  0.47225  1.0000
  Fe  Fe163     1.0  0.75685  0.62665  0.32809  1.0000
  S   S325      1.0  0.78879  0.64660  0.32448  1.0000
  S   S326      1.0  0.72543  0.64789  0.34086  1.0000
  Fe  Fe164     1.0  0.78429  0.58088  0.31661  1.0000
  S   S327      1.0  0.81737  0.59973  0.31177  1.0000
  S   S328      1.0  0.79272  0.54128  0.31329  1.0000
  Fe  Fe165     1.0  0.80799  0.61615  0.33834  1.0000
  S   S329      1.0  0.83721  0.61932  0.35808  1.0000
  Fe  Fe166     1.0  0.79528  0.62866  0.29829  1.0000
  S   S330      1.0  0.80048  0.65470  0.27431  1.0000
  S   S331      1.0  0.77587  0.59673  0.34363  1.0000
  S   S332      1.0  0.76246  0.60916  0.30140  1.0000
  Fe  Fe167     1.0  0.86459  0.61310  0.46417  1.0000
  S   S333      1.0  0.90242  0.60279  0.45832  1.0000
  S   S334      1.0  0.83539  0.62035  0.44419  1.0000
  C   C2345     1.0  0.86466  0.55589  0.41032  1.0000
  C   C2346     1.0  0.81900  0.55833  0.44435  1.0000
  H   H1865     1.0  0.69821  0.79893  0.25230  1.0000
  H   H1866     1.0  0.76072  0.70795  0.27915  1.0000
  H   H1867     1.0  0.66489  0.98094  0.41754  1.0000
  H   H1868     1.0  0.55009  0.78080  0.42182  1.0000
  C   C2347     1.0  0.53718  0.81500  0.41178  1.0000
  H   H1869     1.0  0.83553  0.52297  0.35409  1.0000
  H   H1870     1.0  0.52025  0.78059  0.45106  1.0000
  C   C2348     1.0  0.87984  0.52377  0.42942  1.0000
  C   C2349     1.0  0.55442  0.86351  0.42570  1.0000
  H   H1871     1.0  0.60628  0.79625  0.42159  1.0000
  H   H1872     1.0  0.97174  0.56050  0.38924  1.0000
  C   C2350     1.0  0.82065  0.65700  0.25556  1.0000
  H   H1873     1.0  0.77727  0.77588  0.29474  1.0000
  C   C2351     1.0  0.64209  0.96984  0.43934  1.0000
  C   C2352     1.0  0.83623  0.61855  0.38206  1.0000
  C   C2353     1.0  0.85700  0.62055  0.39106  1.0000
  C   C2354     1.0  0.85715  0.62057  0.41002  1.0000
  C   C2355     1.0  0.83644  0.61879  0.42029  1.0000
  C   C2356     1.0  0.81564  0.61676  0.41131  1.0000
  C   C2357     1.0  0.81552  0.61648  0.39233  1.0000
  H   H1874     1.0  0.87310  0.62229  0.38327  1.0000
  H   H1875     1.0  0.87323  0.62243  0.41669  1.0000
  H   H1876     1.0  0.79946  0.61552  0.41908  1.0000
  H   H1877     1.0  0.79939  0.61501  0.38564  1.0000
  H   H1878     1.0  0.52649  0.84694  0.39718  1.0000
  C   C2358     1.0  0.50848  0.79310  0.25207  1.0000
  C   C2359     1.0  0.77997  0.51376  0.31496  1.0000
  C   C2360     1.0  0.75587  0.51175  0.31542  1.0000
  C   C2361     1.0  0.80321  0.53900  0.36446  1.0000
  H   H1879     1.0  0.55561  0.79150  0.36464  1.0000
  H   H1880     1.0  0.74422  0.52733  0.31503  1.0000
  S   S335      1.0  0.91449  0.53847  0.47367  1.0000
  H   H1881     1.0  0.53875  0.83206  0.36739  1.0000
  C   C2362     1.0  0.86122  0.53491  0.42006  1.0000
  Fe  Fe168     1.0  0.89756  0.57387  0.47878  1.0000
  C   C2363     1.0  0.54252  0.80938  0.45113  1.0000
  C   C2364     1.0  0.83817  0.63965  0.25164  1.0000
  C   C2365     1.0  0.66993  0.70390  0.32024  1.0000
  C   C2366     1.0  0.68228  0.68886  0.30814  1.0000
  C   C2367     1.0  0.70012  0.67248  0.31399  1.0000
  C   C2368     1.0  0.70541  0.67037  0.33220  1.0000
  C   C2369     1.0  0.69327  0.68560  0.34425  1.0000
  C   C2370     1.0  0.67589  0.70244  0.33831  1.0000
  H   H1882     1.0  0.67768  0.68955  0.29420  1.0000
  H   H1883     1.0  0.70903  0.66077  0.30457  1.0000
  H   H1884     1.0  0.69697  0.68402  0.35839  1.0000
  H   H1885     1.0  0.66648  0.71366  0.34784  1.0000
  C   C2371     1.0  0.63701  0.83587  0.27049  1.0000
  C   C2372     1.0  0.64966  0.85411  0.26283  1.0000
  C   C2373     1.0  0.63050  0.81871  0.25925  1.0000
  H   H1886     1.0  0.65465  0.86761  0.27131  1.0000
  H   H1887     1.0  0.62020  0.80496  0.26478  1.0000
  C   C2374     1.0  0.50688  0.77662  0.32112  1.0000
  H   H1888     1.0  0.55653  0.79360  0.29046  1.0000
  C   C2375     1.0  0.96944  0.63176  0.48830  1.0000
  C   C2376     1.0  0.83413  0.52257  0.38315  1.0000
  H   H1889     1.0  0.51670  0.80007  0.29935  1.0000
  C   C2377     1.0  0.61362  0.81819  0.39820  1.0000
  C   C2378     1.0  0.61873  0.84070  0.39228  1.0000
  C   C2379     1.0  0.62116  0.85807  0.40485  1.0000
  C   C2380     1.0  0.61812  0.85335  0.42349  1.0000
  C   C2381     1.0  0.61233  0.83103  0.42937  1.0000
  C   C2382     1.0  0.61020  0.81359  0.41682  1.0000
  H   H1890     1.0  0.62138  0.84455  0.37805  1.0000
  H   H1891     1.0  0.62569  0.87522  0.40012  1.0000
  H   H1892     1.0  0.61023  0.82699  0.44362  1.0000
  C   C2383     1.0  0.56244  0.72964  0.30058  1.0000
  C   C2384     1.0  0.77000  0.71892  0.28751  1.0000
  C   C2385     1.0  0.76025  0.83694  0.27755  1.0000
  C   C2386     1.0  0.56128  0.80616  0.28002  1.0000
  C   C2387     1.0  0.79428  0.74677  0.30917  1.0000
  C   C2388     1.0  0.79737  0.72240  0.31111  1.0000
  C   C2389     1.0  0.78501  0.70858  0.30025  1.0000
  P   P79       1.0  0.81760  0.70860  0.32683  1.0000
  C   C2390     1.0  0.80244  0.69575  0.34613  1.0000
  C   C2391     1.0  0.83576  0.68700  0.31471  1.0000
  C   C2392     1.0  0.84369  0.66587  0.32317  1.0000
  C   C2393     1.0  0.85699  0.64901  0.31350  1.0000
  C   C2394     1.0  0.86277  0.65321  0.29532  1.0000
  C   C2395     1.0  0.85543  0.67437  0.28685  1.0000
  C   C2396     1.0  0.84185  0.69113  0.29643  1.0000
  C   C2397     1.0  0.81499  0.68737  0.36114  1.0000
  C   C2398     1.0  0.80367  0.67653  0.37582  1.0000
  C   C2399     1.0  0.77968  0.67430  0.37579  1.0000
  C   C2400     1.0  0.76695  0.68319  0.36119  1.0000
  C   C2401     1.0  0.77822  0.69395  0.34642  1.0000
  C   C2402     1.0  0.83586  0.72999  0.33479  1.0000
  C   C2403     1.0  0.82902  0.74224  0.35029  1.0000
  C   C2404     1.0  0.84293  0.75901  0.35643  1.0000
  C   C2405     1.0  0.86370  0.76377  0.34708  1.0000
  C   C2406     1.0  0.87054  0.75179  0.33157  1.0000
  C   C2407     1.0  0.85668  0.73498  0.32541  1.0000
  H   H1893     1.0  0.83980  0.62404  0.26019  1.0000
  C   C2408     1.0  0.57360  0.83939  0.25360  1.0000
  C   C2409     1.0  0.78426  0.50157  0.26750  1.0000
  H   H1894     1.0  0.80353  0.75786  0.31737  1.0000
  H   H1895     1.0  0.78721  0.68974  0.30145  1.0000
  H   H1896     1.0  0.83917  0.66187  0.33708  1.0000
  H   H1897     1.0  0.86227  0.63245  0.32008  1.0000
  H   H1898     1.0  0.87252  0.63989  0.28770  1.0000
  H   H1899     1.0  0.85954  0.67741  0.27265  1.0000
  H   H1900     1.0  0.83577  0.70710  0.28944  1.0000
  H   H1901     1.0  0.83367  0.68855  0.36129  1.0000
  H   H1902     1.0  0.81362  0.66923  0.38701  1.0000
  H   H1903     1.0  0.77103  0.66528  0.38693  1.0000
  H   H1904     1.0  0.74840  0.68104  0.36103  1.0000
  H   H1905     1.0  0.76796  0.70004  0.33511  1.0000
  H   H1906     1.0  0.81300  0.73876  0.35771  1.0000
  H   H1907     1.0  0.83769  0.76822  0.36851  1.0000
  H   H1908     1.0  0.87454  0.77669  0.35190  1.0000
  H   H1909     1.0  0.88667  0.75544  0.32434  1.0000
  H   H1910     1.0  0.86234  0.72591  0.31339  1.0000
  C   C2410     1.0  0.88633  0.56548  0.40996  1.0000
  C   C2411     1.0  0.55969  0.88680  0.42610  1.0000
  H   H1911     1.0  0.77321  0.55502  0.37839  1.0000
  H   H1912     1.0  0.77098  0.84770  0.26884  1.0000
  H   H1913     1.0  0.80219  0.53183  0.27330  1.0000
  C   C2412     1.0  0.79878  0.54051  0.39688  1.0000
  C   C2413     1.0  0.82609  0.50335  0.26505  1.0000
  C   C2414     1.0  0.49965  0.83059  0.34302  1.0000
  C   C2415     1.0  0.77830  0.53754  0.45608  1.0000
  H   H1914     1.0  0.91262  0.49125  0.46367  1.0000
  C   C2416     1.0  0.56658  0.81786  0.24862  1.0000
  C   C2417     1.0  0.53497  0.78758  0.45705  1.0000
  C   C2418     1.0  0.52202  0.77241  0.25602  1.0000
  H   H1915     1.0  0.76657  0.49291  0.35387  1.0000
  H   H1916     1.0  0.78843  0.54632  0.40850  1.0000
  C   C2419     1.0  0.79369  0.52649  0.44359  1.0000
  C   C2420     1.0  0.51975  0.83622  0.33309  1.0000
  C   C2421     1.0  0.90145  0.53346  0.42902  1.0000
  H   H1917     1.0  0.53074  0.82258  0.32677  1.0000
  C   C2422     1.0  0.51858  0.87243  0.44302  1.0000
  C   C2423     1.0  0.98820  0.56688  0.39270  1.0000
  C   C2424     1.0  0.54063  0.82083  0.37929  1.0000
  S   S336      1.0  0.62652  0.90483  0.48630  1.0000
  H   H1918     1.0  0.85052  0.56512  0.40320  1.0000
  C   C2425     1.0  0.49669  0.82221  0.43724  1.0000
  H   H1919     1.0  0.57882  0.85212  0.24338  1.0000
  C   C2426     1.0  0.54650  0.77457  0.47068  1.0000
  H   H1920     1.0  0.56780  0.83482  0.45503  1.0000
  C   C2427     1.0  0.72403  0.68071  0.25188  1.0000
  H   H1921     1.0  0.71793  0.66624  0.26012  1.0000
  C   C2428     1.0  0.74740  0.68050  0.24605  1.0000
  H   H1922     1.0  0.58084  0.86059  0.27564  1.0000
  C   C2429     1.0  0.57321  0.80486  0.47267  1.0000
  C   C2430     1.0  0.66710  0.84778  0.32694  1.0000
  C   C2431     1.0  0.66231  0.84388  0.34531  1.0000
  C   C2432     1.0  0.67303  0.82458  0.35437  1.0000
  C   C2433     1.0  0.68847  0.80905  0.34504  1.0000
  C   C2434     1.0  0.69319  0.81269  0.32648  1.0000
  C   C2435     1.0  0.68249  0.83231  0.31756  1.0000
  P   P80       1.0  0.71259  0.79246  0.31407  1.0000
  C   C2436     1.0  0.73182  0.80943  0.29991  1.0000
  C   C2437     1.0  0.72884  0.77389  0.32997  1.0000
  C   C2438     1.0  0.75081  0.77953  0.33530  1.0000
  C   C2439     1.0  0.76264  0.76560  0.34828  1.0000
  C   C2440     1.0  0.75267  0.74595  0.35601  1.0000
  C   C2441     1.0  0.73087  0.74015  0.35071  1.0000
  C   C2442     1.0  0.71889  0.75415  0.33788  1.0000
  C   C2443     1.0  0.73722  0.80344  0.28203  1.0000
  C   C2444     1.0  0.51118  0.87692  0.33919  1.0000
  H   H1923     1.0  0.54124  0.86359  0.32358  1.0000
  C   C2445     1.0  0.75495  0.84306  0.29531  1.0000
  C   C2446     1.0  0.74073  0.82942  0.30644  1.0000
  C   C2447     1.0  0.69711  0.77454  0.29985  1.0000
  C   C2448     1.0  0.67629  0.78309  0.29203  1.0000
  C   C2449     1.0  0.66523  0.76945  0.28030  1.0000
  C   C2450     1.0  0.67502  0.74738  0.27604  1.0000
  C   C2451     1.0  0.69587  0.73885  0.28358  1.0000
  C   C2452     1.0  0.70682  0.75230  0.29547  1.0000
  H   H1924     1.0  0.65826  0.86237  0.31978  1.0000
  H   H1925     1.0  0.64992  0.85556  0.35245  1.0000
  H   H1926     1.0  0.66879  0.82125  0.36853  1.0000
  H   H1927     1.0  0.69604  0.79397  0.35233  1.0000
  H   H1928     1.0  0.68554  0.83543  0.30324  1.0000
  H   H1929     1.0  0.75874  0.79477  0.32966  1.0000
  H   H1930     1.0  0.77944  0.77019  0.35251  1.0000
  H   H1931     1.0  0.76173  0.73526  0.36618  1.0000
  H   H1932     1.0  0.72307  0.72489  0.35666  1.0000
  H   H1933     1.0  0.70171  0.74967  0.33430  1.0000
  H   H1934     1.0  0.73031  0.78840  0.27652  1.0000
  H   H1935     1.0  0.75941  0.66582  0.24967  1.0000
  H   H1936     1.0  0.49682  0.82941  0.46552  1.0000
  H   H1937     1.0  0.76158  0.85860  0.30037  1.0000
  H   H1938     1.0  0.73645  0.83462  0.32008  1.0000
  H   H1939     1.0  0.66830  0.80008  0.29509  1.0000
  H   H1940     1.0  0.64872  0.77574  0.27490  1.0000
  H   H1941     1.0  0.66593  0.73656  0.26749  1.0000
  H   H1942     1.0  0.70311  0.72144  0.28082  1.0000
  H   H1943     1.0  0.72270  0.74511  0.30139  1.0000
  S   S337      1.0  0.85934  0.58229  0.48305  1.0000
  H   H1944     1.0  0.75577  0.75112  0.27547  1.0000
  H   H1945     1.0  0.52087  0.73544  0.26249  1.0000
  C   C2453     1.0  0.56110  0.80074  0.26182  1.0000
  C   C2454     1.0  0.79476  0.49316  0.31533  1.0000
  C   C2455     1.0  0.52563  0.85933  0.33129  1.0000
  C   C2456     1.0  0.82085  0.52876  0.39870  1.0000
  H   H1946     1.0  0.65120  0.95281  0.44112  1.0000
  C   C2457     1.0  0.98794  0.49691  0.47656  1.0000
  C   C2458     1.0  0.79003  0.54555  0.37981  1.0000
  C   C2459     1.0  0.80320  0.49689  0.48913  1.0000
  H   H1947     1.0  0.56179  0.76633  0.39188  1.0000
  C   C2460     1.0  0.77934  0.75709  0.29632  1.0000
  H   H1948     1.0  0.56673  0.85117  0.41913  1.0000
  P   P81       1.0  0.83295  0.52297  0.42061  1.0000
  C   C2461     1.0  0.59654  0.72257  0.28105  1.0000
  C   C2462     1.0  0.80363  0.56924  0.45691  1.0000
  H   H1949     1.0  0.76721  0.50974  0.27095  1.0000
  C   C2463     1.0  0.49102  0.87134  0.34909  1.0000
  H   H1950     1.0  0.49220  0.80488  0.37752  1.0000
  H   H1951     1.0  0.66165  0.50084  0.41318  1.0000
  C   C2464     1.0  0.55353  0.78373  0.39314  1.0000
  C   C2465     1.0  0.80401  0.51404  0.26886  1.0000
  H   H1952     1.0  0.54064  0.75776  0.47514  1.0000
  C   C2466     1.0  0.90466  0.55438  0.41942  1.0000
  H   H1953     1.0  0.55308  0.72657  0.31329  1.0000
  C   C2467     1.0  0.89643  0.51682  0.48137  1.0000
  C   C2468     1.0  0.56812  0.82778  0.28494  1.0000
  H   H1954     1.0  0.80746  0.58592  0.46197  1.0000
  H   H1955     1.0  0.78017  0.73308  0.24949  1.0000
  H   H1956     1.0  0.79652  0.54323  0.35124  1.0000
  H   H1957     1.0  0.82736  0.52241  0.48037  1.0000
  H   H1958     1.0  0.58798  0.81157  0.47876  1.0000
  C   C2469     1.0  0.57460  0.84425  0.27176  1.0000
  H   H1959     1.0  0.69021  0.69904  0.25077  1.0000
  H   H1960     1.0  0.91561  0.52496  0.43651  1.0000
  C   C2470     1.0  0.56169  0.81799  0.45911  1.0000
  C   C2471     1.0  0.97570  0.55019  0.46321  1.0000
  C   C2472     1.0  0.96731  0.57241  0.45722  1.0000
  C   C2473     1.0  0.75138  0.81713  0.27092  1.0000
  C   C2474     1.0  0.53392  0.82923  0.39621  1.0000
  C   C2475     1.0  0.54703  0.79213  0.41012  1.0000
  C   C2476     1.0  0.55025  0.79802  0.37774  1.0000
  C   C2477     1.0  0.53376  0.85613  0.43408  1.0000
  H   H1961     1.0  0.59190  0.70616  0.30731  1.0000
  H   H1962     1.0  0.96371  0.53654  0.46453  1.0000
  H   H1963     1.0  0.94903  0.57568  0.45443  1.0000
  C   C2478     1.0  0.55307  0.74589  0.28792  1.0000
  C   C2479     1.0  0.70847  0.69929  0.24670  1.0000
  C   C2480     1.0  0.81419  0.53678  0.43766  1.0000
  H   H1964     1.0  0.57608  0.89212  0.42014  1.0000
  H   H1965     1.0  0.84150  0.49733  0.45462  1.0000
  H   H1966     1.0  0.61372  0.71402  0.27875  1.0000
  C   C2481     1.0  0.50260  0.79143  0.30608  1.0000
  H   H1967     1.0  0.70390  0.50524  0.41593  1.0000
  C   C2482     1.0  0.69809  0.48969  0.41027  1.0000
  H   H1968     1.0  0.57460  0.77322  0.48905  1.0000
  H   H1969     1.0  0.61721  0.96401  0.46119  1.0000
  C   C2483     1.0  0.52381  0.89577  0.44324  1.0000
  H   H1970     1.0  0.53648  0.75512  0.29111  1.0000
  H   H1971     1.0  0.83443  0.56696  0.43986  1.0000
  C   C2484     1.0  0.76726  0.74317  0.28547  1.0000
  H   H1972     1.0  0.59726  0.74202  0.25605  1.0000
  S   S338      1.0  0.94192  0.64417  0.48131  1.0000
  H   H1973     1.0  0.54875  0.92088  0.43548  1.0000
  H   H1974     1.0  0.88880  0.58170  0.40250  1.0000
  C   C2485     1.0  0.54432  0.90297  0.43476  1.0000
  H   H1975     1.0  0.76251  0.52959  0.46059  1.0000
  C   C2486     1.0  0.82524  0.52754  0.36611  1.0000
  H   H1976     1.0  0.78953  0.51007  0.43835  1.0000
  C   C2487     1.0  0.58422  0.71809  0.29721  1.0000
  P   P82       1.0  0.52743  0.82585  0.43347  1.0000
  H   H1977     1.0  0.75518  0.81261  0.25705  1.0000
  H   H1978     1.0  0.56902  0.83156  0.29900  1.0000
  H   H1979     1.0  0.82192  0.73660  0.25399  1.0000
  P   P83       1.0  0.55345  0.77228  0.25552  1.0000
  C   C2488     1.0  0.56531  0.75058  0.27161  1.0000
  H   H1980     1.0  0.51549  0.89491  0.33748  1.0000
  Fe  Fe169     1.0  0.90977  0.62301  0.48249  1.0000
  C   C2489     1.0  0.64969  0.98566  0.42601  1.0000
  H   H1981     1.0  0.77140  0.56760  0.47239  1.0000
  C   C2490     1.0  0.58714  0.73867  0.26826  1.0000
  H   H1982     1.0  0.85147  0.51414  0.38421  1.0000
  C   C2491     1.0  0.81902  0.67725  0.24432  1.0000
  H   H1983     1.0  0.98827  0.66008  0.47667  1.0000
  C   C2492     1.0  0.51085  0.75176  0.25987  1.0000
  Fe  Fe170     1.0  0.58999  0.92049  0.49117  1.0000
  H   H1984     1.0  0.50282  0.86734  0.44999  1.0000
  C   C2493     1.0  0.65577  0.85523  0.24424  1.0000
  H   H1985     1.0  0.97549  0.60797  0.45147  1.0000
  C   C2494     1.0  0.56562  0.78322  0.47848  1.0000
  H   H1986     1.0  0.74013  0.50447  0.48930  1.0000
  H   H1987     1.0  0.72088  0.76125  0.24854  1.0000
  H   H1988     1.0  0.49040  0.81357  0.40987  1.0000
  H   H1989     1.0  0.49091  0.86584  0.38523  1.0000
  C   C2495     1.0  0.49386  0.90191  0.48742  1.0000
  S   S339      1.0  0.87185  0.63617  0.48701  1.0000
  C   C2496     1.0  0.81300  0.51842  0.48958  1.0000
  H   H1990     1.0  0.48982  0.76270  0.38364  1.0000
  C   C2497     1.0  0.83574  0.49211  0.42651  1.0000
  H   H1991     1.0  0.49399  0.92023  0.48358  1.0000
  H   H1992     1.0  0.49078  0.75480  0.34155  1.0000
  H   H1993     1.0  0.84137  0.51299  0.26644  1.0000
  H   H1994     1.0  0.80599  0.69098  0.24754  1.0000
  H   H1995     1.0  0.49517  0.81267  0.34378  1.0000
  C   C2498     1.0  0.89942  0.49472  0.47416  1.0000
  H   H1996     1.0  0.87791  0.50775  0.43720  1.0000
  C   C2499     1.0  0.96919  0.49953  0.48911  1.0000
  H   H1997     1.0  0.69735  0.51008  0.48817  1.0000
  S   S340      1.0  0.57599  0.95871  0.48786  1.0000
  H   H1998     1.0  0.51661  0.80918  0.24876  1.0000
  H   H1999     1.0  0.98424  0.60981  0.25698  1.0000
  S   S341      1.0  0.60635  0.85328  0.49113  1.0000
  H   H2000     1.0  0.98927  0.54803  0.41823  1.0000
  C   C2500     1.0  0.74679  0.48950  0.31594  1.0000
  Fe  Fe171     1.0  0.61820  0.87971  0.50976  1.0000
  S   S342      1.0  0.64115  0.86756  0.53341  1.0000
  S   S343      1.0  0.58272  0.89695  0.51543  1.0000
  Fe  Fe172     1.0  0.61680  0.82254  0.64026  1.0000
  S   S344      1.0  0.61264  0.78384  0.64288  1.0000
  S   S345      1.0  0.60610  0.84488  0.61505  1.0000
  Fe  Fe173     1.0  0.62642  0.82499  0.68132  1.0000
  S   S346      1.0  0.62179  0.78672  0.68613  1.0000
  S   S347      1.0  0.63933  0.85080  0.70117  1.0000
  Fe  Fe174     1.0  0.64394  0.78131  0.66068  1.0000
  S   S348      1.0  0.67930  0.75926  0.65916  1.0000
  Fe  Fe175     1.0  0.59064  0.79224  0.66801  1.0000
  S   S349      1.0  0.55569  0.77478  0.67334  1.0000
  S   S350      1.0  0.64929  0.81977  0.65629  1.0000
  S   S351      1.0  0.59399  0.83088  0.66500  1.0000
  Fe  Fe176     1.0  0.86905  0.60438  0.50560  1.0000
  S   S352      1.0  0.90717  0.59314  0.50246  1.0000
  S   S353      1.0  0.84734  0.59785  0.53176  1.0000
  Fe  Fe177     1.0  0.79553  0.59082  0.66115  1.0000
  S   S354      1.0  0.82947  0.60791  0.65647  1.0000
  S   S355      1.0  0.80216  0.55088  0.66134  1.0000
  Fe  Fe178     1.0  0.76790  0.63891  0.66112  1.0000
  S   S356      1.0  0.80020  0.65829  0.65594  1.0000
  S   S357      1.0  0.73056  0.65597  0.66518  1.0000
  Fe  Fe179     1.0  0.81112  0.63084  0.63572  1.0000
  S   S358      1.0  0.83169  0.64112  0.60980  1.0000
  Fe  Fe180     1.0  0.81632  0.63370  0.67710  1.0000
  S   S359      1.0  0.84298  0.64723  0.69568  1.0000
  S   S360      1.0  0.77764  0.61286  0.63938  1.0000
  S   S361      1.0  0.78359  0.61520  0.68334  1.0000
  C   C2501     1.0  0.84323  0.65317  0.71908  1.0000
  C   C2502     1.0  0.59341  0.74453  0.71152  1.0000
  C   C2503     1.0  0.79937  0.64318  0.52721  1.0000
  H   H2001     1.0  0.81514  0.63214  0.72757  1.0000
  C   C2504     1.0  0.91217  0.65567  0.52366  1.0000
  C   C2505     1.0  0.81824  0.65656  0.52954  1.0000
  H   H2002     1.0  0.52090  0.90120  0.58464  1.0000
  C   C2506     1.0  0.78792  0.52426  0.66386  1.0000
  C   C2507     1.0  0.76387  0.52345  0.66711  1.0000
  C   C2508     1.0  0.87935  0.52131  0.49490  1.0000
  H   H2003     1.0  0.74361  0.76987  0.68950  1.0000
  H   H2004     1.0  0.75302  0.53949  0.66781  1.0000
  C   C2509     1.0  0.84314  0.61052  0.55326  1.0000
  C   C2510     1.0  0.82735  0.60087  0.56593  1.0000
  C   C2511     1.0  0.82330  0.61020  0.58314  1.0000
  C   C2512     1.0  0.83517  0.62924  0.58799  1.0000
  C   C2513     1.0  0.85064  0.63916  0.57520  1.0000
  C   C2514     1.0  0.85477  0.62978  0.55803  1.0000
  H   H2005     1.0  0.81815  0.58605  0.56242  1.0000
  H   H2006     1.0  0.81120  0.60246  0.59271  1.0000
  H   H2007     1.0  0.85957  0.65419  0.57861  1.0000
  H   H2008     1.0  0.86665  0.63769  0.54843  1.0000
  C   C2515     1.0  0.77460  0.77087  0.55613  1.0000
  H   H2009     1.0  0.87199  0.67511  0.71533  1.0000
  H   H2010     1.0  0.74906  0.57570  0.69200  1.0000
  H   H2011     1.0  0.75347  0.78596  0.53484  1.0000
  C   C2516     1.0  0.92168  0.61023  0.58145  1.0000
  C   C2517     1.0  0.69314  0.73034  0.66113  1.0000
  C   C2518     1.0  0.68077  0.71067  0.66553  1.0000
  C   C2519     1.0  0.69256  0.68826  0.66683  1.0000
  C   C2520     1.0  0.71689  0.68499  0.66379  1.0000
  C   C2521     1.0  0.72931  0.70469  0.65957  1.0000
  C   C2522     1.0  0.71752  0.72711  0.65825  1.0000
  H   H2012     1.0  0.66209  0.71269  0.66779  1.0000
  H   H2013     1.0  0.68267  0.67326  0.67008  1.0000
  H   H2014     1.0  0.74798  0.70265  0.65719  1.0000
  H   H2015     1.0  0.72738  0.74210  0.65491  1.0000
  C   C2523     1.0  0.64447  0.85116  0.72476  1.0000
  H   H2016     1.0  0.80116  0.62899  0.51799  1.0000
  Fe  Fe181     1.0  0.57125  0.87181  0.49597  1.0000
  C   C2524     1.0  0.93381  0.63409  0.54696  1.0000
  H   H2017     1.0  0.87721  0.53829  0.50069  1.0000
  C   C2525     1.0  0.77463  0.55323  0.70572  1.0000
  C   C2526     1.0  0.52511  0.78223  0.67076  1.0000
  C   C2527     1.0  0.50949  0.76437  0.67240  1.0000
  H   H2018     1.0  0.87079  0.55741  0.57960  1.0000
  H   H2019     1.0  0.51628  0.74662  0.67500  1.0000
  C   C2528     1.0  0.63125  0.86171  0.55616  1.0000
  C   C2529     1.0  0.60844  0.86792  0.56230  1.0000
  C   C2530     1.0  0.60119  0.86252  0.58026  1.0000
  C   C2531     1.0  0.61648  0.85072  0.59241  1.0000
  C   C2532     1.0  0.63931  0.84454  0.58630  1.0000
  C   C2533     1.0  0.64665  0.85013  0.56835  1.0000
  H   H2020     1.0  0.59632  0.87675  0.55318  1.0000
  H   H2021     1.0  0.58352  0.86745  0.58471  1.0000
  H   H2022     1.0  0.65138  0.83559  0.59542  1.0000
  H   H2023     1.0  0.66433  0.84524  0.56383  1.0000
  C   C2534     1.0  0.49369  0.85467  0.49749  1.0000
  H   H2024     1.0  0.74225  0.82726  0.71624  1.0000
  C   C2535     1.0  0.81644  0.67433  0.54190  1.0000
  H   H2025     1.0  0.72305  0.82558  0.68724  1.0000
  C   C2536     1.0  0.69307  0.80959  0.69886  1.0000
  C   C2537     1.0  0.90757  0.57711  0.54988  1.0000
  C   C2538     1.0  0.49148  0.80994  0.66591  1.0000
  C   C2539     1.0  0.51805  0.80461  0.54684  1.0000
  H   H2026     1.0  0.62068  0.96940  0.50219  1.0000
  H   H2027     1.0  0.90413  0.62187  0.53408  1.0000
  C   C2540     1.0  0.75344  0.62986  0.72804  1.0000
  H   H2028     1.0  0.51651  0.71001  0.56717  1.0000
  C   C2541     1.0  0.72779  0.71955  0.72294  1.0000
  C   C2542     1.0  0.77858  0.53407  0.71775  1.0000
  C   C2543     1.0  0.60988  0.98542  0.50066  1.0000
  C   C2544     1.0  0.86009  0.66740  0.72506  1.0000
  C   C2545     1.0  0.90093  0.55832  0.54036  1.0000
  C   C2546     1.0  0.64131  0.92959  0.52921  1.0000
  C   C2547     1.0  0.65913  0.92457  0.54121  1.0000
  C   C2548     1.0  0.65517  0.92882  0.55943  1.0000
  C   C2549     1.0  0.63329  0.93785  0.56567  1.0000
  C   C2550     1.0  0.61491  0.94178  0.55381  1.0000
  C   C2551     1.0  0.61920  0.93802  0.53545  1.0000
  P   P84       1.0  0.58681  0.95400  0.56175  1.0000
  C   C2552     1.0  0.75384  0.50176  0.66959  1.0000
  C   C2553     1.0  0.56426  0.94276  0.54895  1.0000
  C   C2554     1.0  0.55470  0.92158  0.55412  1.0000
  C   C2555     1.0  0.53695  0.91335  0.54428  1.0000
  C   C2556     1.0  0.52864  0.92610  0.52926  1.0000
  C   C2557     1.0  0.53837  0.94688  0.52382  1.0000
  C   C2558     1.0  0.55623  0.95508  0.53349  1.0000
  C   C2559     1.0  0.74805  0.64594  0.71404  1.0000
  C   C2560     1.0  0.56663  0.82340  0.73492  1.0000
  H   H2029     1.0  0.83241  0.53059  0.68915  1.0000
  H   H2030     1.0  0.85342  0.49926  0.71812  1.0000
  H   H2031     1.0  0.52244  0.86463  0.56825  1.0000
  C   C2561     1.0  0.58242  0.94526  0.58519  1.0000
  C   C2562     1.0  0.51771  0.77204  0.72728  1.0000
  C   C2563     1.0  0.58061  0.85296  0.71379  1.0000
  C   C2564     1.0  0.57697  0.93130  0.62162  1.0000
  C   C2565     1.0  0.58703  0.91561  0.60925  1.0000
  C   C2566     1.0  0.58969  0.92254  0.59114  1.0000
  H   H2032     1.0  0.64464  0.92661  0.51510  1.0000
  H   H2033     1.0  0.82272  0.52669  0.63073  1.0000
  C   C2567     1.0  0.76515  0.50372  0.61488  1.0000
  H   H2034     1.0  0.96542  0.57386  0.53759  1.0000
  H   H2035     1.0  0.60556  0.94164  0.52593  1.0000
  H   H2036     1.0  0.56119  0.91109  0.56541  1.0000
  H   H2037     1.0  0.53009  0.89673  0.54788  1.0000
  H   H2038     1.0  0.51514  0.91955  0.52151  1.0000
  H   H2039     1.0  0.50245  0.79749  0.52201  1.0000
  C   C2568     1.0  0.71031  0.73254  0.71370  1.0000
  H   H2040     1.0  0.90102  0.57609  0.61624  1.0000
  H   H2041     1.0  0.89429  0.58758  0.55723  1.0000
  H   H2042     1.0  0.65503  0.95860  0.73674  1.0000
  H   H2043     1.0  0.73529  0.50139  0.67242  1.0000
  H   H2044     1.0  0.69234  0.72821  0.71544  1.0000
  C   C2569     1.0  0.52382  0.77378  0.62106  1.0000
  C   C2570     1.0  0.78456  0.49169  0.50101  1.0000
  H   H2045     1.0  0.57508  0.92592  0.63569  1.0000
  H   H2046     1.0  0.59294  0.89803  0.61365  1.0000
  H   H2047     1.0  0.59780  0.91025  0.58178  1.0000
  H   H2048     1.0  0.79966  0.77008  0.72848  1.0000
  H   H2049     1.0  0.78895  0.56203  0.69934  1.0000
  H   H2050     1.0  0.77723  0.78752  0.56176  1.0000
  C   C2571     1.0  0.90393  0.59162  0.60799  1.0000
  H   H2051     1.0  0.76385  0.63742  0.53519  1.0000
  H   H2052     1.0  0.85512  0.58355  0.60352  1.0000
  C   C2572     1.0  0.94744  0.56961  0.53879  1.0000
  C   C2573     1.0  0.89658  0.63305  0.60218  1.0000
  C   C2574     1.0  0.91086  0.63173  0.58655  1.0000
  H   H2053     1.0  0.71542  0.55583  0.70561  1.0000
  C   C2575     1.0  0.57228  0.96093  0.59770  1.0000
  H   H2054     1.0  0.88767  0.64951  0.60583  1.0000
  C   C2576     1.0  0.75191  0.56116  0.70154  1.0000
  C   C2577     1.0  0.82760  0.54537  0.71544  1.0000
  C   C2578     1.0  0.83650  0.54449  0.69763  1.0000
  C   C2579     1.0  0.84959  0.56233  0.69025  1.0000
  C   C2580     1.0  0.85409  0.58109  0.70063  1.0000
  H   H2055     1.0  0.56671  0.97859  0.59357  1.0000
  C   C2581     1.0  0.51543  0.81652  0.56298  1.0000
  H   H2056     1.0  0.83105  0.56806  0.62897  1.0000
  H   H2057     1.0  0.86305  0.51575  0.58126  1.0000
  C   C2582     1.0  0.91809  0.59017  0.59230  1.0000
  H   H2058     1.0  0.56401  0.97083  0.52859  1.0000
  C   C2583     1.0  0.98644  0.60906  0.55130  1.0000
  C   C2584     1.0  0.49624  0.77061  0.71942  1.0000
  C   C2585     1.0  0.51462  0.86576  0.49693  1.0000
  C   C2586     1.0  0.78442  0.75028  0.56413  1.0000
  C   C2587     1.0  0.61488  0.74392  0.71969  1.0000
  C   C2588     1.0  0.58579  0.98537  0.55838  1.0000
  C   C2589     1.0  0.57503  0.75994  0.71731  1.0000
  H   H2059     1.0  0.62908  0.81908  0.73229  1.0000
  H   H2060     1.0  0.49090  0.83615  0.58041  1.0000
  H   H2061     1.0  0.82015  0.50339  0.66036  1.0000
  C   C2590     1.0  0.81666  0.49596  0.71464  1.0000
  C   C2591     1.0  0.89303  0.61303  0.61284  1.0000
  C   C2592     1.0  0.71514  0.81051  0.73180  1.0000
  H   H2062     1.0  0.84913  0.59657  0.72642  1.0000
  H   H2063     1.0  0.82586  0.69506  0.67658  1.0000
  C   C2593     1.0  0.77659  0.50795  0.51383  1.0000
  C   C2594     1.0  0.80343  0.69974  0.70017  1.0000
  C   C2595     1.0  0.71487  0.81866  0.69947  1.0000
  H   H2064     1.0  0.77474  0.74708  0.70560  1.0000
  C   C2596     1.0  0.73297  0.54991  0.70917  1.0000
  H   H2065     1.0  0.91223  0.53153  0.52186  1.0000
  P   P85       1.0  0.80780  0.52405  0.72381  1.0000
  H   H2066     1.0  0.83154  0.68396  0.54370  1.0000
  H   H2067     1.0  0.92466  0.68880  0.51504  1.0000
  C   C2597     1.0  0.81853  0.72179  0.72359  1.0000
  H   H2068     1.0  0.53448  0.73756  0.62576  1.0000
  H   H2069     1.0  0.98087  0.61485  0.53805  1.0000
  H   H2070     1.0  0.85733  0.71693  0.68801  1.0000
  C   C2598     1.0  0.67173  0.95351  0.73028  1.0000
  C   C2599     1.0  0.96997  0.60462  0.56524  1.0000
  H   H2071     1.0  0.70446  0.85585  0.73776  1.0000
  C   C2600     1.0  0.75446  0.66885  0.71471  1.0000
  C   C2601     1.0  0.65505  0.87027  0.73142  1.0000
  H   H2072     1.0  0.66051  0.88390  0.72211  1.0000
  H   H2073     1.0  0.75035  0.68084  0.70351  1.0000
  C   C2602     1.0  0.82809  0.64322  0.73189  1.0000
  H   H2074     1.0  0.56188  0.96615  0.62547  1.0000
  C   C2603     1.0  0.92683  0.67389  0.52431  1.0000
  H   H2075     1.0  0.85231  0.50699  0.51189  1.0000
  H   H2076     1.0  0.52747  0.81909  0.66602  1.0000
  H   H2077     1.0  0.96559  0.59374  0.59332  1.0000
  C   C2604     1.0  0.77846  0.64785  0.53699  1.0000
  C   C2605     1.0  0.83883  0.72469  0.71303  1.0000
  H   H2078     1.0  0.58427  0.85904  0.70007  1.0000
  H   H2079     1.0  0.88271  0.55465  0.54032  1.0000
  H   H2080     1.0  0.79012  0.68984  0.69493  1.0000
  C   C2606     1.0  0.91749  0.54530  0.52998  1.0000
  C   C2607     1.0  0.78869  0.50506  0.60982  1.0000
  C   C2608     1.0  0.69301  0.80175  0.73107  1.0000
  H   H2081     1.0  0.92611  0.57339  0.58854  1.0000
  C   C2609     1.0  0.94073  0.55089  0.52927  1.0000
  S   S362      1.0  0.54072  0.85007  0.50233  1.0000
  C   C2610     1.0  0.53507  0.75246  0.61643  1.0000
  H   H2082     1.0  0.91299  0.64744  0.57837  1.0000
  P   P86       1.0  0.53946  0.81673  0.57780  1.0000
  C   C2611     1.0  0.53773  0.79157  0.59289  1.0000
  C   C2612     1.0  0.56687  0.81597  0.56515  1.0000
  C   C2613     1.0  0.58726  0.80606  0.57290  1.0000
  C   C2614     1.0  0.60838  0.80501  0.56291  1.0000
  C   C2615     1.0  0.60935  0.81424  0.54527  1.0000
  C   C2616     1.0  0.58931  0.82497  0.53778  1.0000
  C   C2617     1.0  0.56823  0.82618  0.54773  1.0000
  H   H2083     1.0  0.76107  0.79053  0.72604  1.0000
  C   C2618     1.0  0.78671  0.52931  0.51444  1.0000
  H   H2084     1.0  0.67594  0.91720  0.53635  1.0000
  C   C2619     1.0  0.54728  0.75049  0.59989  1.0000
  C   C2620     1.0  0.54850  0.76993  0.58809  1.0000
  C   C2621     1.0  0.53833  0.84351  0.58972  1.0000
  C   C2622     1.0  0.52900  0.86439  0.58167  1.0000
  C   C2623     1.0  0.52827  0.88517  0.59086  1.0000
  C   C2624     1.0  0.53739  0.88535  0.60795  1.0000
  C   C2625     1.0  0.54745  0.86480  0.61577  1.0000
  C   C2626     1.0  0.54806  0.84398  0.60666  1.0000
  H   H2085     1.0  0.53262  0.95631  0.51172  1.0000
  C   C2627     1.0  0.80157  0.50309  0.66266  1.0000
  C   C2628     1.0  0.73673  0.53088  0.72119  1.0000
  C   C2629     1.0  0.56955  0.95393  0.61585  1.0000
  H   H2086     1.0  0.81290  0.55102  0.50280  1.0000
  H   H2087     1.0  0.58703  0.79964  0.58678  1.0000
  H   H2088     1.0  0.62418  0.79787  0.56907  1.0000
  H   H2089     1.0  0.62586  0.81421  0.53773  1.0000
  H   H2090     1.0  0.59020  0.83298  0.52442  1.0000
  H   H2091     1.0  0.55314  0.83524  0.54176  1.0000
  C   C2630     1.0  0.94453  0.67265  0.53666  1.0000
  C   C2631     1.0  0.72577  0.81935  0.71588  1.0000
  H   H2092     1.0  0.52642  0.75641  0.73311  1.0000
  H   H2093     1.0  0.55608  0.73396  0.59633  1.0000
  H   H2094     1.0  0.55803  0.76813  0.57533  1.0000
  H   H2095     1.0  0.79435  0.52132  0.60400  1.0000
  H   H2096     1.0  0.66488  0.79492  0.71414  1.0000
  H   H2097     1.0  0.53712  0.90149  0.61497  1.0000
  H   H2098     1.0  0.55548  0.86499  0.62868  1.0000
  H   H2099     1.0  0.55678  0.82844  0.61267  1.0000
  C   C2632     1.0  0.75753  0.74853  0.53384  1.0000
  C   C2633     1.0  0.76118  0.77000  0.54098  1.0000
  C   C2634     1.0  0.78099  0.72863  0.55694  1.0000
  C   C2635     1.0  0.76729  0.72789  0.54181  1.0000
  P   P87       1.0  0.79281  0.70209  0.56788  1.0000
  C   C2636     1.0  0.77368  0.69372  0.58653  1.0000
  C   C2637     1.0  0.79555  0.67905  0.55191  1.0000
  C   C2638     1.0  0.77648  0.66580  0.54920  1.0000
  C   C2639     1.0  0.75761  0.71009  0.59454  1.0000
  C   C2640     1.0  0.74296  0.70327  0.60898  1.0000
  C   C2641     1.0  0.74414  0.68012  0.61541  1.0000
  C   C2642     1.0  0.76007  0.66379  0.60752  1.0000
  C   C2643     1.0  0.77495  0.67055  0.59327  1.0000
  C   C2644     1.0  0.82124  0.70704  0.57583  1.0000
  C   C2645     1.0  0.82816  0.69805  0.59271  1.0000
  C   C2646     1.0  0.85045  0.70124  0.59853  1.0000
  C   C2647     1.0  0.86591  0.71373  0.58765  1.0000
  C   C2648     1.0  0.85904  0.72311  0.57093  1.0000
  C   C2649     1.0  0.83677  0.71982  0.56504  1.0000
  H   H2100     1.0  0.74700  0.74787  0.52215  1.0000
  H   H2101     1.0  0.76404  0.71147  0.53614  1.0000
  H   H2102     1.0  0.76009  0.66923  0.55659  1.0000
  H   H2103     1.0  0.75631  0.72809  0.58979  1.0000
  H   H2104     1.0  0.73066  0.71592  0.61525  1.0000
  H   H2105     1.0  0.73277  0.67481  0.62657  1.0000
  H   H2106     1.0  0.76097  0.64589  0.61251  1.0000
  H   H2107     1.0  0.78756  0.65770  0.58762  1.0000
  H   H2108     1.0  0.81656  0.68831  0.60140  1.0000
  H   H2109     1.0  0.85569  0.69375  0.61146  1.0000
  H   H2110     1.0  0.88320  0.71611  0.59218  1.0000
  H   H2111     1.0  0.87102  0.73280  0.56249  1.0000
  H   H2112     1.0  0.83177  0.72700  0.55198  1.0000
  H   H2113     1.0  0.79448  0.75122  0.57603  1.0000
  H   H2114     1.0  0.59119  0.73367  0.70023  1.0000
  C   C2650     1.0  0.71392  0.95199  0.72921  1.0000
  C   C2651     1.0  0.84253  0.51791  0.60633  1.0000
  C   C2652     1.0  0.83364  0.53301  0.61968  1.0000
  C   C2653     1.0  0.83832  0.55652  0.61871  1.0000
  C   C2654     1.0  0.85186  0.56522  0.60435  1.0000
  C   C2655     1.0  0.86075  0.55042  0.59093  1.0000
  C   C2656     1.0  0.85620  0.52681  0.59191  1.0000
  H   H2115     1.0  0.68442  0.80940  0.68620  1.0000
  C   C2657     1.0  0.52502  0.79324  0.60931  1.0000
  H   H2116     1.0  0.73916  0.64062  0.70247  1.0000
  C   C2658     1.0  0.63748  0.83374  0.73708  1.0000
  H   H2117     1.0  0.55894  0.76067  0.71028  1.0000
  C   C2659     1.0  0.51586  0.80509  0.66733  1.0000
  C   C2660     1.0  0.84574  0.58186  0.71848  1.0000
  H   H2118     1.0  0.83453  0.65261  0.52211  1.0000
  C   C2661     1.0  0.76854  0.78844  0.73909  1.0000
  C   C2662     1.0  0.75126  0.72440  0.72001  1.0000
  H   H2119     1.0  0.78066  0.54173  0.52445  1.0000
  H   H2120     1.0  0.73094  0.93383  0.70700  1.0000
  H   H2121     1.0  0.56638  0.82156  0.70592  1.0000
  H   H2122     1.0  0.76266  0.50406  0.52344  1.0000
  H   H2123     1.0  0.91949  0.50166  0.55982  1.0000
  P   P88       1.0  0.93920  0.60791  0.56081  1.0000
  H   H2124     1.0  0.85550  0.56200  0.67626  1.0000
  H   H2125     1.0  0.88146  0.61414  0.62471  1.0000
  H   H2126     1.0  0.95621  0.60127  0.50154  1.0000
  C   C2663     1.0  0.84140  0.71521  0.69604  1.0000
  C   C2664     1.0  0.68214  0.80120  0.71464  1.0000
  C   C2665     1.0  0.91559  0.63584  0.53495  1.0000
  P   P89       1.0  0.55480  0.79538  0.73890  1.0000
  C   C2666     1.0  0.49427  0.81211  0.71268  1.0000
  C   C2667     1.0  0.70538  0.49352  0.49299  1.0000
  C   C2668     1.0  0.69256  0.95891  0.73787  1.0000
  H   H2127     1.0  0.53433  0.79509  0.54319  1.0000
  C   C2669     1.0  0.93091  0.58294  0.54915  1.0000
  C   C2670     1.0  0.94787  0.65294  0.54810  1.0000
  H   H2128     1.0  0.96170  0.65233  0.55756  1.0000
  C   C2671     1.0  0.82362  0.70294  0.68957  1.0000
  C   C2672     1.0  0.69360  0.93370  0.70626  1.0000
  H   H2129     1.0  0.89857  0.65667  0.51401  1.0000
  H   H2130     1.0  0.95595  0.68677  0.53711  1.0000
  C   C2673     1.0  0.50068  0.74499  0.56819  1.0000
  C   C2674     1.0  0.79046  0.77653  0.74044  1.0000
  H   H2131     1.0  0.52294  0.83046  0.72069  1.0000
  C   C2675     1.0  0.49993  0.80575  0.53484  1.0000
  C   C2676     1.0  0.80074  0.70902  0.71735  1.0000
  H   H2132     1.0  0.82571  0.56556  0.73955  1.0000
  H   H2133     1.0  0.49369  0.83636  0.50127  1.0000
  C   C2677     1.0  0.73927  0.75599  0.69902  1.0000
  H   H2134     1.0  0.95341  0.54123  0.52083  1.0000
  C   C2678     1.0  0.97153  0.61052  0.49809  1.0000
  C   C2679     1.0  0.58755  0.98499  0.49405  1.0000
  H   H2135     1.0  0.62926  0.73236  0.71484  1.0000
  C   C2680     1.0  0.52791  0.79347  0.72752  1.0000
  H   H2136     1.0  0.89389  0.49633  0.53440  1.0000
  C   C2681     1.0  0.75684  0.74296  0.70816  1.0000
  H   H2137     1.0  0.69399  0.92364  0.69423  1.0000
  H   H2138     1.0  0.51613  0.75302  0.56294  1.0000
  C   C2682     1.0  0.67228  0.94082  0.71462  1.0000
  H   H2139     1.0  0.86364  0.59530  0.69478  1.0000
  H   H2140     1.0  0.51445  0.77529  0.63391  1.0000
  C   C2683     1.0  0.76599  0.67604  0.72961  1.0000
  H   H2141     1.0  0.85275  0.73396  0.71815  1.0000
  H   H2142     1.0  0.75312  0.51893  0.61335  1.0000
  C   C2684     1.0  0.57791  0.77470  0.73149  1.0000
  H   H2143     1.0  0.97518  0.65294  0.73299  1.0000
  H   H2144     1.0  0.70260  0.76014  0.69405  1.0000
  P   P90       1.0  0.77393  0.70585  0.73050  1.0000
  H   H2145     1.0  0.65617  0.93618  0.70910  1.0000
  C   C2685     1.0  0.71608  0.75061  0.70165  1.0000
  C   C2686     1.0  0.51587  0.81358  0.72034  1.0000
  H   H2146     1.0  0.51630  0.80966  0.61316  1.0000
  C   C2687     1.0  0.86530  0.50362  0.50123  1.0000
  H   H2147     1.0  0.63081  0.94159  0.57976  1.0000
  C   C2688     1.0  0.75943  0.52307  0.72557  1.0000
  C   C2689     1.0  0.49373  0.82781  0.56765  1.0000
  H   H2148     1.0  0.76209  0.50835  0.73495  1.0000
  C   C2690     1.0  0.61803  0.75884  0.73361  1.0000
  H   H2149     1.0  0.96766  0.51422  0.49781  1.0000
  H   H2150     1.0  0.72308  0.70527  0.73196  1.0000
  C   C2691     1.0  0.57061  0.83172  0.71717  1.0000
  H   H2151     1.0  0.66904  0.92499  0.56871  1.0000
  H   H2152     1.0  0.62297  0.98708  0.55278  1.0000
  H   H2153     1.0  0.73027  0.95582  0.73470  1.0000
  C   C2692     1.0  0.83248  0.56414  0.72587  1.0000
  H   H2154     1.0  0.59578  0.88177  0.72535  1.0000
  H   H2155     1.0  0.85613  0.50138  0.64100  1.0000
  H   H2156     1.0  0.74884  0.61201  0.72728  1.0000
  C   C2693     1.0  0.50085  0.72078  0.57050  1.0000
  H   H2157     1.0  0.72205  0.52207  0.72701  1.0000
  C   C2694     1.0  0.58708  0.86583  0.72807  1.0000
  C   C2695     1.0  0.97779  0.59721  0.58229  1.0000
  H   H2158     1.0  0.81699  0.72947  0.73660  1.0000
  H   H2159     1.0  0.70924  0.89752  0.74102  1.0000
  C   C2696     1.0  0.71440  0.93942  0.71348  1.0000
  C   C2697     1.0  0.80486  0.53457  0.50227  1.0000
  C   C2698     1.0  0.59965  0.77424  0.73946  1.0000
  C   C2699     1.0  0.72963  0.49033  0.49378  1.0000
  H   H2160     1.0  0.63485  0.75882  0.73964  1.0000
  C   C2700     1.0  0.51463  0.88941  0.49199  1.0000
  H   H2161     1.0  0.53062  0.89816  0.49182  1.0000
  H   H2162     1.0  0.81882  0.63870  0.76018  1.0000
  H   H2163     1.0  0.60248  0.78603  0.75003  1.0000
  H   H2164     1.0  0.86556  0.60065  0.94578  1.0000
  C   C2701     1.0  0.87262  0.75829  0.87651  1.0000
  C   C2702     1.0  0.97656  0.63364  0.86951  1.0000
  Fe  Fe182     1.0  0.61308  0.90485  0.97955  1.0000
  S   S363      1.0  0.64017  0.90136  0.95590  1.0000
  S   S364      1.0  0.57583  0.92020  0.97995  1.0000
  Fe  Fe183     1.0  0.67687  0.88180  0.84795  1.0000
  S   S365      1.0  0.71037  0.90003  0.84469  1.0000
  S   S366      1.0  0.65185  0.87627  0.87260  1.0000
  Fe  Fe184     1.0  0.67422  0.87591  0.80636  1.0000
  S   S367      1.0  0.70681  0.89470  0.80085  1.0000
  S   S368      1.0  0.65243  0.85757  0.78624  1.0000
  Fe  Fe185     1.0  0.72172  0.87268  0.82411  1.0000
  S   S369      1.0  0.75933  0.85662  0.81876  1.0000
  Fe  Fe186     1.0  0.69340  0.92065  0.82171  1.0000
  S   S370      1.0  0.68700  0.96101  0.82036  1.0000
  S   S371      1.0  0.68939  0.85317  0.82905  1.0000
  S   S372      1.0  0.65962  0.90300  0.82559  1.0000
  C   C2703     1.0  0.94020  0.48954  0.96487  1.0000
  H   H2165     1.0  0.76930  0.62434  0.75371  1.0000
  C   C2704     1.0  0.79653  0.70537  0.76309  1.0000
  Fe  Fe187     1.0  0.86980  0.64322  0.97039  1.0000
  S   S373      1.0  0.85068  0.65526  0.94480  1.0000
  S   S374      1.0  0.90439  0.62281  0.96950  1.0000
  Fe  Fe188     1.0  0.85154  0.73366  0.81971  1.0000
  S   S375      1.0  0.84559  0.69547  0.82463  1.0000
  S   S376      1.0  0.81679  0.75618  0.82431  1.0000
  Fe  Fe189     1.0  0.90417  0.72089  0.80992  1.0000
  S   S377      1.0  0.89984  0.68247  0.81338  1.0000
  S   S378      1.0  0.94008  0.73575  0.80325  1.0000
  Fe  Fe190     1.0  0.86629  0.68947  0.79860  1.0000
  S   S379      1.0  0.84886  0.66512  0.78000  1.0000
  Fe  Fe191     1.0  0.87937  0.69185  0.83896  1.0000
  S   S380      1.0  0.89184  0.67053  0.86409  1.0000
  S   S381      1.0  0.87160  0.72762  0.79333  1.0000
  S   S382      1.0  0.88437  0.73026  0.83573  1.0000
  C   C2705     1.0  0.96984  0.72743  0.80840  1.0000
  C   C2706     1.0  0.86861  0.49673  0.98681  1.0000
  H   H2166     1.0  0.84089  0.51934  0.97576  1.0000
  C   C2707     1.0  0.87658  0.52159  0.90097  1.0000
  H   H2167     1.0  0.96414  0.69312  0.81949  1.0000
  C   C2708     1.0  0.84707  0.66127  0.75637  1.0000
  H   H2168     1.0  0.70930  0.93977  0.78680  1.0000
  C   C2709     1.0  0.65695  0.77742  0.98132  1.0000
  H   H2169     1.0  0.51393  0.81484  0.79642  1.0000
  C   C2710     1.0  0.59000  0.82264  0.98112  1.0000
  C   C2711     1.0  0.86247  0.65926  0.92242  1.0000
  C   C2712     1.0  0.88485  0.65034  0.91719  1.0000
  C   C2713     1.0  0.89346  0.65392  0.89931  1.0000
  C   C2714     1.0  0.87991  0.66655  0.88642  1.0000
  C   C2715     1.0  0.85737  0.67507  0.89154  1.0000
  C   C2716     1.0  0.84872  0.67136  0.90940  1.0000
  H   H2170     1.0  0.89554  0.64078  0.92695  1.0000
  H   H2171     1.0  0.91079  0.64695  0.89547  1.0000
  H   H2172     1.0  0.84658  0.68443  0.88173  1.0000
  H   H2173     1.0  0.83126  0.67806  0.91318  1.0000
  C   C2717     1.0  0.71750  0.86096  0.74661  1.0000
  C   C2718     1.0  0.65223  0.95619  0.89950  1.0000
  H   H2174     1.0  0.91031  0.56338  0.89343  1.0000
  H   H2175     1.0  0.50570  0.94684  0.90122  1.0000
  P   P91       1.0  0.69158  0.97329  0.75908  1.0000
  H   H2176     1.0  0.98142  0.53496  0.94705  1.0000
  C   C2719     1.0  0.77471  0.82834  0.82018  1.0000
  C   C2720     1.0  0.76399  0.80810  0.82598  1.0000
  C   C2721     1.0  0.77711  0.78635  0.82715  1.0000
  C   C2722     1.0  0.80117  0.78431  0.82251  1.0000
  C   C2723     1.0  0.81180  0.80447  0.81643  1.0000
  C   C2724     1.0  0.79868  0.82622  0.81529  1.0000
  H   H2177     1.0  0.74562  0.80925  0.82976  1.0000
  H   H2178     1.0  0.76856  0.77097  0.83181  1.0000
  H   H2179     1.0  0.83018  0.80337  0.81271  1.0000
  H   H2180     1.0  0.80728  0.84162  0.81074  1.0000
  H   H2181     1.0  0.80775  0.51855  0.80044  1.0000
  H   H2182     1.0  0.73495  0.97643  0.81590  1.0000
  C   C2725     1.0  0.57364  0.83619  0.74921  1.0000
  H   H2183     1.0  0.68305  0.95630  0.85948  1.0000
  C   C2726     1.0  0.65095  0.85500  0.76239  1.0000
  C   C2727     1.0  0.94155  0.72980  0.85553  1.0000
  C   C2728     1.0  0.89445  0.81258  0.91930  1.0000
  C   C2729     1.0  0.64253  0.89634  0.93231  1.0000
  C   C2730     1.0  0.62336  0.89199  0.92226  1.0000
  C   C2731     1.0  0.62653  0.88644  0.90396  1.0000
  C   C2732     1.0  0.64873  0.88579  0.89522  1.0000
  C   C2733     1.0  0.66775  0.89110  0.90508  1.0000
  C   C2734     1.0  0.66466  0.89617  0.92349  1.0000
  H   H2184     1.0  0.60616  0.89245  0.92865  1.0000
  H   H2185     1.0  0.61167  0.88236  0.89653  1.0000
  H   H2186     1.0  0.68497  0.89056  0.89868  1.0000
  H   H2187     1.0  0.67963  0.89963  0.93102  1.0000
  H   H2188     1.0  0.86360  0.52053  0.94601  1.0000
  H   H2189     1.0  0.64379  0.94410  0.90873  1.0000
  H   H2190     1.0  0.57209  0.82962  0.76298  1.0000
  H   H2191     1.0  0.84758  0.76803  0.85624  1.0000
  H   H2192     1.0  0.56654  0.75644  0.76480  1.0000
  H   H2193     1.0  0.81434  0.70506  0.78803  1.0000
  C   C2735     1.0  0.72338  0.95004  0.78206  1.0000
  C   C2736     1.0  0.89613  0.57614  0.89047  1.0000
  C   C2737     1.0  0.63608  0.96454  0.79449  1.0000
  H   H2194     1.0  0.81752  0.76376  0.75831  1.0000
  H   H2195     1.0  0.57106  0.97449  0.96446  1.0000
  C   C2738     1.0  0.85736  0.51857  0.98233  1.0000
  C   C2739     1.0  0.75921  0.72742  0.76253  1.0000
  H   H2196     1.0  0.61960  0.93295  0.80203  1.0000
  C   C2740     1.0  0.96262  0.49331  0.95772  1.0000
  H   H2197     1.0  0.75783  0.79928  0.78352  1.0000
  C   C2741     1.0  0.86375  0.49117  0.92931  1.0000
  C   C2742     1.0  0.82067  0.50265  0.77595  1.0000
  H   H2198     1.0  0.87611  0.49183  0.88429  1.0000
  C   C2743     1.0  0.61013  0.97871  0.92902  1.0000
  H   H2199     1.0  0.88008  0.79207  0.89972  1.0000
  C   C2744     1.0  0.64997  0.83363  0.98751  1.0000
  H   H2200     1.0  0.82997  0.61564  0.96225  1.0000
  C   C2745     1.0  0.96164  0.74185  0.85650  1.0000
  C   C2746     1.0  0.66162  0.85411  0.98442  1.0000
  C   C2747     1.0  0.97696  0.70563  0.81617  1.0000
  H   H2201     1.0  0.54353  0.86065  0.97220  1.0000
  C   C2748     1.0  0.65838  0.87214  0.75002  1.0000
  H   H2202     1.0  0.94273  0.60389  0.93800  1.0000
  H   H2203     1.0  0.79428  0.59419  0.96298  1.0000
  C   C2749     1.0  0.76155  0.73322  0.78043  1.0000
  C   C2750     1.0  0.92659  0.68241  0.92589  1.0000
  H   H2204     1.0  0.55131  0.95237  0.94250  1.0000
  C   C2751     1.0  0.90002  0.72265  0.93584  1.0000
  C   C2752     1.0  0.53201  0.80625  0.77138  1.0000
  C   C2753     1.0  0.74741  0.85153  0.76817  1.0000
  C   C2754     1.0  0.80057  0.77303  0.75716  1.0000
  H   H2205     1.0  0.92936  0.69872  0.89962  1.0000
  H   H2206     1.0  0.75780  0.83924  0.77637  1.0000
  C   C2755     1.0  0.80792  0.52211  0.74811  1.0000
  C   C2756     1.0  0.77106  0.65981  0.74374  1.0000
  C   C2757     1.0  0.86057  0.61033  0.88304  1.0000
  H   H2207     1.0  0.79346  0.55814  0.94587  1.0000
  C   C2758     1.0  0.90699  0.77204  0.91439  1.0000
  C   C2759     1.0  0.76679  0.79324  0.77130  1.0000
  C   C2760     1.0  0.96404  0.67430  0.75524  1.0000
  C   C2761     1.0  0.87366  0.49817  0.89779  1.0000
  C   C2762     1.0  0.90411  0.70432  0.94842  1.0000
  H   H2208     1.0  0.64236  0.72148  0.97805  1.0000
  C   C2763     1.0  0.52543  0.80216  0.78945  1.0000
  C   C2764     1.0  0.97549  0.68067  0.87781  1.0000
  C   C2765     1.0  0.53381  0.78180  0.79859  1.0000
  C   C2766     1.0  0.78149  0.72532  0.78957  1.0000
  C   C2767     1.0  0.95669  0.64831  0.86623  1.0000
  C   C2768     1.0  0.73789  0.98220  0.76407  1.0000
  H   H2209     1.0  0.74377  0.73381  0.75568  1.0000
  H   H2210     1.0  0.82802  0.54380  0.92812  1.0000
  C   C2769     1.0  0.83343  0.74551  0.87699  1.0000
  H   H2211     1.0  0.90761  0.59812  0.92152  1.0000
  C   C2770     1.0  0.66905  0.96059  0.77312  1.0000
  C   C2771     1.0  0.88030  0.60812  0.87154  1.0000
  H   H2212     1.0  0.73851  0.91022  0.76148  1.0000
  C   C2772     1.0  0.83763  0.73278  0.89304  1.0000
  H   H2213     1.0  0.52531  0.82205  0.76442  1.0000
  H   H2214     1.0  0.52886  0.77873  0.81264  1.0000
  H   H2215     1.0  0.67279  0.74417  0.99032  1.0000
  C   C2773     1.0  0.75667  0.79733  0.75448  1.0000
  H   H2216     1.0  0.87481  0.68275  0.74781  1.0000
  C   C2774     1.0  0.66608  0.93659  0.77264  1.0000
  H   H2217     1.0  0.78044  0.95591  0.78985  1.0000
  C   C2775     1.0  0.89804  0.59099  0.87522  1.0000
  H   H2218     1.0  0.93888  0.71995  0.84375  1.0000
  C   C2776     1.0  0.56717  0.83274  0.98191  1.0000
  H   H2219     1.0  0.84716  0.62410  0.88042  1.0000
  H   H2220     1.0  0.95101  0.76587  0.89714  1.0000
  H   H2221     1.0  0.67782  0.92539  0.76456  1.0000
  C   C2777     1.0  0.95618  0.67175  0.87040  1.0000
  C   C2778     1.0  0.66306  0.94784  0.88363  1.0000
  H   H2222     1.0  0.88945  0.73800  0.93989  1.0000
  H   H2223     1.0  0.49825  0.73704  0.77012  1.0000
  H   H2224     1.0  0.56849  0.94790  0.91151  1.0000
  H   H2225     1.0  0.93753  0.79395  0.94746  1.0000
  C   C2779     1.0  0.85937  0.73264  0.90081  1.0000
  H   H2226     1.0  0.91346  0.58958  0.86640  1.0000
  C   C2780     1.0  0.65392  0.97448  0.78418  1.0000
  H   H2227     1.0  0.85881  0.55611  0.98215  1.0000
  P   P92       1.0  0.63672  0.82034  0.96926  1.0000
  C   C2781     1.0  0.63822  0.78910  0.97248  1.0000
  C   C2782     1.0  0.60692  0.83239  0.96959  1.0000
  C   C2783     1.0  0.79486  0.53890  0.75821  1.0000
  H   H2228     1.0  0.94157  0.64161  0.86052  1.0000
  C   C2784     1.0  0.56114  0.85264  0.97130  1.0000
  C   C2785     1.0  0.57802  0.86272  0.96012  1.0000
  C   C2786     1.0  0.60087  0.85278  0.95945  1.0000
  C   C2787     1.0  0.62136  0.77612  0.96521  1.0000
  S   S383      1.0  0.94809  0.66526  0.98776  1.0000
  C   C2788     1.0  0.92773  0.74380  0.88469  1.0000
  H   H2229     1.0  0.97463  0.69887  0.88114  1.0000
  C   C2789     1.0  0.57721  0.95744  0.92119  1.0000
  C   C2790     1.0  0.65157  0.82554  0.94776  1.0000
  C   C2791     1.0  0.67582  0.82715  0.94665  1.0000
  C   C2792     1.0  0.68722  0.83127  0.92999  1.0000
  C   C2793     1.0  0.67460  0.83329  0.91431  1.0000
  C   C2794     1.0  0.65063  0.83084  0.91523  1.0000
  C   C2795     1.0  0.63916  0.82675  0.93185  1.0000
  H   H2230     1.0  0.91185  0.82913  0.93991  1.0000
  C   C2796     1.0  0.92501  0.79344  0.93702  1.0000
  H   H2231     1.0  0.66624  0.88708  0.75483  1.0000
  C   C2797     1.0  0.55526  0.76948  0.77154  1.0000
  H   H2232     1.0  0.69851  0.96630  0.98064  1.0000
  C   C2798     1.0  0.86178  0.67174  0.74351  1.0000
  C   C2799     1.0  0.79484  0.53762  0.77700  1.0000
  H   H2233     1.0  0.96861  0.68236  0.94730  1.0000
  H   H2234     1.0  0.57355  0.87858  0.95235  1.0000
  H   H2235     1.0  0.61395  0.86126  0.95131  1.0000
  H   H2236     1.0  0.60719  0.78477  0.95782  1.0000
  H   H2237     1.0  0.76212  0.88076  0.77949  1.0000
  H   H2238     1.0  0.88200  0.62008  0.86000  1.0000
  H   H2239     1.0  0.89683  0.70561  0.96202  1.0000
  C   C2800     1.0  0.57864  0.97239  0.95101  1.0000
  H   H2240     1.0  0.68591  0.82543  0.95863  1.0000
  H   H2241     1.0  0.70582  0.83316  0.92922  1.0000
  H   H2242     1.0  0.68327  0.83706  0.90142  1.0000
  H   H2243     1.0  0.64090  0.83267  0.90302  1.0000
  H   H2244     1.0  0.62060  0.82482  0.93222  1.0000
  H   H2245     1.0  0.86227  0.72227  0.91306  1.0000
  C   C2801     1.0  0.90947  0.72111  0.91820  1.0000
  C   C2802     1.0  0.54863  0.76544  0.78961  1.0000
  C   C2803     1.0  0.94812  0.75566  0.88568  1.0000
  C   C2804     1.0  0.50568  0.90109  0.98616  1.0000
  C   C2805     1.0  0.92253  0.70071  0.91324  1.0000
  H   H2246     1.0  0.82417  0.72261  0.89930  1.0000
  C   C2806     1.0  0.98632  0.67998  0.94182  1.0000
  C   C2807     1.0  0.58368  0.85742  0.74576  1.0000
  C   C2808     1.0  0.85086  0.75836  0.86880  1.0000
  H   H2247     1.0  0.88093  0.53304  0.88968  1.0000
  C   C2809     1.0  0.87708  0.74538  0.89258  1.0000
  P   P93       1.0  0.90532  0.74552  0.90239  1.0000
  H   H2248     1.0  0.79644  0.77836  0.78557  1.0000
  C   C2810     1.0  0.89269  0.79210  0.91009  1.0000
  C   C2811     1.0  0.67009  0.95612  0.96549  1.0000
  H   H2249     1.0  0.98191  0.76022  0.79825  1.0000
  C   C2812     1.0  0.96503  0.75461  0.87164  1.0000
  C   C2813     1.0  0.75980  0.97774  0.77145  1.0000
  H   H2250     1.0  0.93476  0.75779  0.93123  1.0000
  C   C2814     1.0  0.86688  0.51447  0.93253  1.0000
  H   H2251     1.0  0.66383  0.86159  0.97096  1.0000
  P   P94       1.0  0.72854  0.81340  0.75314  1.0000
  C   C2815     1.0  0.73656  0.89186  0.75996  1.0000
  C   C2816     1.0  0.59835  0.96702  0.91633  1.0000
  H   H2252     1.0  0.93392  0.54031  0.96874  1.0000
  H   H2253     1.0  0.94600  0.67007  0.75505  1.0000
  C   C2817     1.0  0.65834  0.75311  0.98341  1.0000
  C   C2818     1.0  0.80974  0.58749  0.95557  1.0000
  H   H2254     1.0  0.88601  0.76815  0.86983  1.0000
  C   C2819     1.0  0.77683  0.71365  0.75363  1.0000
  H   H2255     1.0  0.50532  0.98667  0.98335  1.0000
  H   H2256     1.0  0.66252  0.92967  0.88045  1.0000
  H   H2257     1.0  0.95172  0.49097  0.91315  1.0000
  C   C2820     1.0  0.94847  0.49086  0.92758  1.0000
  C   C2821     1.0  0.68709  0.97099  0.96968  1.0000
  C   C2822     1.0  0.63309  0.94074  0.79374  1.0000
  H   H2258     1.0  0.93637  0.66654  0.92197  1.0000
  H   H2259     1.0  0.62502  0.97520  0.80347  1.0000
  H   H2260     1.0  0.95583  0.57530  0.96188  1.0000
  C   C2823     1.0  0.75000  0.87528  0.76996  1.0000
  C   C2824     1.0  0.62279  0.75181  0.96731  1.0000
  C   C2825     1.0  0.82079  0.50392  0.75714  1.0000
  C   C2826     1.0  0.87632  0.57823  0.90211  1.0000
  C   C2827     1.0  0.65516  0.96221  0.95148  1.0000
  H   H2261     1.0  0.98371  0.58562  0.99127  1.0000
  C   C2828     1.0  0.74537  0.94535  0.78922  1.0000
  H   H2262     1.0  0.88326  0.82795  0.91597  1.0000
  H   H2263     1.0  0.81019  0.69439  0.75667  1.0000
  H   H2264     1.0  0.58977  0.86690  0.75676  1.0000
  H   H2265     1.0  0.64599  0.90824  0.78254  1.0000
  C   C2829     1.0  0.86744  0.53945  0.98598  1.0000
  C   C2830     1.0  0.85013  0.59089  0.94594  1.0000
  C   C2831     1.0  0.85852  0.59548  0.89826  1.0000
  C   C2832     1.0  0.54732  0.79015  0.76239  1.0000
  C   C2833     1.0  0.83002  0.59943  0.95537  1.0000
  C   C2834     1.0  0.91746  0.68425  0.94348  1.0000
  C   C2835     1.0  0.92332  0.77295  0.92783  1.0000
  C   C2836     1.0  0.92481  0.73048  0.86967  1.0000
  H   H2266     1.0  0.98409  0.49535  0.93324  1.0000
  C   C2837     1.0  0.78870  0.78134  0.77257  1.0000
  C   C2838     1.0  0.64806  0.92679  0.78279  1.0000
  C   C2839     1.0  0.49801  0.95538  0.91296  1.0000
  H   H2267     1.0  0.97693  0.61545  0.86628  1.0000
  H   H2268     1.0  0.78355  0.73011  0.80334  1.0000
  H   H2269     1.0  0.89937  0.53366  0.95206  1.0000
  C   C2840     1.0  0.71068  0.80119  0.77106  1.0000
  H   H2270     1.0  0.74804  0.93138  0.79930  1.0000
  C   C2841     1.0  0.80929  0.56725  0.94592  1.0000
  H   H2271     1.0  0.95812  0.69688  0.77764  1.0000
  H   H2272     1.0  0.66840  0.93977  0.97302  1.0000
  H   H2273     1.0  0.64224  0.95035  0.94834  1.0000
  H   H2274     1.0  0.55509  0.74963  0.79670  1.0000
  C   C2842     1.0  0.70885  0.77699  0.77236  1.0000
  C   C2843     1.0  0.69524  0.76704  0.78619  1.0000
  C   C2844     1.0  0.68316  0.78127  0.79871  1.0000
  C   C2845     1.0  0.68474  0.80537  0.79739  1.0000
  C   C2846     1.0  0.69859  0.81535  0.78370  1.0000
  H   H2275     1.0  0.94060  0.68285  0.86791  1.0000
  H   H2276     1.0  0.74815  0.74415  0.78722  1.0000
  C   C2847     1.0  0.97085  0.68939  0.76797  1.0000
  C   C2848     1.0  0.91056  0.81325  0.93277  1.0000
  H   H2277     1.0  0.78003  0.66465  0.75535  1.0000
  H   H2278     1.0  0.92049  0.67003  0.95328  1.0000
  H   H2279     1.0  0.81676  0.74526  0.87073  1.0000
  C   C2849     1.0  0.56746  0.96001  0.93857  1.0000
  C   C2850     1.0  0.79892  0.71133  0.78091  1.0000
  H   H2280     1.0  0.78488  0.55074  0.78470  1.0000
  C   C2851     1.0  0.73141  0.84411  0.75623  1.0000
  C   C2852     1.0  0.59986  0.98173  0.94627  1.0000
  C   C2853     1.0  0.76357  0.95923  0.78395  1.0000
  C   C2854     1.0  0.96669  0.49357  0.93899  1.0000
  H   H2281     1.0  0.60968  0.74188  0.96174  1.0000
  H   H2282     1.0  0.69401  0.74835  0.78721  1.0000
  H   H2283     1.0  0.67252  0.77370  0.80944  1.0000
  H   H2284     1.0  0.67503  0.81644  0.80690  1.0000
  H   H2285     1.0  0.69959  0.83409  0.78300  1.0000
  H   H2286     1.0  0.84330  0.59806  0.90714  1.0000
  H   H2287     1.0  0.63453  0.82246  0.76510  1.0000
  C   C2855     1.0  0.64055  0.83576  0.75572  1.0000
  H   H2288     1.0  0.90954  0.72063  0.86887  1.0000
  C   C2856     1.0  0.93362  0.58818  0.94057  1.0000
  C   C2857     1.0  0.94106  0.57206  0.95399  1.0000
  C   C2858     1.0  0.92875  0.55231  0.95781  1.0000
  C   C2859     1.0  0.90894  0.54866  0.94832  1.0000
  C   C2860     1.0  0.90132  0.56470  0.93474  1.0000
  C   C2861     1.0  0.91364  0.58476  0.93120  1.0000
  P   P95       1.0  0.87517  0.56058  0.92279  1.0000
  C   C2862     1.0  0.87329  0.52997  0.91843  1.0000
  C   C2863     1.0  0.84988  0.57049  0.93628  1.0000
  C   C2864     1.0  0.82913  0.55898  0.93606  1.0000
  C   C2865     1.0  0.83026  0.64696  0.75039  1.0000
  Fe  Fe192     1.0  0.91432  0.64823  0.98932  1.0000
  C   C2866     1.0  0.80774  0.51950  0.78587  1.0000
  H   H2289     1.0  0.97452  0.74133  0.84546  1.0000
  C   C2867     1.0  0.72014  0.88471  0.74842  1.0000
  S   S384      1.0  0.88073  0.67008  0.98892  1.0000
  H   H2290     1.0  0.83093  0.49064  0.74981  1.0000
  H   H2291     1.0  0.78484  0.55313  0.75154  1.0000
  C   C2868     1.0  0.64123  0.74031  0.97647  1.0000
  H   H2292     1.0  0.71787  0.76592  0.76256  1.0000
  H   H2293     1.0  0.60540  0.96517  0.90274  1.0000
  H   H2294     1.0  0.98066  0.76390  0.87238  1.0000
  C   C2869     1.0  0.98703  0.74328  0.80421  1.0000
  C   C2870     1.0  0.76492  0.63681  0.74289  1.0000
  C   C2871     1.0  0.67467  0.96286  0.87175  1.0000
  C   C2872     1.0  0.65226  0.97991  0.90328  1.0000
  H   H2295     1.0  0.97638  0.68227  0.91440  1.0000
  C   C2873     1.0  0.96767  0.62061  0.98981  1.0000
  C   C2874     1.0  0.71953  0.96826  0.76929  1.0000
  H   H2296     1.0  0.95135  0.61532  0.98521  1.0000
  P   P96       1.0  0.98702  0.49369  0.97215  1.0000
  C   C2875     1.0  0.65690  0.98338  0.94168  1.0000
  H   H2297     1.0  0.62228  0.97720  0.99174  1.0000
  H   H2298     1.0  0.67058  0.78704  0.98650  1.0000
  H   H2299     1.0  0.51739  0.93298  0.93172  1.0000
  H   H2300     1.0  0.52061  0.90935  0.98026  1.0000
  C   C2876     1.0  0.49479  0.95860  0.94533  1.0000
  C   C2877     1.0  0.67570  0.98623  0.87579  1.0000
  H   H2301     1.0  0.50026  0.95228  0.95847  1.0000
  C   C2878     1.0  0.50472  0.94767  0.93013  1.0000
  H   H2302     1.0  0.68366  0.79605  0.74315  1.0000
  H   H2303     1.0  0.59451  0.80761  0.98979  1.0000
  H   H2304     1.0  0.55420  0.82562  0.99112  1.0000
  C   C2879     1.0  0.49305  0.97545  0.99004  1.0000
  C   C2880     1.0  0.98051  0.66468  0.74282  1.0000
