data_image0
_chemical_formula_structural       FeS4FeS2FeS2FeSFeS3FeS2FeS2FeSFeS4CHFeS2FeCSHFeSCFeS2H2C4H2C5H3C7H4C2HC6H4C6H4CH3C6H4C6H4C5H2C2H2CH3C7PC9HC8H13CH6C2HCH2CFeH4C4HCH2C2H2CHC3H5C3HCH2CH2C3HC3HCHC2HC4H3CP2H2CHC3HC2HC5HC4HC4H5CSC7H3C3HCHCH2C2H3C4PHPCH2C2HC2HSC2H3C5HCH2C2HCHCHC8H4CHC2H2C2FeHCHC5H2C5H2C2HCH2CHC3HCH2CHCHCH2CH3FeCH2C2SC2HC4H2CHSC3HCH3CH2C5H4CH5CSC2HC2HPCH3C3HPCHCHCHC4HPCSH3CHC4H2CHC3HSC2SCHCH6CH2FeC6HCH2SH2SFeS2FeS2FeSFeS3FeS2FeS2FeSFeS3FeCSH2FeS2FeCSFeS2CH3C3HC2SH5C2HC6H4C6H5C2HCH2C6H4C6H5C3H2C6H4C8PC4HC8FeC3H5C3H6CH2C7PC18H20C6PC15H15CHCH3C2H2C5H4C2HC3HPC2H4CH3C6PC13HC2H2CH12CSHCH2CSH3SCH2C3HC2HC2H2CH3CHC2HCHCH3C2H6CH3C7HCH5FeCH2FeHCHCHCH2C6HC2PHC6HCH3CH2C2HCHPCHCHC4H2C3HC2PCHPC3H3C2HC2SH2CH3C7HCHC2HCPCHC5HCHCH2C2H2C2HCH2CHC2H4CHCH2CPSC3H3C2HC2H2C3S2FeSC2H2FeCFeC3HCH2C6H5CHC3HCHPC5HCFeS2HSFeSFeCSC3SC2FeCSFeS2FeS2FeCFeHS2C2HCH2C2FePHC2HSC6H4C4HC6H6C3H3CH2C4HC2H8CH2C2HC3SPC2H2C2SPHC3H5CHCH4CFeCH3C2HC3SCHCH2CSCHCH2CHSH4CHC3HCH2CHSC3HC6H2C2H2CHC3HCH6CH2C4H2CSCH2CH2CHC2PH7CH3SHCHCH2C3HC2HC7PC15H2CHC2H3C3H2C4FeSCHC2SCH2C3H4FeH5CHCHSC3H4C2FeHCFeCSC3HSCSHC3H2CSCFeS2FeHSHCFeCS2HFeCHCFeC2HC4H5C7H6CHC6HCH3SHCPH2C7H4C2HC3HCFeCSH2C5H2CHCHCH3PC3H2CHSCHFeSH2CH2CHCHC7HC7SH3CFeCSHC6H2C3H2CH3CHC2HFeSH2CH3C4H2C6HCHPHC3HCSC2HC4H4CHC5H2SC2HCHCH5CPHC3H4CS2HC2H2CHC2SH3CHCHC5H2C3SH2FeCSH5C7H5CH2C2HCHC2H2CHC2H4SHS2C2FeC2H3C4HCH2CFeHC4H3C2H3C2H2C2H2C2HCFeSHCFeHSCHC12H5SC5HFeC6H4CH2CHC2H2C2PH3C2HC3HCPSHC2HC4SPH3PCHC2HC2HCH2C5H5CH2C3H2C2SCHC5SCHCHCHCSC2PHCH2C6H5CPHCHCHC2HC3HC2HC5SC2H3CHC6HCH4CH4CHC3H2C3HCHC2HCHC2HC4HCHPHCHPCH4FeCHCHSHC2HC6H2C3H2CH3CHCHC2FeHCHCHSC3H2CS3H2SHSH2CHSCHCFeH3C6HCH3C2SHCH2C3H2C2HFeH3C2HC5H5SCHSHCHCFeS2CSFeSFeS3FeC2FeHSFeS2FeS2FeSFeS3HCSC6H4C2SHFeC3SC2HC2H2CH2SC7H5C9HFeHC6H5C6PC5HC12H7C2H9CH2C2HC2PH4C6H2C6SC3SC3H4CHSH5C6PHSC4H2C2H2C2HCH2CHC2SH2CH3C10H3CH7FeH2CH3C2H2CH2C2H2C4HC5HSCHCH2CH4C6PC2HPFeC13H2CH3C4H9CH3CH2CHC5H5CH2CHSCHFe2HSFeS2FeSHS2HSHFeSFeSFeCSFeS2C2FeHS2FeC2FeCHFeHSCHCHC6SH3CHSH2C2HFeHCHC3H2C3H2C3HC2HCH2C6H5C2SHC3HC3H2C6PHC7H3C2PC2H6C2H3C6PC18SH19CHPC4HCH4C3H2CH3CH3CFeCH2SC2SHC4HC5PH2SHC2Fe2CSCHC4HC2H2C3HC2H2CFeH4C4H2CHC2HCH3CH2C2FeCS2FeS2FeS2FeSFeS3FeS2FeS2FeSFeS3CFeSCFeS2FeS2CFeHSHC2H3C2H3C2HC7H4CHCHC6H4C6H4C6H4C6H4C7PC18HCH18SH2C2H3C5PC18H21CH2CFeC2HCSHCHCH2CHCH2C2HC4HCSC2PSCH2C2H2CPC3H2CSH4CH2C5HSCHC4FeHC6HCHC3HC4HCHFeC2HC3SH2CH5C2H2CPC3H2C2HCHPC2HCHCH2C5H2C4H3CHCH5CHCHSCH2C2HC2HCSH4CHCHC2HCHC2HC4HC3SH3C2H2PHC2SC2H2C8HSHCH5C5HPH2C2HCHC2HC2SCH4C2H2C2H8CHCHC2HC2SCHC3H2PC2H3CHC2HCHSC2HCHCSFeCSHCFeS2FeS2FeSFeS3FeS2FeS2FeSFeS3FeHCHS2HFeS2HCHSH3C4HCHPC3H4C3HC6H5C2H2C6H4C6H4C4H2C6H7C6H6CHC2H2CHCH3CH6CH2C3HCSH2CH2FeC2H4CH2CHC2HCHCHC2FeH7CHPC2HCH3C2H2C5H2CH2SC2H2C2H4C9PHCHCH2CHCHC2H6CHC3H2C6PC18H6C2H3CH8SH2CH2CH3C6PC18H7CHCH2C2HC7H2C7H2C4HC3HPC2HC2HC2HC4HC3HC2HCHC3H4CPC3HC2HC3HCHC3HC2HCHCH3C4H2CH4CHC2H3CHC2HC4H3FeHC4HPHC2H5C4HCH2CH2C4H3CH2SCHC3HC7H3CH4CH2CHC3HC2HC2H4CHSHCHCHC
_chemical_formula_sum              "Fe128 S256 C1920 H1536 P64"
_cell_length_a       62.0953
_cell_length_b       62.3424
_cell_length_c       40.3618
_cell_angle_alpha    89.1098
_cell_angle_beta     89.0829
_cell_angle_gamma    89.8735

_space_group_name_H-M_alt    "P 1"
_space_group_IT_number       1

loop_
  _space_group_symop_operation_xyz
  'x, y, z'

loop_
  _atom_site_type_symbol
  _atom_site_label
  _atom_site_symmetry_multiplicity
  _atom_site_fract_x
  _atom_site_fract_y
  _atom_site_fract_z
  _atom_site_occupancy
  Fe  Fe1       1.0  0.36697  0.28154  0.37913  1.0000
  S   S1        1.0  0.39061  0.30705  0.39287  1.0000
  S   S2        1.0  0.36955  0.24719  0.39710  1.0000
  S   S3        1.0  0.33817  0.30067  0.39484  1.0000
  S   S4        1.0  0.36576  0.29158  0.32587  1.0000
  Fe  Fe2       1.0  0.30177  0.11313  0.36377  1.0000
  S   S5        1.0  0.32516  0.08678  0.37548  1.0000
  S   S6        1.0  0.26741  0.10916  0.38087  1.0000
  Fe  Fe3       1.0  0.33575  0.14057  0.33023  1.0000
  S   S7        1.0  0.36191  0.11624  0.33879  1.0000
  S   S8        1.0  0.34159  0.17198  0.30305  1.0000
  Fe  Fe4       1.0  0.33738  0.09193  0.32296  1.0000
  S   S9        1.0  0.34335  0.06132  0.29347  1.0000
  Fe  Fe5       1.0  0.34721  0.11334  0.39024  1.0000
  S   S10       1.0  0.36886  0.11303  0.43525  1.0000
  S   S11       1.0  0.31225  0.11662  0.31050  1.0000
  S   S12       1.0  0.32270  0.13935  0.38245  1.0000
  Fe  Fe6       1.0  0.16819  0.16860  0.32734  1.0000
  S   S13       1.0  0.15210  0.13675  0.33363  1.0000
  S   S14       1.0  0.20287  0.17385  0.31231  1.0000
  Fe  Fe7       1.0  0.12832  0.19234  0.34872  1.0000
  S   S15       1.0  0.10888  0.16210  0.35775  1.0000
  S   S16       1.0  0.11670  0.22571  0.36039  1.0000
  Fe  Fe8       1.0  0.13916  0.14962  0.38205  1.0000
  S   S17       1.0  0.14590  0.12841  0.42766  1.0000
  Fe  Fe9       1.0  0.12346  0.15194  0.30852  1.0000
  S   S18       1.0  0.10865  0.13271  0.26628  1.0000
  S   S19       1.0  0.15709  0.18064  0.37656  1.0000
  S   S20       1.0  0.14094  0.18296  0.29860  1.0000
  S   S21       1.0  0.16915  0.30228  0.29373  1.0000
  C   C1        1.0  0.28325  0.08003  0.20889  1.0000
  H   H1        1.0  0.10873  0.30317  0.37561  1.0000
  Fe  Fe10      1.0  0.35362  0.01646  0.10430  1.0000
  S   S22       1.0  0.33781  0.01992  0.05446  1.0000
  S   S23       1.0  0.34923  0.04583  0.13730  1.0000
  Fe  Fe11      1.0  0.36969  0.00974  0.03301  1.0000
  C   C2        1.0  0.20689  0.04254  0.06170  1.0000
  S   S24       1.0  0.38599  0.00896  0.08172  1.0000
  H   H2        1.0  0.00702  0.08889  0.00156  1.0000
  Fe  Fe12      1.0  0.02698  0.12546  0.04163  1.0000
  S   S25       1.0  0.02104  0.11163  0.09284  1.0000
  C   C3        1.0  0.21797  0.13444  0.25762  1.0000
  Fe  Fe13      1.0  0.02425  0.14576  0.10989  1.0000
  S   S26       1.0  0.03911  0.15957  0.15694  1.0000
  S   S27       1.0  0.03290  0.15911  0.05897  1.0000
  H   H3        1.0  0.27090  0.04395  0.05201  1.0000
  H   H4        1.0  0.03137  0.25525  0.03353  1.0000
  C   C4        1.0  0.07610  0.06950  0.16458  1.0000
  C   C5        1.0  0.06574  0.08051  0.03962  1.0000
  C   C6        1.0  0.99612  0.05035  0.13032  1.0000
  C   C7        1.0  0.28761  0.05766  0.09343  1.0000
  H   H5        1.0  0.05770  0.08815  0.06023  1.0000
  H   H6        1.0  0.19343  0.04092  0.04508  1.0000
  C   C8        1.0  0.28308  0.05268  0.28611  1.0000
  C   C9        1.0  0.00587  0.11112  0.21866  1.0000
  C   C10       1.0  0.41365  0.07624  0.02894  1.0000
  C   C11       1.0  0.40092  0.05796  0.02421  1.0000
  C   C12       1.0  0.30581  0.06942  0.10240  1.0000
  H   H7        1.0  0.41181  0.08525  0.05150  1.0000
  H   H8        1.0  0.38935  0.05294  0.04306  1.0000
  H   H9        1.0  0.29983  0.04775  0.28523  1.0000
  C   C13       1.0  0.40953  0.05133  0.29785  1.0000
  C   C14       1.0  0.15562  0.28077  0.31341  1.0000
  C   C15       1.0  0.14504  0.28342  0.34392  1.0000
  C   C16       1.0  0.13322  0.26636  0.35826  1.0000
  C   C17       1.0  0.13250  0.24645  0.34272  1.0000
  C   C18       1.0  0.14386  0.24358  0.31292  1.0000
  C   C19       1.0  0.15518  0.26077  0.29810  1.0000
  H   H10       1.0  0.14573  0.29869  0.35619  1.0000
  H   H11       1.0  0.12482  0.26844  0.38166  1.0000
  H   H12       1.0  0.14336  0.22836  0.30064  1.0000
  H   H13       1.0  0.16353  0.25859  0.27465  1.0000
  C   C20       1.0  0.49373  0.06901  0.02711  1.0000
  C   C21       1.0  0.41629  0.03641  0.27431  1.0000
  H   H14       1.0  0.41163  0.04801  0.32403  1.0000
  C   C22       1.0  0.05904  0.15195  0.18637  1.0000
  C   C23       1.0  0.06233  0.16512  0.21389  1.0000
  C   C24       1.0  0.07779  0.15983  0.23804  1.0000
  C   C25       1.0  0.09016  0.14114  0.23513  1.0000
  C   C26       1.0  0.08690  0.12796  0.20758  1.0000
  C   C27       1.0  0.07155  0.13337  0.18329  1.0000
  H   H15       1.0  0.05284  0.17957  0.21658  1.0000
  H   H16       1.0  0.07995  0.17008  0.25910  1.0000
  H   H17       1.0  0.09626  0.11341  0.20503  1.0000
  H   H18       1.0  0.06951  0.12328  0.16208  1.0000
  C   C28       1.0  0.24969  0.12768  0.36274  1.0000
  C   C29       1.0  0.25740  0.14398  0.34159  1.0000
  C   C30       1.0  0.24291  0.15830  0.32667  1.0000
  C   C31       1.0  0.22071  0.15631  0.33259  1.0000
  C   C32       1.0  0.21305  0.14014  0.35404  1.0000
  C   C33       1.0  0.22754  0.12588  0.36915  1.0000
  H   H19       1.0  0.27451  0.14555  0.33670  1.0000
  H   H20       1.0  0.24889  0.17081  0.31033  1.0000
  H   H21       1.0  0.19599  0.13861  0.35913  1.0000
  H   H22       1.0  0.22157  0.11347  0.38586  1.0000
  C   C34       1.0  0.35834  0.11575  0.47608  1.0000
  H   H23       1.0  0.19382  0.15511  0.23647  1.0000
  H   H24       1.0  0.21519  0.09146  0.47372  1.0000
  H   H25       1.0  0.09192  0.05745  0.20817  1.0000
  C   C35       1.0  0.34406  0.05739  0.24988  1.0000
  C   C36       1.0  0.34588  0.03638  0.23786  1.0000
  C   C37       1.0  0.34728  0.03247  0.20353  1.0000
  C   C38       1.0  0.34697  0.04959  0.18080  1.0000
  C   C39       1.0  0.34481  0.07059  0.19278  1.0000
  C   C40       1.0  0.34330  0.07450  0.22709  1.0000
  H   H26       1.0  0.34633  0.02305  0.25529  1.0000
  H   H27       1.0  0.34873  0.01625  0.19463  1.0000
  H   H28       1.0  0.34448  0.08397  0.17539  1.0000
  H   H29       1.0  0.34191  0.09075  0.23592  1.0000
  C   C41       1.0  0.36101  0.22673  0.37066  1.0000
  C   C42       1.0  0.35553  0.23100  0.33774  1.0000
  C   C43       1.0  0.34968  0.21412  0.31702  1.0000
  C   C44       1.0  0.34898  0.19296  0.32926  1.0000
  C   C45       1.0  0.35413  0.18878  0.36230  1.0000
  C   C46       1.0  0.35996  0.20563  0.38292  1.0000
  H   H30       1.0  0.35583  0.24723  0.32820  1.0000
  H   H31       1.0  0.34565  0.21747  0.29153  1.0000
  H   H32       1.0  0.35400  0.17253  0.37192  1.0000
  H   H33       1.0  0.36360  0.20224  0.40846  1.0000
  C   C47       1.0  0.33702  0.17979  0.47997  1.0000
  C   C48       1.0  0.46108  0.01773  0.23968  1.0000
  C   C49       1.0  0.38747  0.19218  0.46687  1.0000
  C   C50       1.0  0.37249  0.28584  0.20349  1.0000
  C   C51       1.0  0.36635  0.29330  0.17200  1.0000
  H   H34       1.0  0.47202  0.23190  0.14625  1.0000
  H   H35       1.0  0.37134  0.31162  0.48290  1.0000
  C   C52       1.0  0.36537  0.29688  0.23162  1.0000
  C   C53       1.0  0.44356  0.00798  0.03561  1.0000
  H   H36       1.0  0.34209  0.25565  0.19540  1.0000
  H   H37       1.0  0.37154  0.28502  0.14987  1.0000
  C   C54       1.0  0.42103  0.26701  0.43366  1.0000
  H   H38       1.0  0.34938  0.31773  0.14443  1.0000
  H   H39       1.0  0.08909  0.06500  0.14779  1.0000
  H   H40       1.0  0.28795  0.07592  0.32414  1.0000
  C   C55       1.0  0.21010  0.14067  0.47463  1.0000
  C   C56       1.0  0.28849  0.17683  0.26320  1.0000
  C   C57       1.0  0.27084  0.17324  0.24298  1.0000
  C   C58       1.0  0.25353  0.18763  0.24309  1.0000
  C   C59       1.0  0.25372  0.20542  0.26378  1.0000
  C   C60       1.0  0.27108  0.20871  0.28500  1.0000
  C   C61       1.0  0.28877  0.19469  0.28371  1.0000
  P   P1        1.0  0.27208  0.23235  0.31013  1.0000
  C   C62       1.0  0.28493  0.25207  0.28352  1.0000
  C   C63       1.0  0.24556  0.24080  0.32334  1.0000
  C   C64       1.0  0.24090  0.26268  0.32750  1.0000
  C   C65       1.0  0.22000  0.26919  0.33611  1.0000
  C   C66       1.0  0.20385  0.25388  0.34142  1.0000
  C   C67       1.0  0.20861  0.23206  0.33875  1.0000
  C   C68       1.0  0.22946  0.22552  0.33010  1.0000
  C   C69       1.0  0.30742  0.25397  0.28290  1.0000
  C   C70       1.0  0.31751  0.26861  0.26130  1.0000
  H   H41       1.0  0.23560  0.27263  0.44209  1.0000
  C   C71       1.0  0.28608  0.00728  0.11954  1.0000
  C   C72       1.0  0.27272  0.26437  0.26119  1.0000
  C   C73       1.0  0.28677  0.22750  0.34776  1.0000
  C   C74       1.0  0.28668  0.20706  0.36292  1.0000
  C   C75       1.0  0.29846  0.20323  0.39166  1.0000
  C   C76       1.0  0.30998  0.21988  0.40587  1.0000
  C   C77       1.0  0.30961  0.24042  0.39149  1.0000
  C   C78       1.0  0.29789  0.24431  0.36270  1.0000
  H   H42       1.0  0.30202  0.16579  0.26313  1.0000
  H   H43       1.0  0.27062  0.15933  0.22723  1.0000
  H   H44       1.0  0.23982  0.18493  0.22744  1.0000
  H   H45       1.0  0.24023  0.21646  0.26338  1.0000
  H   H46       1.0  0.30280  0.19750  0.29864  1.0000
  H   H47       1.0  0.25327  0.27473  0.32357  1.0000
  H   H48       1.0  0.21617  0.28613  0.33797  1.0000
  H   H49       1.0  0.18760  0.25894  0.34730  1.0000
  H   H50       1.0  0.19605  0.22016  0.34268  1.0000
  H   H51       1.0  0.23286  0.20853  0.32813  1.0000
  H   H52       1.0  0.31716  0.24428  0.29928  1.0000
  H   H53       1.0  0.33480  0.27044  0.26194  1.0000
  H   H54       1.0  0.04014  0.02163  0.15319  1.0000
  C   C79       1.0  0.21844  0.30265  0.44121  1.0000
  H   H55       1.0  0.25538  0.26268  0.26048  1.0000
  H   H56       1.0  0.27777  0.19397  0.35234  1.0000
  H   H57       1.0  0.29901  0.18723  0.40245  1.0000
  H   H58       1.0  0.31959  0.21680  0.42761  1.0000
  H   H59       1.0  0.31899  0.25318  0.40205  1.0000
  H   H60       1.0  0.29787  0.26033  0.35181  1.0000
  C   C80       1.0  0.34875  0.24070  0.20457  1.0000
  C   C81       1.0  0.40500  0.27008  0.45777  1.0000
  H   H61       1.0  0.37955  0.24712  0.27643  1.0000
  C   C82       1.0  0.20649  0.09829  0.27250  1.0000
  H   H62       1.0  0.26244  0.31297  0.30092  1.0000
  H   H63       1.0  0.02397  0.20290  0.18099  1.0000
  C   C83       1.0  0.18484  0.08697  0.34401  1.0000
  Fe  Fe14      1.0  0.99746  0.16404  0.05184  1.0000
  H   H64       1.0  0.31144  0.06682  0.48115  1.0000
  H   H65       1.0  0.46670  0.00759  0.11127  1.0000
  H   H66       1.0  0.45442  0.27166  0.42044  1.0000
  H   H67       1.0  0.16219  0.20519  0.48275  1.0000
  C   C84       1.0  0.18152  0.12337  0.24659  1.0000
  C   C85       1.0  0.16409  0.24477  0.41466  1.0000
  C   C86       1.0  0.02755  0.09534  0.33609  1.0000
  C   C87       1.0  0.03472  0.30431  0.37940  1.0000
  H   H68       1.0  0.26008  0.10837  0.45131  1.0000
  C   C88       1.0  0.37877  0.21904  0.22336  1.0000
  H   H69       1.0  0.18597  0.03638  0.31956  1.0000
  H   H70       1.0  0.49218  0.01565  0.26249  1.0000
  C   C89       1.0  0.29938  0.06050  0.03564  1.0000
  C   C90       1.0  0.05809  0.11256  0.30901  1.0000
  H   H71       1.0  0.03524  0.00668  0.09807  1.0000
  H   H72       1.0  0.41698  0.25971  0.41035  1.0000
  C   C91       1.0  0.01274  0.30048  0.38468  1.0000
  H   H73       1.0  0.12399  0.29894  0.43130  1.0000
  C   C92       1.0  0.42578  0.03397  0.17084  1.0000
  C   C93       1.0  0.18460  0.03671  0.29284  1.0000
  C   C94       1.0  0.42634  0.26703  0.30505  1.0000
  H   H74       1.0  0.30905  0.07283  0.12794  1.0000
  H   H75       1.0  0.46394  0.26228  0.18350  1.0000
  H   H76       1.0  0.26019  0.02650  0.18811  1.0000
  H   H77       1.0  0.06253  0.27900  0.34323  1.0000
  H   H78       1.0  0.03722  0.02943  0.00003  1.0000
  C   C95       1.0  0.07292  0.19532  0.44106  1.0000
  C   C96       1.0  0.20844  0.06707  0.39425  1.0000
  C   C97       1.0  0.19030  0.07939  0.40225  1.0000
  H   H79       1.0  0.02031  0.21746  0.04485  1.0000
  C   C98       1.0  0.24833  0.07858  0.16602  1.0000
  H   H80       1.0  0.01828  0.05896  0.03782  1.0000
  H   H81       1.0  0.44583  0.25723  0.09613  1.0000
  C   C99       1.0  0.00292  0.06567  0.24137  1.0000
  H   H82       1.0  0.06240  0.06763  0.24640  1.0000
  H   H83       1.0  0.43016  0.28168  0.22393  1.0000
  C   C100      1.0  0.01019  0.22793  0.03016  1.0000
  C   C101      1.0  0.47983  0.00706  0.24946  1.0000
  C   C102      1.0  0.39606  0.07439  0.25411  1.0000
  H   H84       1.0  0.02314  0.13525  0.24583  1.0000
  C   C103      1.0  0.21524  0.02438  0.07760  1.0000
  C   C104      1.0  0.39942  0.07030  0.28774  1.0000
  C   C105      1.0  0.42355  0.27406  0.24604  1.0000
  H   H85       1.0  0.05678  0.08337  0.12594  1.0000
  C   C106      1.0  0.46117  0.01478  0.01614  1.0000
  H   H86       1.0  0.16841  0.23661  0.39199  1.0000
  C   C107      1.0  0.07891  0.18910  0.47302  1.0000
  C   C108      1.0  0.21980  0.16420  0.42850  1.0000
  H   H87       1.0  0.29071  0.01154  0.09430  1.0000
  C   C109      1.0  0.41297  0.04039  0.24039  1.0000
  C   C110      1.0  0.29113  0.30008  0.44139  1.0000
  C   C111      1.0  0.40365  0.26343  0.24571  1.0000
  C   C112      1.0  0.40856  0.18329  0.40661  1.0000
  H   H88       1.0  0.23959  0.01165  0.10913  1.0000
  H   H89       1.0  0.23448  0.07804  0.15022  1.0000
  H   H90       1.0  0.31728  0.30080  0.47579  1.0000
  C   C113      1.0  0.24763  0.14889  0.46313  1.0000
  P   P2        1.0  0.00261  0.01474  0.04624  1.0000
  P   P3        1.0  0.38852  0.26174  0.20783  1.0000
  H   H91       1.0  0.46333  0.28922  0.47274  1.0000
  H   H92       1.0  0.37005  0.29160  0.25605  1.0000
  C   C114      1.0  0.28459  0.05322  0.05976  1.0000
  H   H93       1.0  0.33514  0.08476  0.08571  1.0000
  C   C115      1.0  0.31751  0.07204  0.04490  1.0000
  C   C116      1.0  0.32074  0.07643  0.07827  1.0000
  C   C117      1.0  0.40670  0.25994  0.17246  1.0000
  H   H94       1.0  0.41438  0.29384  0.17179  1.0000
  C   C118      1.0  0.04139  0.01375  0.00975  1.0000
  C   C119      1.0  0.00544  0.05646  0.02040  1.0000
  H   H95       1.0  0.31774  0.22515  0.20628  1.0000
  C   C120      1.0  0.01065  0.13212  0.22820  1.0000
  C   C121      1.0  0.28401  0.06665  0.18144  1.0000
  C   C122      1.0  0.41713  0.27848  0.16026  1.0000
  C   C123      1.0  0.43119  0.27744  0.13296  1.0000
  C   C124      1.0  0.41048  0.24033  0.15666  1.0000
  H   H96       1.0  0.43926  0.29185  0.12397  1.0000
  C   C125      1.0  0.48420  0.24386  0.15066  1.0000
  C   C126      1.0  0.27641  0.06864  0.30790  1.0000
  C   C127      1.0  0.43485  0.25792  0.11732  1.0000
  C   C128      1.0  0.01945  0.08983  0.30519  1.0000
  H   H97       1.0  0.39886  0.05430  0.10436  1.0000
  C   C129      1.0  0.17210  0.26527  0.42066  1.0000
  C   C130      1.0  0.09758  0.22535  0.44278  1.0000
  C   C131      1.0  0.39767  0.16696  0.42405  1.0000
  C   C132      1.0  0.22238  0.11427  0.27152  1.0000
  H   H98       1.0  0.24992  0.08726  0.32645  1.0000
  H   H99       1.0  0.29672  0.08042  0.22567  1.0000
  H   H100      1.0  0.29697  0.05682  0.00987  1.0000
  H   H101      1.0  0.29809  0.05658  0.17763  1.0000
  H   H102      1.0  0.25373  0.16969  0.42081  1.0000
  C   C133      1.0  0.25482  0.07498  0.30921  1.0000
  S   S28       1.0  0.04660  0.11111  0.99948  1.0000
  C   C134      1.0  0.17843  0.08913  0.37710  1.0000
  C   C135      1.0  0.26816  0.04307  0.26554  1.0000
  C   C136      1.0  0.28286  0.27907  0.23964  1.0000
  C   C137      1.0  0.37079  0.23877  0.21144  1.0000
  C   C138      1.0  0.24648  0.04928  0.26696  1.0000
  C   C139      1.0  0.39519  0.25475  0.27555  1.0000
  C   C140      1.0  0.40988  0.27990  0.48753  1.0000
  H   H103      1.0  0.42358  0.02154  0.28270  1.0000
  H   H104      1.0  0.22878  0.05493  0.35547  1.0000
  H   H105      1.0  0.39566  0.21724  0.22918  1.0000
  C   C141      1.0  0.39896  0.20836  0.44977  1.0000
  C   C142      1.0  0.23958  0.06514  0.28918  1.0000
  C   C143      1.0  0.99779  0.02704  0.24532  1.0000
  H   H106      1.0  0.26453  0.10284  0.23654  1.0000
  C   C144      1.0  0.33483  0.22339  0.21063  1.0000
  H   H107      1.0  0.22998  0.14697  0.25822  1.0000
  C   C145      1.0  0.26505  0.09262  0.21505  1.0000
  H   H108      1.0  0.18267  0.27316  0.40271  1.0000
  H   H109      1.0  0.00441  0.01093  0.24506  1.0000
  C   C146      1.0  0.19752  0.13906  0.24543  1.0000
  C   C147      1.0  0.18598  0.10304  0.25993  1.0000
  H   H110      1.0  0.27348  0.03079  0.24859  1.0000
  H   H111      1.0  0.23790  0.11162  0.28261  1.0000
  H   H112      1.0  0.31302  0.29293  0.22355  1.0000
  C   C148      1.0  0.10861  0.29551  0.28226  1.0000
  C   C149      1.0  0.26673  0.06608  0.15936  1.0000
  C   C150      1.0  0.35360  0.31174  0.16882  1.0000
  C   C151      1.0  0.42861  0.08303  0.00457  1.0000
  P   P4        1.0  0.26808  0.04828  0.12424  1.0000
  H   H113      1.0  0.00440  0.08118  0.30432  1.0000
  P   P5        1.0  0.21145  0.07268  0.29263  1.0000
  C   C152      1.0  0.24754  0.09181  0.19377  1.0000
  H   H114      1.0  0.38762  0.08882  0.24646  1.0000
  H   H115      1.0  0.17543  0.09486  0.32510  1.0000
  C   C153      1.0  0.34284  0.20399  0.22317  1.0000
  C   C154      1.0  0.01144  0.04477  0.24166  1.0000
  H   H116      1.0  0.43612  0.06482  0.08750  1.0000
  C   C155      1.0  0.06092  0.07116  0.22018  1.0000
  C   C156      1.0  0.45040  0.05143  0.13146  1.0000
  H   H117      1.0  0.23334  0.10144  0.19881  1.0000
  S   S29       1.0  0.01242  0.29040  0.99754  1.0000
  C   C157      1.0  0.09085  0.05356  0.01880  1.0000
  C   C158      1.0  0.15206  0.26602  0.47254  1.0000
  H   H118      1.0  0.40259  0.22579  0.16526  1.0000
  H   H119      1.0  0.39906  0.06269  0.20477  1.0000
  H   H120      1.0  0.33203  0.19076  0.22883  1.0000
  C   C159      1.0  0.36481  0.20179  0.22933  1.0000
  C   C160      1.0  0.46527  0.00949  0.08468  1.0000
  C   C161      1.0  0.42450  0.23937  0.12916  1.0000
  C   C162      1.0  0.05008  0.10703  0.27814  1.0000
  C   C163      1.0  0.07765  0.06522  0.19855  1.0000
  H   H121      1.0  0.39358  0.08156  0.30603  1.0000
  C   C164      1.0  0.01286  0.04285  0.14998  1.0000
  H   H122      1.0  0.21777  0.05962  0.41375  1.0000
  H   H123      1.0  0.26519  0.30508  0.40730  1.0000
  C   C165      1.0  0.10936  0.30819  0.42793  1.0000
  C   C166      1.0  0.48872  0.25124  0.03436  1.0000
  H   H124      1.0  0.16540  0.12721  0.23828  1.0000
  C   C167      1.0  0.48565  0.22949  0.04343  1.0000
  H   H125      1.0  0.37910  0.15841  0.46746  1.0000
  C   C168      1.0  0.06141  0.00513  0.00081  1.0000
  H   H126      1.0  0.23527  0.04146  0.25094  1.0000
  C   C169      1.0  0.14181  0.13308  0.47072  1.0000
  C   C170      1.0  0.41231  0.05025  0.12011  1.0000
  C   C171      1.0  0.43321  0.05628  0.11074  1.0000
  C   C172      1.0  0.04126  0.08610  0.17385  1.0000
  C   C173      1.0  0.04167  0.32045  0.35700  1.0000
  C   C174      1.0  0.23305  0.02616  0.09816  1.0000
  C   C175      1.0  0.20324  0.07497  0.33566  1.0000
  C   C176      1.0  0.27538  0.02202  0.13996  1.0000
  H   H127      1.0  0.26457  0.14704  0.46855  1.0000
  H   H128      1.0  0.24198  0.07989  0.08885  1.0000
  H   H129      1.0  0.01500  0.04933  0.17431  1.0000
  H   H130      1.0  0.48543  0.10090  0.04276  1.0000
  C   C177      1.0  0.04688  0.10667  0.33800  1.0000
  H   H131      1.0  0.39228  0.03457  0.15688  1.0000
  C   C178      1.0  0.40861  0.03902  0.14992  1.0000
  C   C179      1.0  0.24275  0.04624  0.10288  1.0000
  H   H132      1.0  0.37084  0.18686  0.23984  1.0000
  H   H133      1.0  0.21788  0.30366  0.41439  1.0000
  C   C180      1.0  0.27376  0.31140  0.42820  1.0000
  C   C181      1.0  0.99913  0.07350  0.99983  1.0000
  Fe  Fe15      1.0  0.33860  0.31284  0.34248  1.0000
  H   H134      1.0  0.17309  0.09139  0.26162  1.0000
  C   C182      1.0  0.21478  0.06465  0.36106  1.0000
  H   H135      1.0  0.16437  0.09867  0.38328  1.0000
  C   C183      1.0  0.19514  0.05252  0.27351  1.0000
  C   C184      1.0  0.19319  0.05235  0.23887  1.0000
  C   C185      1.0  0.03077  0.09552  0.27594  1.0000
  C   C186      1.0  0.01646  0.24939  0.02355  1.0000
  C   C187      1.0  0.17211  0.02110  0.27773  1.0000
  H   H136      1.0  0.20998  0.07658  0.05360  1.0000
  H   H137      1.0  0.42734  0.22426  0.11690  1.0000
  C   C188      1.0  0.44673  0.04035  0.16143  1.0000
  C   C189      1.0  0.26903  0.01566  0.17223  1.0000
  C   C190      1.0  0.09970  0.31837  0.45495  1.0000
  C   C191      1.0  0.40658  0.25641  0.30501  1.0000
  C   C192      1.0  0.02406  0.01875  0.10657  1.0000
  H   H138      1.0  0.42809  0.00529  0.02432  1.0000
  H   H139      1.0  0.18543  0.08162  0.42785  1.0000
  C   C193      1.0  0.43486  0.27572  0.27558  1.0000
  C   C194      1.0  0.44573  0.00491  0.06974  1.0000
  H   H140      1.0  0.14774  0.27453  0.49482  1.0000
  C   C195      1.0  0.27177  0.00283  0.01878  1.0000
  H   H141      1.0  0.05890  0.11184  0.25596  1.0000
  H   H142      1.0  0.14330  0.21937  0.43171  1.0000
  C   C196      1.0  0.08486  0.26850  0.30604  1.0000
  H   H143      1.0  0.39960  0.22443  0.45934  1.0000
  C   C197      1.0  0.40934  0.20394  0.41959  1.0000
  C   C198      1.0  0.34657  0.32261  0.19704  1.0000
  C   C199      1.0  0.10147  0.27429  0.28398  1.0000
  H   H144      1.0  0.00755  0.28799  0.40199  1.0000
  C   C200      1.0  0.99514  0.03648  0.01855  1.0000
  H   H145      1.0  0.41747  0.21666  0.40583  1.0000
  H   H146      1.0  0.05321  0.11095  0.36189  1.0000
  C   C201      1.0  0.31622  0.17132  0.48226  1.0000
  H   H147      1.0  0.44984  0.28457  0.27591  1.0000
  C   C202      1.0  0.40262  0.05945  0.23050  1.0000
  H   H148      1.0  0.17918  0.03670  0.19712  1.0000
  C   C203      1.0  0.06269  0.08831  0.00737  1.0000
  H   H149      1.0  0.20137  0.06430  0.22350  1.0000
  H   H150      1.0  0.46655  0.05633  0.12423  1.0000
  C   C204      1.0  0.14971  0.23506  0.43724  1.0000
  H   H151      1.0  0.02750  0.09437  0.16366  1.0000
  H   H152      1.0  0.04630  0.29472  0.39295  1.0000
  H   H153      1.0  0.39975  0.25003  0.32802  1.0000
  Fe  Fe16      1.0  0.48559  0.30792  0.07179  1.0000
  C   C205      1.0  0.02694  0.02720  0.13806  1.0000
  H   H154      1.0  0.41615  0.17996  0.38289  1.0000
  H   H155      1.0  0.01883  0.09085  0.35860  1.0000
  C   C206      1.0  0.18071  0.03671  0.22385  1.0000
  C   C207      1.0  0.39914  0.00132  0.20711  1.0000
  S   S30       1.0  0.48863  0.27110  0.06617  1.0000
  C   C208      1.0  0.22928  0.28414  0.49147  1.0000
  C   C209      1.0  0.23426  0.06442  0.08668  1.0000
  H   H156      1.0  0.43475  0.26912  0.32807  1.0000
  C   C210      1.0  0.28631  0.08745  0.46278  1.0000
  C   C211      1.0  0.48116  0.01863  0.03082  1.0000
  C   C212      1.0  0.48281  0.01669  0.06541  1.0000
  C   C213      1.0  0.35232  0.31507  0.22845  1.0000
  H   H157      1.0  0.48241  0.22531  0.06910  1.0000
  H   H158      1.0  0.35569  0.22905  0.46098  1.0000
  C   C214      1.0  0.04256  0.08166  0.20801  1.0000
  H   H159      1.0  0.07768  0.21826  0.40116  1.0000
  S   S31       1.0  0.44472  0.10571  0.01210  1.0000
  C   C215      1.0  0.05789  0.07986  0.15225  1.0000
  C   C216      1.0  0.14340  0.24571  0.46625  1.0000
  C   C217      1.0  0.02752  0.00250  0.03172  1.0000
  H   H160      1.0  0.16393  0.00899  0.29279  1.0000
  C   C218      1.0  0.30525  0.28124  0.23976  1.0000
  H   H161      1.0  0.38670  0.00606  0.25704  1.0000
  H   H162      1.0  0.43218  0.99923  0.08469  1.0000
  H   H163      1.0  0.20832  0.00876  0.07299  1.0000
  C   C219      1.0  0.21629  0.06258  0.06641  1.0000
  H   H164      1.0  0.10942  0.26215  0.26919  1.0000
  H   H165      1.0  0.04617  0.32450  0.08361  1.0000
  C   C220      1.0  0.22841  0.28522  0.45686  1.0000
  C   C221      1.0  0.00712  0.02608  0.08657  1.0000
  C   C222      1.0  0.08210  0.21355  0.42612  1.0000
  C   C223      1.0  0.24156  0.16188  0.43624  1.0000
  C   C224      1.0  0.00839  0.20500  0.16960  1.0000
  H   H166      1.0  0.06133  0.18593  0.42776  1.0000
  H   H167      1.0  0.34389  0.18321  0.45565  1.0000
  H   H168      1.0  0.27335  0.28900  0.22316  1.0000
  H   H169      1.0  0.11457  0.10760  0.00300  1.0000
  C   C225      1.0  0.29748  0.07646  0.48758  1.0000
  H   H170      1.0  0.08219  0.05725  0.07031  1.0000
  H   H171      1.0  0.02858  0.04209  0.23874  1.0000
  H   H172      1.0  0.11797  0.15790  0.46515  1.0000
  H   H173      1.0  0.29585  0.28484  0.43095  1.0000
  H   H174      1.0  0.48502  0.19641  0.02737  1.0000
  C   C226      1.0  0.16610  0.27585  0.44961  1.0000
  S   S32       1.0  0.10897  0.03241  0.02686  1.0000
  C   C227      1.0  0.47965  0.26097  0.17161  1.0000
  C   C228      1.0  0.26876  0.10050  0.47108  1.0000
  H   H175      1.0  0.07304  0.12145  0.31040  1.0000
  C   C229      1.0  0.44490  0.00666  0.22304  1.0000
  C   C230      1.0  0.20407  0.15369  0.44780  1.0000
  H   H176      1.0  0.18719  0.15526  0.44154  1.0000
  P   P6        1.0  0.42075  0.02053  0.21021  1.0000
  C   C231      1.0  0.09910  0.31097  0.30250  1.0000
  H   H177      1.0  0.32513  0.11715  0.46193  1.0000
  H   H178      1.0  0.39698  0.15091  0.41409  1.0000
  H   H179      1.0  0.46026  0.03697  0.17720  1.0000
  C   C232      1.0  0.20959  0.31763  0.49478  1.0000
  C   C233      1.0  0.00368  0.26334  0.00425  1.0000
  C   C234      1.0  0.38736  0.17132  0.45422  1.0000
  H   H180      1.0  0.38864  0.26522  0.45306  1.0000
  P   P7        1.0  0.07023  0.32535  0.35122  1.0000
  C   C235      1.0  0.23394  0.99743  0.00323  1.0000
  H   H181      1.0  0.10469  0.23924  0.43047  1.0000
  C   C236      1.0  0.20906  0.31883  0.46018  1.0000
  H   H182      1.0  0.49158  0.29011  0.19254  1.0000
  C   C237      1.0  0.07969  0.06309  0.04529  1.0000
  H   H183      1.0  0.21513  0.17380  0.40714  1.0000
  C   C238      1.0  0.07503  0.28400  0.32593  1.0000
  C   C239      1.0  0.99978  0.14955  0.21405  1.0000
  C   C240      1.0  0.44206  0.27382  0.43935  1.0000
  C   C241      1.0  0.15307  0.12032  0.49376  1.0000
  H   H184      1.0  0.45922  0.03462  0.24502  1.0000
  P   P8        1.0  0.02054  0.08856  0.23582  1.0000
  C   C242      1.0  0.17014  0.02111  0.24327  1.0000
  S   S33       1.0  0.49114  0.32160  0.12287  1.0000
  H   H185      1.0  0.30760  0.16763  0.45994  1.0000
  H   H186      1.0  0.32932  0.07716  0.02637  1.0000
  H   H187      1.0  0.34191  0.26570  0.46913  1.0000
  C   C243      1.0  0.27384  0.99505  0.18418  1.0000
  H   H188      1.0  0.08010  0.25181  0.30841  1.0000
  C   C244      1.0  0.23197  0.13770  0.48197  1.0000
  C   C245      1.0  0.08184  0.30548  0.32396  1.0000
  C   C246      1.0  0.10076  0.31071  0.39633  1.0000
  C   C247      1.0  0.09430  0.20092  0.48981  1.0000
  H   H189      1.0  0.02117  0.20167  0.12005  1.0000
  H   H190      1.0  0.29132  0.08601  0.43704  1.0000
  C   C248      1.0  0.00683  0.20437  0.13515  1.0000
  H   H191      1.0  0.17201  0.29188  0.45399  1.0000
  C   C249      1.0  0.43086  0.28710  0.49326  1.0000
  C   C250      1.0  0.49287  0.25623  0.00090  1.0000
  C   C251      1.0  0.10411  0.21886  0.47456  1.0000
  H   H192      1.0  0.47706  0.06468  0.02316  1.0000
  S   S34       1.0  0.30758  0.31136  0.31460  1.0000
  C   C252      1.0  0.30307  0.30897  0.46680  1.0000
  C   C253      1.0  0.99749  0.31280  0.36782  1.0000
  S   S35       1.0  0.45249  0.32238  0.06844  1.0000
  C   C254      1.0  0.33621  0.11747  0.48232  1.0000
  H   H193      1.0  0.08804  0.26132  0.48228  1.0000
  C   C255      1.0  0.12686  0.14806  0.48252  1.0000
  H   H194      1.0  0.10678  0.31690  0.47924  1.0000
  H   H195      1.0  0.16449  0.10857  0.48485  1.0000
  H   H196      1.0  0.34689  0.32346  0.25045  1.0000
  H   H197      1.0  0.07189  0.17491  0.48464  1.0000
  H   H198      1.0  0.12219  0.29976  0.26626  1.0000
  H   H199      1.0  0.28574  0.01308  0.01977  1.0000
  C   C256      1.0  0.35739  0.23646  0.48491  1.0000
  H   H200      1.0  0.07400  0.30931  0.12078  1.0000
  H   H201      1.0  0.16044  0.00901  0.23162  1.0000
  Fe  Fe17      1.0  0.38751  0.31863  0.33971  1.0000
  C   C257      1.0  0.25225  0.01068  0.00547  1.0000
  C   C258      1.0  0.26591  0.32562  0.31808  1.0000
  C   C259      1.0  0.44701  0.28386  0.46907  1.0000
  C   C260      1.0  0.48706  0.21299  0.01972  1.0000
  C   C261      1.0  0.08218  0.32309  0.39160  1.0000
  C   C262      1.0  0.34927  0.25713  0.48963  1.0000
  H   H202      1.0  0.19762  0.13276  0.48925  1.0000
  C   C263      1.0  0.38545  0.99705  0.23448  1.0000
  H   H203      1.0  0.00417  0.16570  0.22064  1.0000
  H   H204      1.0  0.18570  0.06570  0.48607  1.0000
  S   S36       1.0  0.41912  0.32557  0.31146  1.0000
  H   H205      1.0  0.41409  0.32529  0.47742  1.0000
  H   H206      1.0  0.25134  0.02712  0.99664  1.0000
  S   S37       1.0  0.33091  0.28770  0.73822  1.0000
  Fe  Fe18      1.0  0.35903  0.17871  0.66196  1.0000
  S   S38       1.0  0.37869  0.15171  0.64078  1.0000
  S   S39       1.0  0.36706  0.21305  0.64774  1.0000
  Fe  Fe19      1.0  0.32753  0.14811  0.69597  1.0000
  S   S40       1.0  0.34482  0.11883  0.67824  1.0000
  S   S41       1.0  0.29637  0.14695  0.72508  1.0000
  Fe  Fe20      1.0  0.37489  0.13672  0.69197  1.0000
  S   S42       1.0  0.40302  0.12028  0.71791  1.0000
  Fe  Fe21      1.0  0.34696  0.13629  0.62887  1.0000
  S   S43       1.0  0.33157  0.12285  0.58252  1.0000
  S   S44       1.0  0.35722  0.16481  0.71356  1.0000
  S   S45       1.0  0.32777  0.16459  0.64652  1.0000
  Fe  Fe22      1.0  0.18819  0.11381  0.65911  1.0000
  S   S46       1.0  0.15886  0.09537  0.64432  1.0000
  S   S47       1.0  0.22167  0.10229  0.64672  1.0000
  Fe  Fe23      1.0  0.16184  0.14915  0.68950  1.0000
  S   S48       1.0  0.13050  0.13336  0.67843  1.0000
  S   S49       1.0  0.16503  0.18113  0.71369  1.0000
  Fe  Fe24      1.0  0.14672  0.10289  0.69595  1.0000
  S   S50       1.0  0.13068  0.07699  0.72859  1.0000
  Fe  Fe25      1.0  0.14564  0.12742  0.62801  1.0000
  S   S51       1.0  0.12658  0.13819  0.58272  1.0000
  S   S52       1.0  0.17688  0.11943  0.71124  1.0000
  S   S53       1.0  0.17606  0.14510  0.63876  1.0000
  Fe  Fe26      1.0  0.12152  0.29069  0.66470  1.0000
  C   C264      1.0  0.31159  0.24954  0.62967  1.0000
  S   S54       1.0  0.11135  0.25723  0.65090  1.0000
  H   H207      1.0  0.29342  0.26135  0.73101  1.0000
  H   H208      1.0  0.22490  0.06772  0.87087  1.0000
  Fe  Fe27      1.0  0.46207  0.13608  0.89852  1.0000
  S   S55       1.0  0.45449  0.15139  0.94746  1.0000
  S   S56       1.0  0.43483  0.14379  0.86266  1.0000
  Fe  Fe28      1.0  0.46510  0.12026  0.97036  1.0000
  C   C265      1.0  0.31445  0.23143  0.61017  1.0000
  S   S57       1.0  0.47034  0.10422  0.92173  1.0000
  Fe  Fe29      1.0  0.14807  0.02863  0.91466  1.0000
  S   S58       1.0  0.15886  0.03601  0.96609  1.0000
  S   S59       1.0  0.15693  0.05562  0.87797  1.0000
  C   C266      1.0  0.08743  0.06105  0.98648  1.0000
  H   H209      1.0  0.41823  0.10019  0.88051  1.0000
  H   H210      1.0  0.34374  0.28237  0.52451  1.0000
  H   H211      1.0  0.00471  0.30045  0.87500  1.0000
  C   C267      1.0  0.24818  0.09095  0.75380  1.0000
  C   C268      1.0  0.26659  0.29787  0.54582  1.0000
  C   C269      1.0  0.43233  0.04806  0.86988  1.0000
  H   H212      1.0  0.09594  0.05382  0.96592  1.0000
  C   C270      1.0  0.21123  0.09736  0.55740  1.0000
  C   C271      1.0  0.27163  0.28576  0.74781  1.0000
  S   S60       1.0  0.16486  0.99680  0.91480  1.0000
  H   H213      1.0  0.01704  0.20505  0.95687  1.0000
  H   H214      1.0  0.41915  0.04467  0.94738  1.0000
  H   H215      1.0  0.44188  0.07658  0.95615  1.0000
  H   H216      1.0  0.29945  0.06962  0.53991  1.0000
  H   H217      1.0  0.32080  0.26390  0.62410  1.0000
  C   C272      1.0  0.43333  0.18472  0.76363  1.0000
  C   C273      1.0  0.39305  0.12420  0.96872  1.0000
  H   H218      1.0  0.20029  0.26120  0.52697  1.0000
  C   C274      1.0  0.13823  0.07093  0.77001  1.0000
  C   C275      1.0  0.15223  0.08414  0.78715  1.0000
  C   C276      1.0  0.15759  0.07922  0.82018  1.0000
  C   C277      1.0  0.14924  0.06088  0.83644  1.0000
  C   C278      1.0  0.13534  0.04751  0.81932  1.0000
  C   C279      1.0  0.12977  0.05261  0.78632  1.0000
  H   H219      1.0  0.15895  0.09820  0.77492  1.0000
  H   H220      1.0  0.16835  0.08967  0.83316  1.0000
  H   H221      1.0  0.12888  0.03329  0.83145  1.0000
  H   H222      1.0  0.11890  0.04227  0.77332  1.0000
  C   C280      1.0  0.15251  0.20222  0.69171  1.0000
  C   C281      1.0  0.15750  0.22348  0.69914  1.0000
  C   C282      1.0  0.14537  0.24049  0.68593  1.0000
  C   C283      1.0  0.12810  0.23634  0.66519  1.0000
  C   C284      1.0  0.12374  0.21512  0.65645  1.0000
  C   C285      1.0  0.13605  0.19810  0.66943  1.0000
  H   H223      1.0  0.17052  0.22683  0.71563  1.0000
  H   H224      1.0  0.14915  0.25677  0.69238  1.0000
  H   H225      1.0  0.11050  0.21181  0.64018  1.0000
  H   H226      1.0  0.13215  0.18175  0.66330  1.0000
  H   H227      1.0  0.44986  0.15856  0.73992  1.0000
  C   C286      1.0  0.12264  0.14953  0.51690  1.0000
  C   C287      1.0  0.13376  0.13664  0.53992  1.0000
  H   H228      1.0  0.09310  0.11956  0.95581  1.0000
  C   C288      1.0  0.19594  0.26223  0.55289  1.0000
  H   H229      1.0  0.11046  0.16049  0.52581  1.0000
  H   H230      1.0  0.15797  0.11223  0.54552  1.0000
  C   C289      1.0  0.41156  0.12646  0.75852  1.0000
  C   C290      1.0  0.40018  0.14091  0.77836  1.0000
  C   C291      1.0  0.40747  0.14562  0.81028  1.0000
  C   C292      1.0  0.42633  0.13621  0.82272  1.0000
  C   C293      1.0  0.43765  0.12157  0.80310  1.0000
  C   C294      1.0  0.43023  0.11668  0.77118  1.0000
  H   H231      1.0  0.38577  0.14844  0.76907  1.0000
  H   H232      1.0  0.39854  0.15679  0.82540  1.0000
  H   H233      1.0  0.45218  0.11416  0.81237  1.0000
  H   H234      1.0  0.43913  0.10543  0.75607  1.0000
  C   C295      1.0  0.27565  0.13570  0.70180  1.0000
  C   C296      1.0  0.28043  0.12255  0.67487  1.0000
  C   C297      1.0  0.26377  0.11244  0.65797  1.0000
  C   C298      1.0  0.24224  0.11584  0.66736  1.0000
  C   C299      1.0  0.23743  0.12961  0.69350  1.0000
  C   C300      1.0  0.25411  0.13934  0.71092  1.0000
  H   H235      1.0  0.29699  0.11976  0.66745  1.0000
  H   H236      1.0  0.26760  0.10199  0.63753  1.0000
  H   H237      1.0  0.22090  0.13233  0.70087  1.0000
  H   H238      1.0  0.25034  0.14947  0.73172  1.0000
  H   H239      1.0  0.44643  0.03829  0.86513  1.0000
  C   C301      1.0  0.36463  0.11830  0.53568  1.0000
  C   C302      1.0  0.34250  0.12024  0.54186  1.0000
  C   C303      1.0  0.43589  0.20092  0.84589  1.0000
  H   H240      1.0  0.37565  0.11825  0.55616  1.0000
  H   H241      1.0  0.34379  0.03837  0.97310  1.0000
  C   C304      1.0  0.34147  0.26689  0.71371  1.0000
  C   C305      1.0  0.34982  0.27140  0.68202  1.0000
  C   C306      1.0  0.35767  0.25474  0.66220  1.0000
  C   C307      1.0  0.35729  0.23346  0.67381  1.0000
  C   C308      1.0  0.34921  0.22892  0.70571  1.0000
  C   C309      1.0  0.34128  0.24562  0.72563  1.0000
  H   H242      1.0  0.34999  0.28771  0.67250  1.0000
  H   H243      1.0  0.36329  0.25831  0.63727  1.0000
  H   H244      1.0  0.34907  0.21259  0.71501  1.0000
  H   H245      1.0  0.33491  0.24204  0.75019  1.0000
  C   C310      1.0  0.24343  0.04074  0.85319  1.0000
  C   C311      1.0  0.11188  0.27858  0.56585  1.0000
  C   C312      1.0  0.14482  0.15078  0.82784  1.0000
  C   C313      1.0  0.14116  0.14397  0.79559  1.0000
  C   C314      1.0  0.12556  0.12839  0.78999  1.0000
  C   C315      1.0  0.11344  0.11975  0.81648  1.0000
  C   C316      1.0  0.11689  0.12664  0.84896  1.0000
  C   C317      1.0  0.13276  0.14216  0.85444  1.0000
  P   P9        1.0  0.10043  0.11664  0.88325  1.0000
  C   C318      1.0  0.08767  0.09185  0.87159  1.0000
  C   C319      1.0  0.11720  0.11107  0.91857  1.0000
  C   C320      1.0  0.17321  0.99747  0.81743  1.0000
  C   C321      1.0  0.22006  0.30047  0.51075  1.0000
  H   H246      1.0  0.19111  0.06875  0.77327  1.0000
  C   C322      1.0  0.10910  0.11334  0.95105  1.0000
  C   C323      1.0  0.13798  0.10265  0.91375  1.0000
  C   C324      1.0  0.06834  0.09241  0.85394  1.0000
  C   C325      1.0  0.05867  0.07333  0.84408  1.0000
  C   C326      1.0  0.08750  0.05290  0.86900  1.0000
  C   C327      1.0  0.09717  0.07191  0.87903  1.0000
  C   C328      1.0  0.07988  0.13602  0.89419  1.0000
  C   C329      1.0  0.08224  0.15783  0.88559  1.0000
  Fe  Fe30      1.0  0.16128  0.31632  0.68018  1.0000
  C   C330      1.0  0.21243  0.09562  0.77735  1.0000
  C   C331      1.0  0.23297  0.10372  0.77010  1.0000
  C   C332      1.0  0.06152  0.12941  0.91237  1.0000
  H   H247      1.0  0.15712  0.16265  0.83221  1.0000
  H   H248      1.0  0.15051  0.15058  0.77488  1.0000
  H   H249      1.0  0.12310  0.12268  0.76505  1.0000
  H   H250      1.0  0.10172  0.10748  0.81137  1.0000
  H   H251      1.0  0.13576  0.14760  0.87931  1.0000
  C   C333      1.0  0.27379  0.00614  0.75416  1.0000
  C   C334      1.0  0.37238  0.19047  0.79749  1.0000
  C   C335      1.0  0.31813  0.17138  0.54208  1.0000
  H   H252      1.0  0.18286  0.02112  0.85239  1.0000
  H   H253      1.0  0.14441  0.10031  0.88895  1.0000
  H   H254      1.0  0.06087  0.10757  0.84746  1.0000
  H   H255      1.0  0.09519  0.03764  0.87432  1.0000
  H   H256      1.0  0.11218  0.07084  0.89218  1.0000
  H   H257      1.0  0.09635  0.16347  0.87217  1.0000
  C   C336      1.0  0.25537  0.01881  0.75839  1.0000
  H   H258      1.0  0.20035  0.10574  0.78890  1.0000
  H   H259      1.0  0.03214  0.13910  0.93693  1.0000
  C   C337      1.0  0.24068  0.00453  0.70805  1.0000
  C   C338      1.0  0.08747  0.26712  0.73178  1.0000
  C   C339      1.0  0.08449  0.28582  0.74983  1.0000
  C   C340      1.0  0.09053  0.28635  0.78293  1.0000
  C   C341      1.0  0.09958  0.26828  0.79804  1.0000
  C   C342      1.0  0.10217  0.24917  0.78039  1.0000
  C   C343      1.0  0.09639  0.24888  0.74686  1.0000
  P   P10       1.0  0.11560  0.22651  0.79963  1.0000
  C   C344      1.0  0.14413  0.22900  0.79068  1.0000
  C   C345      1.0  0.11078  0.22679  0.84392  1.0000
  C   C346      1.0  0.12686  0.22010  0.86587  1.0000
  C   C347      1.0  0.12294  0.22022  0.90012  1.0000
  C   C348      1.0  0.10301  0.22708  0.91265  1.0000
  C   C349      1.0  0.08688  0.23360  0.89094  1.0000
  C   C350      1.0  0.09061  0.23317  0.85670  1.0000
  C   C351      1.0  0.15721  0.21064  0.78869  1.0000
  C   C352      1.0  0.17932  0.21260  0.78207  1.0000
  C   C353      1.0  0.18854  0.23287  0.77737  1.0000
  C   C354      1.0  0.17563  0.25122  0.77912  1.0000
  C   C355      1.0  0.15354  0.24933  0.78585  1.0000
  C   C356      1.0  0.10567  0.20140  0.78399  1.0000
  C   C357      1.0  0.11110  0.19526  0.75170  1.0000
  C   C358      1.0  0.10370  0.17591  0.73919  1.0000
  C   C359      1.0  0.09092  0.16234  0.75902  1.0000
  C   C360      1.0  0.08575  0.16804  0.79154  1.0000
  C   C361      1.0  0.09306  0.18751  0.80400  1.0000
  H   H260      1.0  0.08334  0.26693  0.70579  1.0000
  H   H261      1.0  0.07818  0.30014  0.73785  1.0000
  H   H262      1.0  0.08891  0.30104  0.79663  1.0000
  H   H263      1.0  0.10511  0.26956  0.82321  1.0000
  H   H264      1.0  0.09908  0.23494  0.73182  1.0000
  H   H265      1.0  0.14245  0.21488  0.85666  1.0000
  H   H266      1.0  0.13545  0.21521  0.91700  1.0000
  H   H267      1.0  0.10011  0.22748  0.93921  1.0000
  H   H268      1.0  0.07157  0.23922  0.90070  1.0000
  H   H269      1.0  0.07788  0.23810  0.84019  1.0000
  H   H270      1.0  0.15032  0.19478  0.79138  1.0000
  H   H271      1.0  0.18912  0.19831  0.77927  1.0000
  H   H272      1.0  0.21183  0.14716  0.55510  1.0000
  H   H273      1.0  0.40317  0.19166  0.68068  1.0000
  H   H274      1.0  0.14389  0.26379  0.78674  1.0000
  H   H275      1.0  0.12121  0.20546  0.73627  1.0000
  H   H276      1.0  0.10813  0.17137  0.71417  1.0000
  H   H277      1.0  0.08543  0.14721  0.74931  1.0000
  H   H278      1.0  0.07622  0.15727  0.80711  1.0000
  H   H279      1.0  0.08877  0.19162  0.82912  1.0000
  C   C362      1.0  0.21473  0.21517  0.64551  1.0000
  C   C363      1.0  0.20704  0.19616  0.65996  1.0000
  C   C364      1.0  0.21804  0.18653  0.68622  1.0000
  C   C365      1.0  0.23651  0.19615  0.69856  1.0000
  C   C366      1.0  0.24392  0.21563  0.68479  1.0000
  C   C367      1.0  0.23309  0.22493  0.65787  1.0000
  P   P11       1.0  0.26758  0.22863  0.70003  1.0000
  C   C368      1.0  0.27929  0.21369  0.73383  1.0000
  C   C369      1.0  0.28617  0.23012  0.66518  1.0000
  C   C370      1.0  0.28906  0.21197  0.64534  1.0000
  C   C371      1.0  0.30309  0.21268  0.61792  1.0000
  C   C372      1.0  0.29760  0.24893  0.65718  1.0000
  C   C373      1.0  0.29985  0.20452  0.73077  1.0000
  C   C374      1.0  0.30929  0.19440  0.75806  1.0000
  C   C375      1.0  0.29820  0.19307  0.78840  1.0000
  C   C376      1.0  0.27768  0.20210  0.79162  1.0000
  C   C377      1.0  0.26828  0.21247  0.76448  1.0000
  C   C378      1.0  0.26062  0.25417  0.71787  1.0000
  C   C379      1.0  0.23900  0.26063  0.72147  1.0000
  C   C380      1.0  0.23385  0.27949  0.73820  1.0000
  C   C381      1.0  0.25016  0.29224  0.75086  1.0000
  C   C382      1.0  0.27679  0.26659  0.73199  1.0000
  H   H280      1.0  0.20638  0.22240  0.62487  1.0000
  H   H281      1.0  0.19246  0.18892  0.65095  1.0000
  H   H282      1.0  0.21202  0.17171  0.69722  1.0000
  H   H283      1.0  0.24491  0.18830  0.71865  1.0000
  H   H284      1.0  0.23877  0.23982  0.64660  1.0000
  H   H285      1.0  0.28073  0.19713  0.65140  1.0000
  H   H286      1.0  0.30549  0.19856  0.60306  1.0000
  H   H287      1.0  0.29609  0.26307  0.67215  1.0000
  H   H288      1.0  0.30872  0.20511  0.70750  1.0000
  H   H289      1.0  0.32503  0.18720  0.75529  1.0000
  H   H290      1.0  0.30547  0.18493  0.80930  1.0000
  H   H291      1.0  0.26908  0.20111  0.81514  1.0000
  H   H292      1.0  0.25249  0.21967  0.76737  1.0000
  H   H293      1.0  0.22600  0.25122  0.71176  1.0000
  H   H294      1.0  0.21720  0.28462  0.74040  1.0000
  C   C383      1.0  0.43049  0.07157  0.97513  1.0000
  H   H295      1.0  0.99668  0.00052  0.92949  1.0000
  C   C384      1.0  0.17807  0.03892  0.70322  1.0000
  H   H296      1.0  0.43884  0.25547  0.54725  1.0000
  H   H297      1.0  0.29725  0.06385  0.90542  1.0000
  H   H298      1.0  0.02446  0.02857  0.92578  1.0000
  C   C385      1.0  0.18529  0.07153  0.53849  1.0000
  C   C386      1.0  0.39352  0.18829  0.53587  1.0000
  H   H299      1.0  0.47681  0.22226  0.88958  1.0000
  H   H300      1.0  0.38912  0.31554  0.89736  1.0000
  C   C387      1.0  0.41195  0.20059  0.54170  1.0000
  C   C388      1.0  0.42821  0.19250  0.56204  1.0000
  C   C389      1.0  0.42625  0.17203  0.57638  1.0000
  C   C390      1.0  0.40814  0.15958  0.57011  1.0000
  C   C391      1.0  0.39180  0.16771  0.55004  1.0000
  H   H301      1.0  0.16888  0.03701  0.72612  1.0000
  H   H302      1.0  0.37235  0.05922  0.94475  1.0000
  H   H303      1.0  0.28408  0.14900  0.60584  1.0000
  H   H304      1.0  0.25291  0.05032  0.83576  1.0000
  C   C392      1.0  0.15013  0.09587  0.94085  1.0000
  C   C393      1.0  0.36853  0.23490  0.54221  1.0000
  H   H305      1.0  0.18883  0.08064  0.58948  1.0000
  C   C394      1.0  0.11224  0.25447  0.51910  1.0000
  C   C395      1.0  0.17831  0.04537  0.64389  1.0000
  C   C396      1.0  0.02908  0.01182  0.92453  1.0000
  H   H306      1.0  0.34738  0.18331  0.56251  1.0000
  P   P12       1.0  0.37425  0.19747  0.50596  1.0000
  C   C397      1.0  0.16696  0.04188  0.67366  1.0000
  C   C398      1.0  0.41435  0.30142  0.92593  1.0000
  H   H307      1.0  0.44250  0.20192  0.56631  1.0000
  H   H308      1.0  0.43883  0.16567  0.59205  1.0000
  H   H309      1.0  0.40676  0.14353  0.58065  1.0000
  H   H310      1.0  0.37806  0.15779  0.54504  1.0000
  C   C399      1.0  0.26843  0.14903  0.59426  1.0000
  H   H311      1.0  0.37430  0.18947  0.77091  1.0000
  H   H312      1.0  0.37518  0.22624  0.56322  1.0000
  H   H313      1.0  0.21837  0.10566  0.57778  1.0000
  C   C400      1.0  0.31364  0.06310  0.91416  1.0000
  C   C401      1.0  0.25363  0.29180  0.60209  1.0000
  C   C402      1.0  0.03708  0.27617  0.91462  1.0000
  C   C403      1.0  0.35597  0.06086  0.93634  1.0000
  C   C404      1.0  0.35115  0.07441  0.90930  1.0000
  C   C405      1.0  0.32978  0.07528  0.89823  1.0000
  P   P13       1.0  0.37237  0.09015  0.88914  1.0000
  C   C406      1.0  0.36343  0.10077  0.84958  1.0000
  C   C407      1.0  0.38062  0.11185  0.91540  1.0000
  C   C408      1.0  0.38549  0.13213  0.90156  1.0000
  C   C409      1.0  0.39383  0.14830  0.92123  1.0000
  C   C410      1.0  0.38466  0.10800  0.94916  1.0000
  C   C411      1.0  0.34707  0.11639  0.84851  1.0000
  C   C412      1.0  0.33929  0.12385  0.81807  1.0000
  C   C413      1.0  0.34826  0.11636  0.78846  1.0000
  C   C414      1.0  0.36492  0.10128  0.78928  1.0000
  C   C415      1.0  0.37249  0.09348  0.81964  1.0000
  C   C416      1.0  0.39582  0.07351  0.88230  1.0000
  C   C417      1.0  0.39380  0.05121  0.87906  1.0000
  C   C418      1.0  0.41204  0.03853  0.87316  1.0000
  H   H314      1.0  0.25901  0.01112  0.84036  1.0000
  C   C419      1.0  0.43440  0.07028  0.87246  1.0000
  C   C420      1.0  0.41625  0.08297  0.87874  1.0000
  H   H315      1.0  0.27789  0.29108  0.63958  1.0000
  H   H316      1.0  0.37552  0.30409  0.54321  1.0000
  C   C421      1.0  0.04394  0.23884  0.77140  1.0000
  H   H317      1.0  0.32539  0.08503  0.87709  1.0000
  H   H318      1.0  0.38406  0.13524  0.87525  1.0000
  H   H319      1.0  0.39857  0.16350  0.90997  1.0000
  H   H320      1.0  0.38230  0.09235  0.96038  1.0000
  H   H321      1.0  0.34014  0.12249  0.87129  1.0000
  H   H322      1.0  0.32629  0.13544  0.81728  1.0000
  H   H323      1.0  0.34246  0.12233  0.76481  1.0000
  H   H324      1.0  0.37226  0.09590  0.76626  1.0000
  H   H325      1.0  0.38553  0.08193  0.81944  1.0000
  H   H326      1.0  0.37820  0.04355  0.88102  1.0000
  H   H327      1.0  0.45006  0.07776  0.86944  1.0000
  H   H328      1.0  0.46838  0.25358  0.85310  1.0000
  C   C422      1.0  0.41182  0.18995  0.70369  1.0000
  S   S61       1.0  0.13716  0.29883  0.71240  1.0000
  H   H329      1.0  0.28436  0.29554  0.75773  1.0000
  C   C423      1.0  0.40254  0.28143  0.61468  1.0000
  H   H330      1.0  0.32581  0.23175  0.58952  1.0000
  H   H331      1.0  0.38966  0.11467  0.49834  1.0000
  C   C424      1.0  0.06826  0.05359  0.85159  1.0000
  S   S62       1.0  0.38677  0.02384  0.98791  1.0000
  H   H332      1.0  0.16756  0.16964  0.57378  1.0000
  H   H333      1.0  0.14022  0.31883  0.56005  1.0000
  H   H334      1.0  0.08766  0.30329  0.56559  1.0000
  S   S63       1.0  0.14690  0.30607  0.63250  1.0000
  C   C425      1.0  0.21560  0.03833  0.89573  1.0000
  H   H335      1.0  0.06298  0.01869  0.91868  1.0000
  H   H336      1.0  0.26378  0.09758  0.74683  1.0000
  C   C426      1.0  0.45925  0.23888  0.85101  1.0000
  C   C427      1.0  0.43825  0.17143  0.73696  1.0000
  C   C428      1.0  0.09438  0.28965  0.55259  1.0000
  H   H337      1.0  0.23728  0.27064  0.50324  1.0000
  C   C429      1.0  0.42438  0.28503  0.56436  1.0000
  C   C430      1.0  0.40292  0.04648  0.99486  1.0000
  H   H338      1.0  0.27224  0.00474  0.91043  1.0000
  C   C431      1.0  0.27480  0.29244  0.61329  1.0000
  C   C432      1.0  0.42736  0.17389  0.70713  1.0000
  H   H339      1.0  0.11843  0.28347  0.58923  1.0000
  H   H340      1.0  0.16329  0.23688  0.60983  1.0000
  C   C433      1.0  0.29187  0.29570  0.59082  1.0000
  H   H341      1.0  0.20962  0.00705  0.91632  1.0000
  H   H342      1.0  0.44143  0.18181  0.78678  1.0000
  H   H343      1.0  0.31123  0.12061  0.51956  1.0000
  C   C434      1.0  0.41207  0.25321  0.75636  1.0000
  H   H344      1.0  0.03425  0.23115  0.91826  1.0000
  C   C435      1.0  0.13213  0.20931  0.55388  1.0000
  C   C436      1.0  0.42877  0.26291  0.56601  1.0000
  H   H345      1.0  0.17782  0.26550  0.64516  1.0000
  C   C437      1.0  0.08576  0.28322  0.52258  1.0000
  H   H346      1.0  0.02389  0.27006  0.92991  1.0000
  C   C438      1.0  0.36722  0.31843  0.53509  1.0000
  H   H347      1.0  0.08220  0.30294  0.86093  1.0000
  H   H348      1.0  0.38106  0.29810  0.74893  1.0000
  H   H349      1.0  0.20957  0.05056  0.62115  1.0000
  C   C439      1.0  0.22777  0.14780  0.56557  1.0000
  C   C440      1.0  0.21899  0.01620  0.89840  1.0000
  H   H350      1.0  0.08068  0.30866  0.92156  1.0000
  H   H351      1.0  0.34545  0.16892  0.79855  1.0000
  H   H352      1.0  0.03039  0.21037  0.85519  1.0000
  H   H353      1.0  0.06094  0.03881  0.84361  1.0000
  H   H354      1.0  0.24110  0.30080  0.67871  1.0000
  H   H355      1.0  0.13657  0.18938  0.59741  1.0000
  C   C441      1.0  0.26544  0.13755  0.56519  1.0000
  H   H356      1.0  0.36469  0.19279  0.89292  1.0000
  H   H357      1.0  0.34043  0.17031  0.85974  1.0000
  H   H358      1.0  0.27177  0.32578  0.67576  1.0000
  C   C442      1.0  0.17481  0.24833  0.59951  1.0000
  C   C443      1.0  0.45238  0.20230  0.86892  1.0000
  C   C444      1.0  0.12096  0.26124  0.54908  1.0000
  C   C445      1.0  0.36677  0.19218  0.86625  1.0000
  C   C446      1.0  0.35308  0.17957  0.84756  1.0000
  C   C447      1.0  0.18302  0.26437  0.61945  1.0000
  C   C448      1.0  0.24490  0.13630  0.55113  1.0000
  H   H359      1.0  0.17526  0.23459  0.55097  1.0000
  C   C449      1.0  0.14259  0.19361  0.57282  1.0000
  H   H360      1.0  0.30107  0.30087  0.53985  1.0000
  H   H361      1.0  0.41390  0.21622  0.52994  1.0000
  H   H362      1.0  0.05950  0.11279  0.92002  1.0000
  H   H363      1.0  0.39395  0.21338  0.86555  1.0000
  H   H364      1.0  0.39205  0.28863  0.63321  1.0000
  Fe  Fe31      1.0  0.33187  0.31960  0.71131  1.0000
  C   C450      1.0  0.19754  0.27942  0.60615  1.0000
  H   H365      1.0  0.26795  0.09190  0.55472  1.0000
  H   H366      1.0  0.04385  0.07386  0.83030  1.0000
  Fe  Fe32      1.0  0.48904  0.16152  0.94897  1.0000
  H   H367      1.0  0.40919  0.28514  0.92150  1.0000
  C   C451      1.0  0.38665  0.20262  0.81615  1.0000
  H   H368      1.0  0.22789  0.00342  0.69024  1.0000
  C   C452      1.0  0.24297  0.06998  0.74510  1.0000
  H   H369      1.0  0.13489  0.25341  0.55949  1.0000
  C   C453      1.0  0.38343  0.20378  0.85063  1.0000
  H   H370      1.0  0.24614  0.30726  0.76266  1.0000
  H   H371      1.0  0.23690  0.12012  0.77607  1.0000
  C   C454      1.0  0.16719  0.18685  0.52710  1.0000
  C   C455      1.0  0.24926  0.29488  0.56832  1.0000
  C   C456      1.0  0.05465  0.28193  0.86122  1.0000
  C   C457      1.0  0.20070  0.03906  0.70306  1.0000
  C   C458      1.0  0.16012  0.18243  0.55949  1.0000
  C   C459      1.0  0.06998  0.29491  0.87604  1.0000
  H   H372      1.0  0.16962  0.04800  0.62112  1.0000
  C   C460      1.0  0.18148  0.24712  0.56636  1.0000
  C   C461      1.0  0.20413  0.27856  0.57273  1.0000
  P   P14       1.0  0.23983  0.11985  0.51548  1.0000
  H   H373      1.0  0.17916  0.31776  0.56781  1.0000
  C   C462      1.0  0.13930  0.21412  0.52139  1.0000
  C   C463      1.0  0.35583  0.17883  0.81317  1.0000
  C   C464      1.0  0.22260  0.06150  0.75335  1.0000
  C   C465      1.0  0.06908  0.29823  0.91016  1.0000
  C   C466      1.0  0.38252  0.25251  0.79634  1.0000
  C   C467      1.0  0.04796  0.21694  0.77568  1.0000
  H   H374      1.0  0.05539  0.28018  0.83467  1.0000
  C   C468      1.0  0.23086  0.15934  0.59455  1.0000
  H   H375      1.0  0.16570  0.08840  0.93674  1.0000
  H   H376      1.0  0.04550  0.18973  0.80901  1.0000
  H   H377      1.0  0.45616  0.18857  0.88468  1.0000
  C   C469      1.0  0.03824  0.27215  0.88047  1.0000
  H   H378      1.0  0.26390  0.30120  0.51984  1.0000
  H   H379      1.0  0.11806  0.21716  0.56433  1.0000
  C   C470      1.0  0.30674  0.16721  0.51331  1.0000
  C   C471      1.0  0.04825  0.16593  0.91304  1.0000
  H   H380      1.0  0.20306  0.29214  0.62182  1.0000
  C   C472      1.0  0.03423  0.21865  0.83212  1.0000
  H   H381      1.0  0.36141  0.26301  0.57095  1.0000
  P   P15       1.0  0.21524  0.03486  0.74091  1.0000
  C   C473      1.0  0.37251  0.11616  0.50292  1.0000
  H   H382      1.0  0.41042  0.02132  0.87106  1.0000
  C   C474      1.0  0.04292  0.20682  0.80595  1.0000
  H   H383      1.0  0.24067  0.29007  0.62011  1.0000
  C   C475      1.0  0.40302  0.31877  0.91224  1.0000
  C   C476      1.0  0.09467  0.26575  0.50582  1.0000
  C   C477      1.0  0.41762  0.05340  0.97024  1.0000
  C   C478      1.0  0.26251  0.10304  0.50438  1.0000
  H   H384      1.0  0.14948  0.04215  0.67408  1.0000
  H   H385      1.0  0.06839  0.18951  0.88847  1.0000
  C   C479      1.0  0.42039  0.25029  0.59211  1.0000
  C   C480      1.0  0.31865  0.04988  0.94121  1.0000
  C   C481      1.0  0.04587  0.14432  0.92191  1.0000
  H   H386      1.0  0.20339  0.04587  0.91121  1.0000
  C   C482      1.0  0.05269  0.28879  0.92942  1.0000
  C   C483      1.0  0.47594  0.31997  0.51719  1.0000
  P   P16       1.0  0.01793  0.25595  0.86117  1.0000
  C   C484      1.0  0.19852  0.02069  0.77105  1.0000
  H   H387      1.0  0.30621  0.04033  0.95344  1.0000
  P   P17       1.0  0.40910  0.21627  0.79608  1.0000
  C   C485      1.0  0.32837  0.11945  0.51506  1.0000
  C   C486      1.0  0.03024  0.24073  0.82807  1.0000
  C   C487      1.0  0.19456  0.08287  0.56419  1.0000
  H   H388      1.0  0.03184  0.26764  0.79337  1.0000
  H   H389      1.0  0.18262  0.26694  0.77462  1.0000
  H   H390      1.0  0.39717  0.28231  0.50576  1.0000
  C   C488      1.0  0.21852  0.10096  0.52473  1.0000
  C   C489      1.0  0.33980  0.04878  0.95229  1.0000
  H   H391      1.0  0.05159  0.29188  0.95578  1.0000
  C   C490      1.0  0.06641  0.17270  0.89484  1.0000
  C   C491      1.0  0.36040  0.25561  0.54686  1.0000
  S   S64       1.0  0.11629  0.01501  0.93271  1.0000
  H   H392      1.0  0.44094  0.29164  0.95656  1.0000
  H   H393      1.0  0.05480  0.20778  0.75542  1.0000
  C   C492      1.0  0.14174  0.09768  0.97302  1.0000
  H   H394      1.0  0.18881  0.99651  0.73638  1.0000
  H   H395      1.0  0.42617  0.24586  0.74509  1.0000
  H   H396      1.0  0.20555  0.04119  0.81239  1.0000
  C   C493      1.0  0.24673  0.01854  0.85572  1.0000
  C   C494      1.0  0.44277  0.23750  0.82781  1.0000
  C   C495      1.0  0.19711  0.02718  0.80415  1.0000
  C   C496      1.0  0.20950  0.08915  0.49906  1.0000
  C   C497      1.0  0.40686  0.20332  0.73026  1.0000
  C   C498      1.0  0.23889  0.01842  0.73501  1.0000
  C   C499      1.0  0.47597  0.29286  0.56089  1.0000
  H   H397      1.0  0.42388  0.23331  0.59364  1.0000
  C   C500      1.0  0.12132  0.10661  0.97811  1.0000
  H   H398      1.0  0.37338  0.24470  0.81609  1.0000
  C   C501      1.0  0.37568  0.27258  0.78460  1.0000
  C   C502      1.0  0.29074  0.07808  0.52065  1.0000
  H   H399      1.0  0.07075  0.08393  0.95574  1.0000
  C   C503      1.0  0.40507  0.27321  0.74452  1.0000
  P   P18       1.0  0.22173  0.29922  0.55554  1.0000
  C   C504      1.0  0.35055  0.26659  0.52068  1.0000
  H   H400      1.0  0.36130  0.27995  0.79495  1.0000
  C   C505      1.0  0.01742  0.22737  0.91537  1.0000
  C   C506      1.0  0.39759  0.14435  0.95480  1.0000
  C   C507      1.0  0.48996  0.00963  0.91246  1.0000
  C   C508      1.0  0.25110  0.15974  0.60913  1.0000
  C   C509      1.0  0.19290  0.07452  0.50596  1.0000
  H   H401      1.0  0.21739  0.16744  0.60623  1.0000
  C   C510      1.0  0.15681  0.20257  0.50808  1.0000
  H   H402      1.0  0.30824  0.29687  0.59956  1.0000
  C   C511      1.0  0.41095  0.29412  0.58871  1.0000
  H   H403      1.0  0.40487  0.15660  0.96973  1.0000
  H   H404      1.0  0.25327  0.16797  0.63230  1.0000
  C   C512      1.0  0.36719  0.22526  0.51106  1.0000
  C   C513      1.0  0.28779  0.29805  0.55707  1.0000
  H   H405      1.0  0.40107  0.24971  0.63681  1.0000
  H   H406      1.0  0.39419  0.21514  0.72734  1.0000
  C   C514      1.0  0.40070  0.24261  0.78213  1.0000
  C   C515      1.0  0.38684  0.28285  0.75858  1.0000
  H   H407      1.0  0.42697  0.18611  0.84425  1.0000
  C   C516      1.0  0.41757  0.20081  0.76055  1.0000
  H   H408      1.0  0.17217  0.06051  0.54377  1.0000
  H   H409      1.0  0.31109  0.16744  0.56611  1.0000
  C   C517      1.0  0.33892  0.17990  0.53990  1.0000
  H   H410      1.0  0.43057  0.16294  0.68703  1.0000
  C   C518      1.0  0.21194  0.04374  0.67339  1.0000
  C   C519      1.0  0.20723  0.07467  0.76866  1.0000
  H   H411      1.0  0.03616  0.17741  0.92079  1.0000
  H   H412      1.0  0.43935  0.25130  0.81222  1.0000
  H   H413      1.0  0.41356  0.28112  0.72413  1.0000
  H   H414      1.0  0.40655  0.31086  0.58773  1.0000
  C   C520      1.0  0.14938  0.12233  0.52818  1.0000
  H   H415      1.0  0.04750  0.24664  0.74775  1.0000
  C   C521      1.0  0.00787  0.21226  0.93690  1.0000
  H   H416      1.0  0.27920  0.12945  0.55440  1.0000
  H   H417      1.0  0.07231  0.01416  0.98468  1.0000
  C   C522      1.0  0.05078  0.00629  0.92043  1.0000
  P   P19       1.0  0.43622  0.30109  0.53103  1.0000
  S   S65       1.0  0.09964  0.31962  0.66518  1.0000
  C   C523      1.0  0.43092  0.21844  0.82512  1.0000
  C   C524      1.0  0.01335  0.99578  0.92710  1.0000
  C   C525      1.0  0.48993  0.02901  0.89462  1.0000
  H   H418      1.0  0.18023  0.17757  0.51634  1.0000
  H   H419      1.0  0.46779  0.28128  0.57680  1.0000
  H   H420      1.0  0.25402  0.02907  0.77972  1.0000
  C   C526      1.0  0.46405  0.22129  0.87157  1.0000
  C   C527      1.0  0.40744  0.25957  0.61656  1.0000
  H   H421      1.0  0.20555  0.23434  0.77140  1.0000
  C   C528      1.0  0.20078  0.04666  0.64386  1.0000
  C   C529      1.0  0.22775  0.05060  0.87306  1.0000
  H   H422      1.0  0.25465  0.06076  0.73111  1.0000
  H   H423      1.0  0.07229  0.29193  0.51218  1.0000
  C   C530      1.0  0.03510  0.25071  0.79740  1.0000
  C   C531      1.0  0.27309  0.09102  0.52898  1.0000
  C   C532      1.0  0.43225  0.30504  0.94563  1.0000
  S   S66       1.0  0.20980  0.00822  0.98553  1.0000
  S   S67       1.0  0.19603  0.30690  0.68723  1.0000
  Fe  Fe33      1.0  0.12878  0.01974  0.98396  1.0000
  S   S68       1.0  0.31640  0.32449  0.66206  1.0000
  C   C533      1.0  0.34869  0.18380  0.50879  1.0000
  C   C534      1.0  0.18438  0.01569  0.82711  1.0000
  H   H424      1.0  0.29078  0.16032  0.51507  1.0000
  H   H425      1.0  0.22930  0.04547  0.67310  1.0000
  Fe  Fe34      1.0  0.00441  0.32233  0.97036  1.0000
  C   C535      1.0  0.49356  0.04825  0.91086  1.0000
  Fe  Fe35      1.0  0.17475  0.00355  0.96748  1.0000
  C   C536      1.0  0.07321  0.07822  0.98079  1.0000
  C   C537      1.0  0.46477  0.30469  0.53675  1.0000
  C   C538      1.0  0.23817  0.31786  0.67934  1.0000
  H   H426      1.0  0.48744  0.02919  0.86811  1.0000
  C   C539      1.0  0.23431  0.00608  0.87816  1.0000
  H   H427      1.0  0.09864  0.19584  0.51453  1.0000
  H   H428      1.0  0.15084  0.09174  0.99395  1.0000
  C   C540      1.0  0.49198  0.21790  0.98645  1.0000
  C   C541      1.0  0.99811  0.27363  0.84303  1.0000
  C   C542      1.0  0.36487  0.32265  0.50096  1.0000
  C   C543      1.0  0.18769  0.00202  0.76168  1.0000
  C   C544      1.0  0.00521  0.23755  0.89060  1.0000
  C   C545      1.0  0.21305  0.32435  0.57333  1.0000
  H   H429      1.0  0.45887  0.01736  0.98986  1.0000
  H   H430      1.0  0.28661  0.00672  0.77203  1.0000
  H   H431      1.0  0.15389  0.31188  0.50317  1.0000
  H   H432      1.0  0.30062  0.99701  0.95094  1.0000
  H   H433      1.0  0.48730  0.99472  0.89981  1.0000
  C   C546      1.0  0.21705  0.32560  0.68235  1.0000
  H   H434      1.0  0.39692  0.12085  0.99440  1.0000
  C   C547      1.0  0.49388  0.00949  0.94649  1.0000
  C   C548      1.0  0.43884  0.32600  0.95159  1.0000
  C   C549      1.0  0.49471  0.23969  0.97730  1.0000
  H   H435      1.0  0.49419  0.99438  0.96002  1.0000
  C   C550      1.0  0.99506  0.29444  0.85504  1.0000
  H   H436      1.0  0.49391  0.06327  0.89694  1.0000
  P   P20       1.0  0.12492  0.23324  0.49573  1.0000
  C   C551      1.0  0.13719  0.57618  0.10293  1.0000
  C   C552      1.0  0.47570  0.42588  0.11410  1.0000
  C   C553      1.0  0.16470  0.55430  0.12875  1.0000
  C   C554      1.0  0.45689  0.50007  0.05649  1.0000
  C   C555      1.0  0.21266  0.37891  0.44902  1.0000
  H   H437      1.0  0.04313  0.41769  0.19609  1.0000
  C   C556      1.0  0.04108  0.56218  0.99551  1.0000
  Fe  Fe36      1.0  0.20008  0.36551  0.35130  1.0000
  S   S69       1.0  0.17301  0.38413  0.37485  1.0000
  S   S70       1.0  0.23421  0.37534  0.36051  1.0000
  H   H438      1.0  0.40384  0.40762  0.07017  1.0000
  S   S71       1.0  0.14060  0.34813  0.34519  1.0000
  Fe  Fe37      1.0  0.15630  0.37888  0.32613  1.0000
  S   S72       1.0  0.13743  0.40473  0.29769  1.0000
  Fe  Fe38      1.0  0.16017  0.35185  0.39167  1.0000
  C   C557      1.0  0.40435  0.33214  0.24748  1.0000
  S   S73       1.0  0.18445  0.36247  0.30192  1.0000
  C   C558      1.0  0.02437  0.57159  0.01378  1.0000
  C   C559      1.0  0.40354  0.41902  0.01948  1.0000
  C   C560      1.0  0.08755  0.56463  0.17371  1.0000
  S   S74       1.0  0.04577  0.61029  0.07822  1.0000
  C   C561      1.0  0.13453  0.35170  0.17442  1.0000
  C   C562      1.0  0.43717  0.49374  0.04373  1.0000
  Fe  Fe39      1.0  0.46901  0.35127  0.04629  1.0000
  C   C563      1.0  0.43671  0.38881  0.00879  1.0000
  S   S75       1.0  0.47258  0.36740  0.09490  1.0000
  Fe  Fe40      1.0  0.12123  0.50043  0.08528  1.0000
  S   S76       1.0  0.13622  0.49772  0.03421  1.0000
  S   S77       1.0  0.08920  0.51740  0.09927  1.0000
  Fe  Fe41      1.0  0.15112  0.46501  0.11435  1.0000
  S   S78       1.0  0.16752  0.45973  0.06485  1.0000
  S   S79       1.0  0.16546  0.44430  0.15596  1.0000
  Fe  Fe42      1.0  0.16857  0.49543  0.05930  1.0000
  C   C564      1.0  0.49033  0.41539  0.13517  1.0000
  Fe  Fe43      1.0  0.13449  0.46209  0.04332  1.0000
  H   H439      1.0  0.05828  0.34314  0.41567  1.0000
  S   S80       1.0  0.15380  0.50098  0.11018  1.0000
  S   S81       1.0  0.11798  0.46448  0.09290  1.0000
  C   C565      1.0  0.00232  0.49554  0.05890  1.0000
  C   C566      1.0  0.44690  0.45648  0.05286  1.0000
  H   H440      1.0  0.00429  0.52639  0.11240  1.0000
  C   C567      1.0  0.13980  0.34726  0.23349  1.0000
  H   H441      1.0  0.06263  0.34298  0.28491  1.0000
  H   H442      1.0  0.21182  0.44282  0.06976  1.0000
  C   C568      1.0  0.24809  0.47369  0.01029  1.0000
  C   C569      1.0  0.26796  0.33136  0.44093  1.0000
  Fe  Fe44      1.0  0.01095  0.62336  0.07718  1.0000
  P   P21       1.0  0.27396  0.36727  0.48035  1.0000
  H   H443      1.0  0.07418  0.33924  0.47133  1.0000
  C   C570      1.0  0.42747  0.39103  0.04036  1.0000
  C   C571      1.0  0.05885  0.41956  0.18441  1.0000
  H   H444      1.0  0.43281  0.38094  0.06066  1.0000
  S   S82       1.0  0.18849  0.33383  0.37046  1.0000
  C   C572      1.0  0.05652  0.58359  0.08076  1.0000
  C   C573      1.0  0.07783  0.57982  0.06966  1.0000
  C   C574      1.0  0.08771  0.55949  0.07373  1.0000
  C   C575      1.0  0.07677  0.54277  0.09018  1.0000
  C   C576      1.0  0.05538  0.54645  0.10097  1.0000
  C   C577      1.0  0.04516  0.56652  0.09573  1.0000
  H   H445      1.0  0.08681  0.59281  0.05802  1.0000
  H   H446      1.0  0.10397  0.55686  0.06477  1.0000
  H   H447      1.0  0.04681  0.53385  0.11423  1.0000
  H   H448      1.0  0.02886  0.56910  0.10465  1.0000
  C   C578      1.0  0.06841  0.41597  0.03573  1.0000
  C   C579      1.0  0.13688  0.36314  0.49143  1.0000
  C   C580      1.0  0.31611  0.39276  0.41144  1.0000
  C   C581      1.0  0.24941  0.33958  0.32839  1.0000
  H   H449      1.0  0.04643  0.59934  0.15772  1.0000
  C   C582      1.0  0.14502  0.41509  0.25772  1.0000
  C   C583      1.0  0.16420  0.40897  0.24179  1.0000
  C   C584      1.0  0.16999  0.41797  0.21064  1.0000
  C   C585      1.0  0.15668  0.43311  0.19476  1.0000
  C   C586      1.0  0.13734  0.43904  0.21040  1.0000
  C   C587      1.0  0.13155  0.43008  0.24167  1.0000
  H   H450      1.0  0.17478  0.39755  0.25368  1.0000
  H   H451      1.0  0.18503  0.41329  0.19889  1.0000
  H   H452      1.0  0.12706  0.45082  0.19875  1.0000
  H   H453      1.0  0.11670  0.43498  0.25371  1.0000
  H   H454      1.0  0.02739  0.46096  0.00672  1.0000
  H   H455      1.0  0.14732  0.55389  0.23748  1.0000
  C   C588      1.0  0.07056  0.40147  0.17460  1.0000
  C   C589      1.0  0.02483  0.52725  0.00451  1.0000
  C   C590      1.0  0.02620  0.33288  0.34036  1.0000
  H   H456      1.0  0.18294  0.37971  0.47725  1.0000
  H   H457      1.0  0.17678  0.40782  0.10956  1.0000
  H   H458      1.0  0.18958  0.54244  0.09584  1.0000
  C   C591      1.0  0.35545  0.34185  0.49026  1.0000
  H   H459      1.0  0.44803  0.54837  0.99862  1.0000
  H   H460      1.0  0.16817  0.40784  0.04963  1.0000
  C   C592      1.0  0.11883  0.36754  0.18024  1.0000
  C   C593      1.0  0.29143  0.34468  0.35145  1.0000
  C   C594      1.0  0.27504  0.35894  0.36111  1.0000
  C   C595      1.0  0.25407  0.35653  0.34941  1.0000
  H   H461      1.0  0.41702  0.46706  0.03157  1.0000
  C   C596      1.0  0.13673  0.50181  0.22056  1.0000
  C   C597      1.0  0.03390  0.47870  0.08322  1.0000
  H   H462      1.0  0.27865  0.37205  0.37730  1.0000
  H   H463      1.0  0.10529  0.38358  0.07213  1.0000
  H   H464      1.0  0.42582  0.50567  0.03486  1.0000
  H   H465      1.0  0.02436  0.58875  0.01778  1.0000
  H   H466      1.0  0.12028  0.52664  0.14977  1.0000
  H   H467      1.0  0.23893  0.53442  0.02278  1.0000
  H   H468      1.0  0.31756  0.44928  0.03868  1.0000
  H   H469      1.0  0.46093  0.51696  0.05724  1.0000
  C   C598      1.0  0.02419  0.45859  0.08110  1.0000
  H   H470      1.0  0.47461  0.44147  0.00856  1.0000
  H   H471      1.0  0.14069  0.58096  0.05011  1.0000
  C   C599      1.0  0.08621  0.36244  0.12733  1.0000
  C   C600      1.0  0.44623  0.40842  0.14450  1.0000
  H   H472      1.0  0.37327  0.38088  0.01615  1.0000
  C   C601      1.0  0.17776  0.61084  0.20603  1.0000
  C   C602      1.0  0.17505  0.55200  0.09799  1.0000
  C   C603      1.0  0.12090  0.38831  0.08089  1.0000
  S   S83       1.0  0.19892  0.51347  0.04082  1.0000
  P   P22       1.0  0.10548  0.38036  0.14556  1.0000
  C   C604      1.0  0.08010  0.60732  0.15476  1.0000
  C   C605      1.0  0.06027  0.47136  0.00554  1.0000
  H   H473      1.0  0.10278  0.38615  0.21843  1.0000
  H   H474      1.0  0.12001  0.59238  0.23086  1.0000
  C   C606      1.0  0.14660  0.61271  0.24268  1.0000
  C   C607      1.0  0.14338  0.51977  0.23801  1.0000
  S   S84       1.0  0.35999  0.34105  0.35210  1.0000
  P   P23       1.0  0.13258  0.56908  0.17157  1.0000
  H   H475      1.0  0.24802  0.38347  0.01047  1.0000
  C   C608      1.0  0.46657  0.46265  0.06661  1.0000
  C   C609      1.0  0.30587  0.37888  0.43413  1.0000
  C   C610      1.0  0.22114  0.40527  0.01138  1.0000
  H   H476      1.0  0.17549  0.63127  0.24854  1.0000
  H   H477      1.0  0.15701  0.32937  0.19643  1.0000
  H   H478      1.0  0.12246  0.58541  0.10401  1.0000
  H   H479      1.0  0.33045  0.38742  0.39823  1.0000
  H   H480      1.0  0.12332  0.49050  0.17515  1.0000
  C   C611      1.0  0.12827  0.50440  0.18889  1.0000
  H   H481      1.0  0.09269  0.43726  0.05364  1.0000
  C   C612      1.0  0.28925  0.41997  0.42277  1.0000
  H   H482      1.0  0.30763  0.34678  0.36033  1.0000
  H   H483      1.0  0.21471  0.47018  0.02621  1.0000
  H   H484      1.0  0.22609  0.38400  0.21956  1.0000
  H   H485      1.0  0.31246  0.36298  0.43782  1.0000
  C   C613      1.0  0.47148  0.48465  0.06799  1.0000
  Fe  Fe45      1.0  0.16999  0.33235  0.32371  1.0000
  C   C614      1.0  0.21101  0.42195  0.02827  1.0000
  H   H486      1.0  0.17419  0.55918  0.04573  1.0000
  H   H487      1.0  0.46171  0.33127  0.20733  1.0000
  H   H488      1.0  0.26473  0.39827  0.06033  1.0000
  C   C615      1.0  0.10119  0.59981  0.15810  1.0000
  C   C616      1.0  0.13635  0.39514  0.05753  1.0000
  H   H489      1.0  0.34269  0.43479  0.08052  1.0000
  C   C617      1.0  0.15652  0.40201  0.06778  1.0000
  C   C618      1.0  0.45351  0.42241  0.11930  1.0000
  C   C619      1.0  0.06737  0.44007  0.17895  1.0000
  S   S85       1.0  0.38249  0.43738  0.02728  1.0000
  C   C620      1.0  0.43220  0.47196  0.04193  1.0000
  H   H490      1.0  0.49448  0.39289  0.17558  1.0000
  C   C621      1.0  0.28722  0.38540  0.45131  1.0000
  H   H491      1.0  0.32835  0.41947  0.13361  1.0000
  H   H492      1.0  0.26683  0.47658  0.08602  1.0000
  C   C622      1.0  0.22777  0.48124  0.02148  1.0000
  S   S86       1.0  0.43004  0.33753  0.15424  1.0000
  C   C623      1.0  0.14489  0.34156  0.20096  1.0000
  H   H493      1.0  0.17150  0.54648  0.15036  1.0000
  C   C624      1.0  0.48298  0.40147  0.16037  1.0000
  H   H494      1.0  0.44839  0.61459  0.00580  1.0000
  H   H495      1.0  0.24466  0.41880  0.22552  1.0000
  C   C625      1.0  0.14752  0.57370  0.07215  1.0000
  H   H496      1.0  0.06220  0.46975  0.03204  1.0000
  S   S87       1.0  0.35513  0.34935  0.44778  1.0000
  H   H497      1.0  0.15003  0.51770  0.26251  1.0000
  H   H498      1.0  0.19387  0.61608  0.19914  1.0000
  H   H499      1.0  0.05000  0.48015  0.09307  1.0000
  H   H500      1.0  0.07710  0.62363  0.14630  1.0000
  C   C626      1.0  0.14598  0.39500  0.12493  1.0000
  H   H501      1.0  0.06912  0.38796  0.10165  1.0000
  C   C627      1.0  0.23494  0.37607  0.45001  1.0000
  C   C628      1.0  0.46093  0.39787  0.16492  1.0000
  C   C629      1.0  0.08134  0.33100  0.45042  1.0000
  H   H502      1.0  0.48665  0.49008  0.07739  1.0000
  C   C630      1.0  0.27907  0.40615  0.44572  1.0000
  H   H503      1.0  0.21527  0.51576  0.12227  1.0000
  H   H504      1.0  0.42915  0.40529  0.14772  1.0000
  C   C631      1.0  0.14570  0.34314  0.48365  1.0000
  H   H505      1.0  0.05841  0.41722  0.05779  1.0000
  S   S88       1.0  0.99770  0.63015  0.02644  1.0000
  C   C632      1.0  0.30775  0.41327  0.40561  1.0000
  C   C633      1.0  0.24138  0.51741  0.01935  1.0000
  C   C634      1.0  0.41098  0.40610  0.04568  1.0000
  H   H506      1.0  0.26475  0.41158  0.45879  1.0000
  C   C635      1.0  0.07497  0.35159  0.33280  1.0000
  C   C636      1.0  0.06976  0.35549  0.29946  1.0000
  C   C637      1.0  0.07413  0.37542  0.28450  1.0000
  C   C638      1.0  0.08409  0.39146  0.30251  1.0000
  C   C639      1.0  0.08958  0.38762  0.33550  1.0000
  C   C640      1.0  0.08505  0.36779  0.35067  1.0000
  H   H507      1.0  0.06372  0.38567  0.17882  1.0000
  H   H508      1.0  0.08989  0.54797  0.18050  1.0000
  C   C641      1.0  0.12443  0.36317  0.23950  1.0000
  C   C642      1.0  0.13338  0.54299  0.19175  1.0000
  H   H509      1.0  0.13559  0.37541  0.47232  1.0000
  H   H510      1.0  0.19646  0.48345  0.14488  1.0000
  C   C643      1.0  0.16637  0.56151  0.06965  1.0000
  H   H511      1.0  0.21236  0.44774  0.13778  1.0000
  C   C644      1.0  0.08783  0.42740  0.03341  1.0000
  C   C645      1.0  0.05584  0.35720  0.09095  1.0000
  C   C646      1.0  0.28698  0.32826  0.32936  1.0000
  H   H512      1.0  0.25051  0.51204  0.09325  1.0000
  C   C647      1.0  0.08764  0.44249  0.16388  1.0000
  H   H513      1.0  0.25041  0.45669  0.00666  1.0000
  H   H514      1.0  0.07029  0.37830  0.25874  1.0000
  H   H515      1.0  0.08825  0.40668  0.29069  1.0000
  H   H516      1.0  0.09809  0.39984  0.34894  1.0000
  H   H517      1.0  0.09008  0.36508  0.37594  1.0000
  H   H518      1.0  0.23325  0.33767  0.31923  1.0000
  C   C648      1.0  0.49301  0.42487  0.04642  1.0000
  H   H519      1.0  0.12092  0.36789  0.26475  1.0000
  H   H520      1.0  0.11523  0.42670  0.14288  1.0000
  C   C649      1.0  0.14175  0.54030  0.22369  1.0000
  C   C650      1.0  0.09091  0.40379  0.15926  1.0000
  C   C651      1.0  0.14559  0.56629  0.13145  1.0000
  C   C652      1.0  0.27954  0.34022  0.46702  1.0000
  H   H521      1.0  0.13855  0.61938  0.26421  1.0000
  H   H522      1.0  0.17566  0.58928  0.16548  1.0000
  C   C653      1.0  0.07251  0.33329  0.41886  1.0000
  S   S89       1.0  0.03740  0.38891  0.01439  1.0000
  C   C654      1.0  0.26174  0.50990  0.00820  1.0000
  H   H523      1.0  0.33683  0.33698  0.19464  1.0000
  H   H524      1.0  0.05831  0.45412  0.18643  1.0000
  C   C655      1.0  0.00422  0.32900  0.34573  1.0000
  H   H525      1.0  0.45525  0.38651  0.18372  1.0000
  H   H526      1.0  0.09427  0.45839  0.15975  1.0000
  C   C656      1.0  0.10511  0.57833  0.16727  1.0000
  H   H527      1.0  0.39918  0.36166  0.47452  1.0000
  C   C657      1.0  0.24034  0.39660  0.02330  1.0000
  C   C658      1.0  0.16741  0.61941  0.23386  1.0000
  P   P24       1.0  0.48595  0.44256  0.08011  1.0000
  H   H528      1.0  0.34022  0.40014  0.99937  1.0000
  H   H529      1.0  0.24424  0.37704  0.42714  1.0000
  H   H530      1.0  0.02531  0.51010  0.00086  1.0000
  H   H531      1.0  0.13833  0.48588  0.23145  1.0000
  H   H532      1.0  0.11446  0.61066  0.15286  1.0000
  H   H533      1.0  0.28922  0.41851  0.14481  1.0000
  H   H534      1.0  0.13877  0.34721  0.14932  1.0000
  C   C659      1.0  0.16136  0.40190  0.10145  1.0000
  H   H535      1.0  0.46159  0.64650  0.03536  1.0000
  H   H536      1.0  0.44307  0.43968  0.04988  1.0000
  H   H537      1.0  0.44165  0.43004  0.10392  1.0000
  S   S90       1.0  0.15430  0.33634  0.44291  1.0000
  H   H538      1.0  0.20505  0.38186  0.42545  1.0000
  C   C660      1.0  0.13614  0.59743  0.22371  1.0000
  H   H539      1.0  0.03123  0.51235  0.07275  1.0000
  C   C661      1.0  0.14644  0.58874  0.19572  1.0000
  H   H540      1.0  0.14981  0.39566  0.15099  1.0000
  H   H541      1.0  0.19617  0.42881  0.01905  1.0000
  C   C662      1.0  0.11409  0.37342  0.21305  1.0000
  C   C663      1.0  0.00802  0.55887  0.02786  1.0000
  C   C664      1.0  0.12561  0.38812  0.11484  1.0000
  H   H542      1.0  0.05299  0.56160  0.17513  1.0000
  C   C665      1.0  0.09945  0.42443  0.15420  1.0000
  C   C666      1.0  0.12663  0.52489  0.17453  1.0000
  H   H543      1.0  0.31556  0.42389  0.38765  1.0000
  C   C667      1.0  0.06275  0.59362  0.16129  1.0000
  C   C668      1.0  0.22754  0.38502  0.16610  1.0000
  C   C669      1.0  0.23138  0.39296  0.19766  1.0000
  C   C670      1.0  0.24187  0.41259  0.20102  1.0000
  C   C671      1.0  0.24843  0.42436  0.17285  1.0000
  C   C672      1.0  0.24457  0.41654  0.14103  1.0000
  C   C673      1.0  0.23411  0.39673  0.13785  1.0000
  P   P25       1.0  0.25187  0.43273  0.10501  1.0000
  C   C674      1.0  0.24105  0.45930  0.11175  1.0000
  C   C675      1.0  0.28073  0.43334  0.09780  1.0000
  C   C676      1.0  0.28904  0.44164  0.06766  1.0000
  C   C677      1.0  0.31127  0.44229  0.06164  1.0000
  C   C678      1.0  0.32543  0.43424  0.08534  1.0000
  C   C679      1.0  0.31732  0.42566  0.11522  1.0000
  C   C680      1.0  0.29506  0.42522  0.12151  1.0000
  C   C681      1.0  0.22115  0.46163  0.12847  1.0000
  C   C682      1.0  0.21200  0.48193  0.13250  1.0000
  C   C683      1.0  0.22263  0.50010  0.11997  1.0000
  C   C684      1.0  0.24251  0.49798  0.10365  1.0000
  C   C685      1.0  0.25171  0.47769  0.09947  1.0000
  C   C686      1.0  0.23965  0.42186  0.06858  1.0000
  C   C687      1.0  0.24970  0.40497  0.05163  1.0000
  C   C688      1.0  0.20030  0.37781  0.47819  1.0000
  H   H544      1.0  0.03273  0.44431  0.08925  1.0000
  H   H545      1.0  0.48749  0.47694  0.99965  1.0000
  C   C689      1.0  0.22004  0.43000  0.05702  1.0000
  H   H546      1.0  0.21923  0.36988  0.16360  1.0000
  C   C690      1.0  0.16734  0.59557  0.18698  1.0000
  C   C691      1.0  0.06647  0.57233  0.17092  1.0000
  H   H547      1.0  0.25621  0.43974  0.17586  1.0000
  H   H548      1.0  0.23066  0.39040  0.11372  1.0000
  H   H549      1.0  0.27836  0.44792  0.04889  1.0000
  C   C692      1.0  0.22426  0.50315  0.02627  1.0000
  C   C693      1.0  0.24517  0.37189  0.48013  1.0000
  C   C694      1.0  0.07022  0.37085  0.10650  1.0000
  H   H550      1.0  0.28267  0.43581  0.41805  1.0000
  H   H551      1.0  0.04381  0.36378  0.07443  1.0000
  C   C695      1.0  0.06186  0.40295  0.00974  1.0000
  C   C696      1.0  0.42782  0.33439  0.19808  1.0000
  C   C697      1.0  0.26530  0.48794  0.00367  1.0000
  C   C698      1.0  0.02315  0.49702  0.07177  1.0000
  Fe  Fe46      1.0  0.45877  0.33726  0.11793  1.0000
  S   S91       1.0  0.12549  0.44004  0.00163  1.0000
  C   C699      1.0  0.00360  0.45686  0.06791  1.0000
  H   H552      1.0  0.13248  0.39563  0.03143  1.0000
  C   C700      1.0  0.00836  0.53653  0.02387  1.0000
  C   C701      1.0  0.29742  0.32901  0.47939  1.0000
  S   S92       1.0  0.99964  0.65591  0.09576  1.0000
  C   C702      1.0  0.48533  0.42838  0.01420  1.0000
  H   H553      1.0  0.09949  0.33309  0.14828  1.0000
  H   H554      1.0  0.25490  0.34005  0.42943  1.0000
  C   C703      1.0  0.08742  0.34013  0.13247  1.0000
  C   C704      1.0  0.40717  0.33474  0.21291  1.0000
  C   C705      1.0  0.10084  0.42602  0.00494  1.0000
  H   H555      1.0  0.10563  0.32706  0.30175  1.0000
  H   H556      1.0  0.30006  0.38820  0.99995  1.0000
  H   H557      1.0  0.14801  0.33955  0.25405  1.0000
  H   H558      1.0  0.38845  0.33286  0.25863  1.0000
  Fe  Fe47      1.0  0.36144  0.32722  0.40420  1.0000
  H   H559      1.0  0.03087  0.34570  0.32351  1.0000
  H   H560      1.0  0.45678  0.32696  0.26851  1.0000
  H   H561      1.0  0.20110  0.33223  0.44803  1.0000
  H   H562      1.0  0.39325  0.33719  0.19755  1.0000
  H   H563      1.0  0.49325  0.46870  0.13797  1.0000
  C   C706      1.0  0.44571  0.33146  0.21833  1.0000
  H   H564      1.0  0.99621  0.44121  0.06579  1.0000
  C   C707      1.0  0.45366  0.64847  0.01180  1.0000
  H   H565      1.0  0.27469  0.52113  0.00319  1.0000
  S   S93       1.0  0.45696  0.36952  0.00133  1.0000
  C   C708      1.0  0.44286  0.32901  0.25301  1.0000
  C   C709      1.0  0.42213  0.32912  0.26775  1.0000
  C   C710      1.0  0.05720  0.33504  0.09608  1.0000
  H   H566      1.0  0.09326  0.48084  0.99711  1.0000
  H   H567      1.0  0.48778  0.56856  0.04013  1.0000
  H   H568      1.0  0.99538  0.56658  0.04217  1.0000
  H   H569      1.0  0.29560  0.42779  0.99635  1.0000
  C   C711      1.0  0.07292  0.32652  0.11694  1.0000
  C   C712      1.0  0.44635  0.63051  0.99508  1.0000
  Fe  Fe48      1.0  0.34728  0.34068  0.64688  1.0000
  H   H570      1.0  0.22811  0.37914  0.68089  1.0000
  C   C713      1.0  0.28751  0.41755  0.97905  1.0000
  Fe  Fe49      1.0  0.34957  0.36510  0.71336  1.0000
  C   C714      1.0  0.34862  0.50788  0.78101  1.0000
  S   S94       1.0  0.37012  0.38777  0.74343  1.0000
  C   C715      1.0  0.35703  0.51670  0.80976  1.0000
  C   C716      1.0  0.99998  0.42684  0.98007  1.0000
  C   C717      1.0  0.44167  0.41729  0.87290  1.0000
  H   H571      1.0  0.00847  0.41538  0.83511  1.0000
  S   S95       1.0  0.33647  0.37357  0.66292  1.0000
  C   C718      1.0  0.38174  0.37141  0.96652  1.0000
  S   S96       1.0  0.14317  0.34751  0.68160  1.0000
  H   H572      1.0  0.45903  0.52209  0.90812  1.0000
  C   C719      1.0  0.19100  0.32899  0.57642  1.0000
  C   C720      1.0  0.18365  0.44193  0.95281  1.0000
  C   C721      1.0  0.24599  0.40955  0.86394  1.0000
  H   H573      1.0  0.35291  0.34150  0.89339  1.0000
  H   H574      1.0  0.21367  0.41980  0.85161  1.0000
  C   C722      1.0  0.29032  0.41574  0.75807  1.0000
  S   S97       1.0  0.47173  0.58285  0.96644  1.0000
  C   C723      1.0  0.34985  0.39186  0.98093  1.0000
  Fe  Fe50      1.0  0.35058  0.45528  0.91522  1.0000
  S   S98       1.0  0.33752  0.44680  0.96566  1.0000
  S   S99       1.0  0.33810  0.43124  0.87766  1.0000
  Fe  Fe51      1.0  0.37037  0.49699  0.94171  1.0000
  H   H575      1.0  0.24004  0.36853  0.53324  1.0000
  S   S100      1.0  0.39056  0.52580  0.92168  1.0000
  H   H576      1.0  0.33398  0.32852  0.84415  1.0000
  C   C724      1.0  0.46567  0.51158  0.92705  1.0000
  Fe  Fe52      1.0  0.32597  0.48072  0.97053  1.0000
  C   C725      1.0  0.35926  0.33276  0.55885  1.0000
  S   S101      1.0  0.38344  0.46339  0.93446  1.0000
  S   S102      1.0  0.33797  0.48913  0.91875  1.0000
  H   H577      1.0  0.30233  0.40508  0.71077  1.0000
  Fe  Fe53      1.0  0.02169  0.36863  0.97531  1.0000
  C   C726      1.0  0.22804  0.33908  0.58532  1.0000
  H   H578      1.0  0.28080  0.52921  0.66704  1.0000
  C   C727      1.0  0.34727  0.35615  0.51401  1.0000
  Fe  Fe54      1.0  0.11750  0.32926  0.71108  1.0000
  C   C728      1.0  0.26395  0.39767  0.85300  1.0000
  C   C729      1.0  0.28111  0.48663  0.85555  1.0000
  H   H579      1.0  0.28897  0.50080  0.84528  1.0000
  C   C730      1.0  0.08358  0.34743  0.82063  1.0000
  C   C731      1.0  0.23094  0.36201  0.68054  1.0000
  C   C732      1.0  0.25863  0.48552  0.85735  1.0000
  C   C733      1.0  0.35882  0.33873  0.80972  1.0000
  H   H580      1.0  0.41883  0.37296  0.57428  1.0000
  H   H581      1.0  0.27667  0.37615  0.81620  1.0000
  H   H582      1.0  0.45276  0.43015  0.86644  1.0000
  H   H583      1.0  0.25801  0.38115  0.91742  1.0000
  H   H584      1.0  0.10436  0.41173  0.95685  1.0000
  C   C734      1.0  0.21036  0.37422  0.50849  1.0000
  C   C735      1.0  0.44930  0.56705  0.95320  1.0000
  C   C736      1.0  0.44077  0.55101  0.97472  1.0000
  C   C737      1.0  0.42295  0.53828  0.96566  1.0000
  C   C738      1.0  0.41326  0.54132  0.93480  1.0000
  C   C739      1.0  0.42185  0.55731  0.91327  1.0000
  C   C740      1.0  0.43967  0.57002  0.92230  1.0000
  H   H585      1.0  0.05520  0.47452  0.91003  1.0000
  H   H586      1.0  0.32670  0.43589  0.70231  1.0000
  H   H587      1.0  0.41463  0.55992  0.88933  1.0000
  H   H588      1.0  0.44592  0.58217  0.90533  1.0000
  H   H589      1.0  0.39097  0.40974  0.90330  1.0000
  H   H590      1.0  0.09916  0.35046  0.83120  1.0000
  C   C741      1.0  0.29134  0.51883  0.68129  1.0000
  H   H591      1.0  0.43676  0.49275  0.93236  1.0000
  C   C742      1.0  0.34886  0.35149  0.54819  1.0000
  C   C743      1.0  0.44787  0.39593  0.86873  1.0000
  C   C744      1.0  0.43357  0.37933  0.87712  1.0000
  C   C745      1.0  0.12944  0.36717  0.52403  1.0000
  C   C746      1.0  0.27945  0.38226  0.95854  1.0000
  C   C747      1.0  0.42681  0.34185  0.55495  1.0000
  H   H592      1.0  0.12262  0.38267  0.52984  1.0000
  C   C748      1.0  0.09432  0.41295  0.97890  1.0000
  H   H593      1.0  0.41366  0.45242  0.67536  1.0000
  H   H594      1.0  0.17291  0.41121  0.93617  1.0000
  H   H595      1.0  0.02603  0.50495  0.92673  1.0000
  S   S103      1.0  0.02033  0.34626  0.85180  1.0000
  H   H596      1.0  0.43862  0.36287  0.87368  1.0000
  C   C749      1.0  0.24855  0.46730  0.87099  1.0000
  P   P26       1.0  0.39466  0.36254  0.90153  1.0000
  H   H597      1.0  0.43280  0.35950  0.94320  1.0000
  H   H598      1.0  0.01499  0.41885  0.97415  1.0000
  C   C750      1.0  0.13070  0.35129  0.54914  1.0000
  C   C751      1.0  0.36159  0.39849  0.78206  1.0000
  C   C752      1.0  0.34065  0.39545  0.79444  1.0000
  C   C753      1.0  0.33404  0.40516  0.82419  1.0000
  C   C754      1.0  0.34821  0.41807  0.84194  1.0000
  C   C755      1.0  0.36933  0.42076  0.83002  1.0000
  C   C756      1.0  0.37595  0.41104  0.80017  1.0000
  H   H599      1.0  0.32940  0.38596  0.78076  1.0000
  H   H600      1.0  0.31766  0.40302  0.83312  1.0000
  H   H601      1.0  0.38038  0.43074  0.84329  1.0000
  H   H602      1.0  0.39218  0.41353  0.79080  1.0000
  C   C757      1.0  0.37880  0.34877  0.80591  1.0000
  C   C758      1.0  0.26642  0.39149  0.93416  1.0000
  H   H603      1.0  0.05400  0.57210  0.98548  1.0000
  C   C759      1.0  0.34433  0.48579  0.77970  1.0000
  C   C760      1.0  0.20079  0.45638  0.95371  1.0000
  C   C761      1.0  0.48645  0.51516  0.93861  1.0000
  H   H604      1.0  0.43472  0.33668  0.57743  1.0000
  C   C762      1.0  0.04462  0.34452  0.82776  1.0000
  Fe  Fe55      1.0  0.36902  0.45727  0.98516  1.0000
  C   C763      1.0  0.30167  0.39347  0.56197  1.0000
  S   S104      1.0  0.36344  0.33383  0.69555  1.0000
  H   H605      1.0  0.27899  0.39820  0.86622  1.0000
  H   H606      1.0  0.24901  0.49883  0.84829  1.0000
  C   C764      1.0  0.20568  0.41769  0.92019  1.0000
  C   C765      1.0  0.30469  0.50634  0.73429  1.0000
  C   C766      1.0  0.36852  0.38104  0.99040  1.0000
  C   C767      1.0  0.03849  0.46766  0.95650  1.0000
  C   C768      1.0  0.05632  0.47398  0.93679  1.0000
  H   H607      1.0  0.30998  0.40811  0.56808  1.0000
  H   H608      1.0  0.32823  0.47909  0.67060  1.0000
  C   C769      1.0  0.28402  0.37127  0.52160  1.0000
  H   H609      1.0  0.36184  0.47108  0.85636  1.0000
  C   C770      1.0  0.43508  0.65343  0.94953  1.0000
  H   H610      1.0  0.40092  0.38549  0.52291  1.0000
  C   C771      1.0  0.45307  0.49511  0.94087  1.0000
  H   H611      1.0  0.07004  0.39118  0.96133  1.0000
  H   H612      1.0  0.36136  0.43483  0.74065  1.0000
  H   H613      1.0  0.41669  0.52613  0.98257  1.0000
  P   P27       1.0  0.24815  0.42627  0.89988  1.0000
  C   C772      1.0  0.22729  0.40983  0.84483  1.0000
  C   C773      1.0  0.34418  0.39281  0.94756  1.0000
  C   C774      1.0  0.22265  0.43256  0.91975  1.0000
  H   H614      1.0  0.38589  0.35092  0.78136  1.0000
  H   H615      1.0  0.36394  0.49834  0.69698  1.0000
  C   C775      1.0  0.31829  0.49070  0.68347  1.0000
  H   H616      1.0  0.27195  0.34109  0.54064  1.0000
  S   S105      1.0  0.35731  0.49096  0.99384  1.0000
  C   C776      1.0  0.49102  0.41444  0.98869  1.0000
  H   H617      1.0  0.34279  0.36274  0.56622  1.0000
  Fe  Fe56      1.0  0.01306  0.34978  0.90745  1.0000
  S   S106      1.0  0.27399  0.37201  0.67515  1.0000
  H   H618      1.0  0.21167  0.39766  0.80160  1.0000
  H   H619      1.0  0.23112  0.46656  0.87173  1.0000
  C   C777      1.0  0.28716  0.35894  0.57880  1.0000
  H   H620      1.0  0.33006  0.40174  0.93992  1.0000
  H   H621      1.0  0.29803  0.40249  0.51090  1.0000
  C   C778      1.0  0.00130  0.48164  0.91561  1.0000
  H   H622      1.0  0.35333  0.38523  0.89771  1.0000
  C   C779      1.0  0.46117  0.48234  0.96657  1.0000
  H   H623      1.0  0.40717  0.42672  0.96752  1.0000
  C   C780      1.0  0.28347  0.45133  0.88109  1.0000
  C   C781      1.0  0.41296  0.38401  0.88995  1.0000
  C   C782      1.0  0.34949  0.33629  0.84128  1.0000
  C   C783      1.0  0.38026  0.35406  0.86539  1.0000
  C   C784      1.0  0.01087  0.50207  0.91481  1.0000
  C   C785      1.0  0.31843  0.45064  0.74918  1.0000
  C   C786      1.0  0.22032  0.45160  0.93767  1.0000
  H   H624      1.0  0.24300  0.37572  0.78380  1.0000
  C   C787      1.0  0.36166  0.50348  0.83702  1.0000
  C   C788      1.0  0.01738  0.41833  0.85745  1.0000
  C   C789      1.0  0.03491  0.40524  0.86528  1.0000
  C   C790      1.0  0.04621  0.40867  0.89433  1.0000
  C   C791      1.0  0.03992  0.42509  0.91566  1.0000
  C   C792      1.0  0.02242  0.43856  0.90789  1.0000
  C   C793      1.0  0.39863  0.45651  0.68774  1.0000
  S   S107      1.0  0.31902  0.35016  0.73296  1.0000
  H   H625      1.0  0.36033  0.53374  0.81084  1.0000
  H   H626      1.0  0.28410  0.34695  0.59807  1.0000
  H   H627      1.0  0.19896  0.47130  0.96700  1.0000
  C   C794      1.0  0.41806  0.36252  0.55313  1.0000
  Fe  Fe57      1.0  0.30660  0.35658  0.68178  1.0000
  C   C795      1.0  0.29122  0.51984  0.71587  1.0000
  S   S108      1.0  0.49081  0.64339  0.92964  1.0000
  H   H628      1.0  0.41628  0.43864  0.88852  1.0000
  C   C796      1.0  0.42943  0.40187  0.98258  1.0000
  C   C797      1.0  0.31710  0.43479  0.72490  1.0000
  C   C798      1.0  0.48183  0.48611  0.97855  1.0000
  C   C799      1.0  0.27477  0.42680  0.95445  1.0000
  C   C800      1.0  0.01113  0.43490  0.87859  1.0000
  C   C801      1.0  0.35789  0.48143  0.83551  1.0000
  H   H629      1.0  0.39514  0.42550  0.71183  1.0000
  H   H630      1.0  0.39656  0.36391  0.97444  1.0000
  C   C802      1.0  0.40966  0.33992  0.91791  1.0000
  C   C803      1.0  0.30480  0.50420  0.66512  1.0000
  C   C804      1.0  0.37036  0.48227  0.69976  1.0000
  H   H631      1.0  0.03949  0.39219  0.84911  1.0000
  H   H632      1.0  0.46380  0.39220  0.85904  1.0000
  C   C805      1.0  0.38945  0.35653  0.83354  1.0000
  H   H633      1.0  0.34583  0.51825  0.75975  1.0000
  H   H634      1.0  0.20177  0.33016  0.50875  1.0000
  H   H635      1.0  0.06621  0.35191  0.86709  1.0000
  C   C806      1.0  0.21339  0.34774  0.68275  1.0000
  H   H636      1.0  0.45115  0.46990  0.97771  1.0000
  C   C807      1.0  0.35951  0.46687  0.71950  1.0000
  C   C808      1.0  0.40804  0.36962  0.52421  1.0000
  H   H637      1.0  0.02774  0.33703  0.78316  1.0000
  Fe  Fe58      1.0  0.12665  0.33566  0.63574  1.0000
  S   S109      1.0  0.10662  0.34137  0.76247  1.0000
  H   H638      1.0  0.40478  0.36446  0.82980  1.0000
  H   H639      1.0  0.05958  0.39827  0.90064  1.0000
  C   C809      1.0  0.26277  0.38531  0.82446  1.0000
  H   H640      1.0  0.20746  0.40239  0.90810  1.0000
  H   H641      1.0  0.43650  0.40021  0.95808  1.0000
  H   H642      1.0  0.30254  0.38063  0.61187  1.0000
  C   C810      1.0  0.00072  0.51930  0.89877  1.0000
  C   C811      1.0  0.30322  0.41734  0.72949  1.0000
  C   C812      1.0  0.35740  0.38329  0.92359  1.0000
  C   C813      1.0  0.29349  0.46945  0.86714  1.0000
  H   H643      1.0  0.27309  0.44408  0.95315  1.0000
  H   H644      1.0  0.19712  0.35383  0.68507  1.0000
  C   C814      1.0  0.26445  0.41390  0.93148  1.0000
  C   C815      1.0  0.18408  0.34795  0.59133  1.0000
  C   C816      1.0  0.22618  0.39749  0.81622  1.0000
  C   C817      1.0  0.08230  0.34279  0.78664  1.0000
  C   C818      1.0  0.06491  0.34820  0.84111  1.0000
  C   C819      1.0  0.24386  0.38514  0.80614  1.0000
  H   H645      1.0  0.23357  0.46283  0.93935  1.0000
  C   C820      1.0  0.40680  0.40555  0.89379  1.0000
  H   H646      1.0  0.30554  0.46129  0.79635  1.0000
  P   P28       1.0  0.33524  0.47391  0.74195  1.0000
  H   H647      1.0  0.28053  0.53094  0.72843  1.0000
  C   C821      1.0  0.22109  0.35816  0.59977  1.0000
  C   C822      1.0  0.19910  0.36253  0.60298  1.0000
  C   C823      1.0  0.36891  0.44661  0.72434  1.0000
  H   H648      1.0  0.36842  0.51027  0.85919  1.0000
  C   C824      1.0  0.18616  0.42251  0.93633  1.0000
  S   S110      1.0  0.12110  0.35697  0.58990  1.0000
  C   C825      1.0  0.29487  0.39020  0.52955  1.0000
  C   C826      1.0  0.25210  0.35414  0.67800  1.0000
  H   H649      1.0  0.34683  0.45552  0.80593  1.0000
  C   C827      1.0  0.29001  0.39530  0.98099  1.0000
  C   C828      1.0  0.25562  0.33203  0.67749  1.0000
  C   C829      1.0  0.34930  0.47264  0.80697  1.0000
  C   C830      1.0  0.29765  0.37793  0.58662  1.0000
  H   H650      1.0  0.39804  0.48888  0.66830  1.0000
  H   H651      1.0  0.28131  0.36499  0.96013  1.0000
  H   H652      1.0  0.23277  0.36929  0.60933  1.0000
  H   H653      1.0  0.19365  0.37705  0.61499  1.0000
  C   C831      1.0  0.06201  0.33886  0.77341  1.0000
  H   H654      1.0  0.43216  0.61887  0.95060  1.0000
  C   C832      1.0  0.36019  0.34382  0.86904  1.0000
  C   C833      1.0  0.28040  0.35562  0.54639  1.0000
  C   C834      1.0  0.37629  0.37247  0.93288  1.0000
  C   C835      1.0  0.38823  0.44136  0.70820  1.0000
  C   C836      1.0  0.38976  0.47701  0.68368  1.0000
  H   H655      1.0  0.08976  0.48335  0.93615  1.0000
  H   H656      1.0  0.04861  0.42700  0.93847  1.0000
  S   S111      1.0  0.03402  0.33918  0.94968  1.0000
  C   C837      1.0  0.31864  0.49200  0.71816  1.0000
  C   C838      1.0  0.30522  0.44903  0.77768  1.0000
  H   H657      1.0  0.28126  0.43039  0.80430  1.0000
  C   C839      1.0  0.29130  0.43158  0.78216  1.0000
  H   H658      1.0  0.27951  0.40224  0.76123  1.0000
  C   C840      1.0  0.42114  0.42208  0.88536  1.0000
  H   H659      1.0  0.30461  0.50316  0.63834  1.0000
  H   H660      1.0  0.29335  0.43817  0.88992  1.0000
  H   H661      1.0  0.20074  0.37353  0.53112  1.0000
  H   H662      1.0  0.31091  0.47014  0.86550  1.0000
  H   H663      1.0  0.16703  0.35125  0.59430  1.0000
  C   C841      1.0  0.07489  0.40137  0.98131  1.0000
  P   P29       1.0  0.01405  0.45919  0.93675  1.0000
  H   H664      1.0  0.30404  0.50695  0.76110  1.0000
  C   C842      1.0  0.26094  0.45024  0.88358  1.0000
  C   C843      1.0  0.41543  0.33537  0.49887  1.0000
  C   C844      1.0  0.42760  0.34336  0.93786  1.0000
  H   H665      1.0  0.48431  0.41670  0.96428  1.0000
  H   H666      1.0  0.16849  0.44569  0.96524  1.0000
  H   H667      1.0  0.45254  0.32887  0.96726  1.0000
  H   H668      1.0  0.24509  0.33584  0.58417  1.0000
  C   C845      1.0  0.99539  0.44709  0.96640  1.0000
  S   S112      1.0  0.00299  0.38092  0.93149  1.0000
  S   S113      1.0  0.29076  0.47742  0.98995  1.0000
  H   H669      1.0  0.33995  0.37106  0.50591  1.0000
  C   C846      1.0  0.04334  0.33979  0.79383  1.0000
  C   C847      1.0  0.43711  0.63297  0.96393  1.0000
  H   H670      1.0  0.00820  0.53501  0.89829  1.0000
  H   H671      1.0  0.06065  0.33547  0.74733  1.0000
  C   C848      1.0  0.41287  0.41693  0.98789  1.0000
  H   H672      1.0  0.30752  0.33607  0.49789  1.0000
  C   C849      1.0  0.07591  0.47897  0.95143  1.0000
  C   C850      1.0  0.14706  0.32735  0.50882  1.0000
  S   S114      1.0  0.36390  0.32692  0.60124  1.0000
  H   H673      1.0  0.42855  0.65499  0.92489  1.0000
  H   H674      1.0  0.05428  0.53272  0.97669  1.0000
  H   H675      1.0  0.35055  0.33295  0.78814  1.0000
  C   C851      1.0  0.42492  0.32783  0.52824  1.0000
  H   H676      1.0  0.46757  0.32944  0.49864  1.0000
  C   C852      1.0  0.13944  0.33130  0.54122  1.0000
  H   H677      1.0  0.21409  0.39906  0.98912  1.0000
  C   C853      1.0  0.23270  0.37124  0.50952  1.0000
  C   C854      1.0  0.04122  0.54003  0.99062  1.0000
  C   C855      1.0  0.07789  0.47760  0.98579  1.0000
  C   C856      1.0  0.40704  0.35617  0.49695  1.0000
  C   C857      1.0  0.04062  0.46635  0.99104  1.0000
  H   H678      1.0  0.99745  0.44456  0.87183  1.0000
  H   H679      1.0  0.38002  0.96346  0.15510  1.0000
  C   C858      1.0  0.01973  0.74122  0.99725  1.0000
  C   C859      1.0  0.02101  0.92691  0.01621  1.0000
  C   C860      1.0  0.41805  0.95714  0.00786  1.0000
  S   S115      1.0  0.45357  0.86382  0.07279  1.0000
  H   H680      1.0  0.43141  0.73762  0.05027  1.0000
  H   H681      1.0  0.35543  0.95681  0.20289  1.0000
  Fe  Fe59      1.0  0.37703  0.97394  0.08417  1.0000
  C   C861      1.0  0.43789  0.94663  0.00921  1.0000
  S   S116      1.0  0.40723  0.95470  0.10013  1.0000
  H   H682      1.0  0.49342  0.71524  0.05618  1.0000
  H   H683      1.0  0.05956  0.95871  0.04576  1.0000
  H   H684      1.0  0.43596  0.97595  0.20272  1.0000
  H   H685      1.0  0.29833  0.97504  0.11547  1.0000
  H   H686      1.0  0.02542  0.69533  0.07876  1.0000
  C   C862      1.0  0.99612  0.73535  0.11451  1.0000
  C   C863      1.0  0.44156  0.88972  0.07899  1.0000
  C   C864      1.0  0.45222  0.90645  0.09469  1.0000
  C   C865      1.0  0.44145  0.92609  0.10088  1.0000
  C   C866      1.0  0.42003  0.92959  0.09090  1.0000
  C   C867      1.0  0.40961  0.91311  0.07428  1.0000
  C   C868      1.0  0.42023  0.89333  0.06867  1.0000
  H   H687      1.0  0.46858  0.90407  0.10278  1.0000
  H   H688      1.0  0.44978  0.93863  0.11368  1.0000
  H   H689      1.0  0.39319  0.91540  0.06639  1.0000
  H   H690      1.0  0.41174  0.88059  0.05655  1.0000
  H   H691      1.0  0.46893  0.95742  0.22018  1.0000
  C   C869      1.0  0.03428  0.98256  0.04470  1.0000
  H   H692      1.0  0.04627  0.74413  0.14493  1.0000
  H   H693      1.0  0.08355  0.97887  0.00682  1.0000
  C   C870      1.0  0.25501  0.96836  0.02803  1.0000
  C   C871      1.0  0.03354  0.73655  0.13131  1.0000
  H   H694      1.0  0.06902  0.91982  0.99836  1.0000
  C   C872      1.0  0.00090  0.71738  0.09519  1.0000
  H   H695      1.0  0.22166  0.96575  0.01350  1.0000
  C   C873      1.0  0.01088  0.72136  0.00804  1.0000
  C   C874      1.0  0.01266  0.74503  0.13230  1.0000
  H   H696      1.0  0.40588  0.95390  0.02680  1.0000
  H   H697      1.0  0.02116  0.70913  0.01861  1.0000
  C   C875      1.0  0.27332  0.98156  0.03019  1.0000
  H   H698      1.0  0.03489  0.92824  0.03186  1.0000
  C   C876      1.0  0.02181  0.70904  0.09410  1.0000
  C   C877      1.0  0.03811  0.71855  0.11221  1.0000
  H   H699      1.0  0.00681  0.90133  0.04564  1.0000
  H   H700      1.0  0.45658  0.76685  0.03336  1.0000
  H   H701      1.0  0.25594  0.95186  0.03661  1.0000
  H   H702      1.0  0.47202  0.75119  0.13827  1.0000
  S   S117      1.0  0.34529  0.98144  0.11076  1.0000
  H   H703      1.0  0.44090  0.93564  0.02962  1.0000
  S   S118      1.0  0.29776  0.97040  0.04621  1.0000
  S   S119      1.0  0.36177  0.97461  0.03388  1.0000
  C   C878      1.0  0.48265  0.98533  0.24251  1.0000
  C   C879      1.0  0.36761  0.96918  0.20417  1.0000
  Fe  Fe60      1.0  0.48824  0.85034  0.07634  1.0000
  C   C880      1.0  0.23549  0.97620  0.01479  1.0000
  C   C881      1.0  0.43945  0.73722  0.02628  1.0000
  H   H704      1.0  0.05431  0.71209  0.11106  1.0000
  H   H705      1.0  0.28815  0.96444  0.17277  1.0000
  H   H706      1.0  0.00954  0.75935  0.14646  1.0000
  C   C882      1.0  0.05428  0.97394  0.03544  1.0000
  C   C883      1.0  0.39705  0.98909  0.17840  1.0000
  C   C884      1.0  0.44797  0.98487  0.21585  1.0000
  C   C885      1.0  0.45350  0.75374  0.01673  1.0000
  H   H707      1.0  0.02442  0.97396  0.06284  1.0000
  C   C886      1.0  0.00521  0.91165  0.02397  1.0000
  H   H708      1.0  0.47168  0.96697  0.04066  1.0000
  H   H709      1.0  0.45800  0.68248  0.01051  1.0000
  C   C887      1.0  0.06783  0.98523  0.01347  1.0000
  Fe  Fe61      1.0  0.33072  0.98479  0.05948  1.0000
  H   H710      1.0  0.00275  0.79804  0.03164  1.0000
  C   C888      1.0  0.29046  0.98655  0.13143  1.0000
  C   C889      1.0  0.38139  0.97305  0.17709  1.0000
  C   C890      1.0  0.36965  0.98117  0.23288  1.0000
  C   C891      1.0  0.46676  0.97427  0.22564  1.0000
  H   H711      1.0  0.00397  0.76965  0.07428  1.0000
  H   H712      1.0  0.48638  0.71518  0.12422  1.0000
  H   H713      1.0  0.35896  0.97821  0.25392  1.0000
  C   C892      1.0  0.43581  0.72018  0.00491  1.0000
  C   C893      1.0  0.28456  0.98050  0.16375  1.0000
  H   H714      1.0  0.42469  0.70760  0.01249  1.0000
  H   H715      1.0  0.44388  0.90478  0.00116  1.0000
  H   H716      1.0  0.03679  0.74404  0.99986  1.0000
  C   C894      1.0  0.48922  0.74873  0.13525  1.0000
  C   C895      1.0  0.48314  0.95500  0.04886  1.0000
  H   H717      1.0  0.48542  0.96858  0.09744  1.0000
  H   H718      1.0  0.26909  0.99028  0.20915  1.0000
  C   C896      1.0  0.49110  0.95616  0.08103  1.0000
  C   C897      1.0  0.48970  0.93829  0.02797  1.0000
  H   H719      1.0  0.99569  0.96925  0.02676  1.0000
  H   H720      1.0  0.40771  0.99160  0.15717  1.0000
  C   C898      1.0  0.45153  0.66894  0.99757  1.0000
  C   C899      1.0  0.01949  0.93956  0.98737  1.0000
  H   H721      1.0  0.25173  0.93862  0.91762  1.0000
  C   C900      1.0  0.04115  0.96866  0.92162  1.0000
  Fe  Fe62      1.0  0.01894  0.86305  0.94825  1.0000
  S   S120      1.0  0.04373  0.88813  0.96565  1.0000
  H   H722      1.0  0.42489  0.73005  0.90021  1.0000
  C   C901      1.0  0.47579  0.90772  0.97866  1.0000
  Fe  Fe63      1.0  0.13362  0.98325  0.93664  1.0000
  H   H723      1.0  0.16870  0.93919  0.87186  1.0000
  S   S121      1.0  0.11704  0.95413  0.91351  1.0000
  C   C902      1.0  0.19227  0.95199  0.94427  1.0000
  H   H724      1.0  0.00283  0.93818  0.80843  1.0000
  C   C903      1.0  0.25915  0.99189  0.70384  1.0000
  C   C904      1.0  0.21070  0.96230  0.93168  1.0000
  C   C905      1.0  0.45488  0.87481  0.98291  1.0000
  C   C906      1.0  0.29016  0.98428  0.94295  1.0000
  C   C907      1.0  0.19914  0.95567  0.87575  1.0000
  C   C908      1.0  0.00200  0.93704  0.96615  1.0000
  C   C909      1.0  0.45691  0.89678  0.98844  1.0000
  C   C910      1.0  0.06334  0.90700  0.95001  1.0000
  C   C911      1.0  0.06947  0.90843  0.91649  1.0000
  C   C912      1.0  0.08567  0.92306  0.90580  1.0000
  C   C913      1.0  0.09584  0.93674  0.92824  1.0000
  C   C914      1.0  0.08934  0.93568  0.96160  1.0000
  H   H725      1.0  0.18943  0.95097  0.97082  1.0000
  H   H726      1.0  0.06210  0.89791  0.89891  1.0000
  H   H727      1.0  0.09051  0.92360  0.87994  1.0000
  H   H728      1.0  0.39829  0.67869  0.96096  1.0000
  H   H729      1.0  0.20126  0.95700  0.84922  1.0000
  S   S122      1.0  0.01919  0.78171  0.96828  1.0000
  C   C915      1.0  0.49164  0.69224  0.86194  1.0000
  C   C916      1.0  0.25426  0.95079  0.77797  1.0000
  C   C917      1.0  0.23818  0.96627  0.78202  1.0000
  C   C918      1.0  0.23385  0.97465  0.81334  1.0000
  C   C919      1.0  0.44656  0.71933  0.97407  1.0000
  H   H730      1.0  0.09712  0.94578  0.97932  1.0000
  Fe  Fe64      1.0  0.00562  0.81448  0.95151  1.0000
  C   C920      1.0  0.21439  0.96417  0.89733  1.0000
  C   C921      1.0  0.46378  0.75334  0.98571  1.0000
  C   C922      1.0  0.26250  0.95147  0.92423  1.0000
  C   C923      1.0  0.39649  0.69151  0.94281  1.0000
  C   C924      1.0  0.41401  0.97193  0.98242  1.0000
  C   C925      1.0  0.46027  0.73629  0.96437  1.0000
  H   H731      1.0  0.39860  0.98006  0.98144  1.0000
  H   H732      1.0  0.04614  0.95199  0.92037  1.0000
  H   H733      1.0  0.43746  0.69058  0.87440  1.0000
  H   H734      1.0  0.46486  0.68730  0.82982  1.0000
  C   C926      1.0  0.45427  0.69261  0.88021  1.0000
  H   H735      1.0  0.01558  0.90858  0.92111  1.0000
  H   H736      1.0  0.07366  0.98033  0.91599  1.0000
  C   C927      1.0  0.26594  0.94360  0.80531  1.0000
  H   H737      1.0  0.47894  0.93720  0.91446  1.0000
  C   C928      1.0  0.01208  0.91048  0.83738  1.0000
  C   C929      1.0  0.45378  0.95042  0.98473  1.0000
  H   H738      1.0  0.22900  0.97175  0.76091  1.0000
  H   H739      1.0  0.25760  0.94428  0.75367  1.0000
  C   C930      1.0  0.05681  0.98471  0.91900  1.0000
  C   C931      1.0  0.01229  0.91516  0.89680  1.0000
  P   P30       1.0  0.23851  0.97743  0.88163  1.0000
  H   H740      1.0  0.35700  0.71710  0.89985  1.0000
  H   H741      1.0  0.27833  0.93149  0.80221  1.0000
  H   H742      1.0  0.28014  0.93149  0.95853  1.0000
  C   C932      1.0  0.41440  0.70327  0.93113  1.0000
  C   C933      1.0  0.43003  0.97662  0.95875  1.0000
  H   H743      1.0  0.27056  0.94578  0.85760  1.0000
  C   C934      1.0  0.24539  0.96742  0.84101  1.0000
  C   C935      1.0  0.39069  0.72531  0.89739  1.0000
  C   C936      1.0  0.41132  0.72042  0.90876  1.0000
  H   H744      1.0  0.30465  0.96055  0.97500  1.0000
  C   C937      1.0  0.27399  0.98856  0.92000  1.0000
  P   P31       1.0  0.44103  0.69764  0.94623  1.0000
  S   S123      1.0  0.02152  0.83584  0.91205  1.0000
  H   H745      1.0  0.44063  0.86637  0.99185  1.0000
  C   C938      1.0  0.00528  0.93174  0.83316  1.0000
  C   C939      1.0  0.37588  0.69644  0.93138  1.0000
  H   H746      1.0  0.38842  0.73852  0.88002  1.0000
  C   C940      1.0  0.48266  0.69752  0.91982  1.0000
  C   C941      1.0  0.26004  0.97214  0.91037  1.0000
  C   C942      1.0  0.17725  0.94354  0.92266  1.0000
  C   C943      1.0  0.29246  0.96369  0.95657  1.0000
  S   S124      1.0  0.00558  0.84108  0.98857  1.0000
  P   P32       1.0  0.47916  0.93604  0.98666  1.0000
  H   H747      1.0  0.36212  0.68725  0.94037  1.0000
  H   H748      1.0  0.22195  0.96907  0.94881  1.0000
  H   H749      1.0  0.03221  0.95085  0.98161  1.0000
  P   P33       1.0  0.99949  0.95282  0.92844  1.0000
  C   C944      1.0  0.18066  0.94542  0.88844  1.0000
  H   H750      1.0  0.46195  0.97005  0.94140  1.0000
  C   C945      1.0  0.01931  0.97404  0.92606  1.0000
  C   C946      1.0  0.37299  0.71327  0.90860  1.0000
  H   H751      1.0  0.16308  0.98885  0.83526  1.0000
  C   C947      1.0  0.47156  0.86354  0.96741  1.0000
  C   C948      1.0  0.27861  0.94731  0.94728  1.0000
  H   H752      1.0  0.16267  0.93598  0.93237  1.0000
  C   C949      1.0  0.44986  0.96594  0.95984  1.0000
  H   H753      1.0  0.22125  0.98654  0.81612  1.0000
  H   H754      1.0  0.48787  0.69930  0.94507  1.0000
  C   C950      1.0  0.01575  0.90228  0.86918  1.0000
  C   C951      1.0  0.44203  0.67162  0.96647  1.0000
  C   C952      1.0  0.46064  0.69644  0.91283  1.0000
  C   C953      1.0  0.26147  0.95178  0.83678  1.0000
  C   C954      1.0  0.46975  0.69065  0.85485  1.0000
  H   H755      1.0  0.01463  0.90031  0.81611  1.0000
  H   H756      1.0  0.46828  0.73651  0.94040  1.0000
  H   H757      1.0  0.02123  0.88585  0.87250  1.0000
  H   H758      1.0  0.16623  0.97646  0.77722  1.0000
  H   H759      1.0  0.26062  0.98147  0.68267  1.0000
  C   C955      1.0  0.07336  0.92086  0.97235  1.0000
  H   H760      1.0  0.47477  0.76615  0.97848  1.0000
  H   H761      1.0  0.29012  0.98312  0.72332  1.0000
  C   C956      1.0  0.00162  0.94460  0.86083  1.0000
  C   C957      1.0  0.00681  0.75733  0.98277  1.0000
  C   C958      1.0  0.17497  0.99055  0.78475  1.0000
  H   H762      1.0  0.47016  0.84639  0.96407  1.0000
  H   H763      1.0  0.42701  0.98867  0.93973  1.0000
  C   C959      1.0  0.00464  0.93621  0.89291  1.0000
  C   C960      1.0  0.27575  0.99279  0.72676  1.0000
  S   S125      1.0  0.14484  0.98744  0.98920  1.0000
  C   C961      1.0  0.49051  0.87417  0.95795  1.0000
  H   H764      1.0  0.99634  0.96103  0.85730  1.0000
  C   C962      1.0  0.49386  0.94443  0.92222  1.0000
  C   C963      1.0  0.49271  0.89609  0.96376  1.0000
  C   C964      1.0  0.93215  0.14609  0.11571  1.0000
  C   C965      1.0  0.96004  0.00412  0.06196  1.0000
  C   C966      1.0  0.51972  0.09588  0.04245  1.0000
  S   S126      1.0  0.88354  0.03432  0.05648  1.0000
  C   C967      1.0  0.99083  0.22013  0.01784  1.0000
  H   H765      1.0  0.97068  0.27497  0.05955  1.0000
  C   C968      1.0  0.50427  0.24247  0.13458  1.0000
  H   H766      1.0  0.65789  0.00902  0.10523  1.0000
  C   C969      1.0  0.52784  0.99326  0.03307  1.0000
  H   H767      1.0  0.58820  0.27640  0.13422  1.0000
  C   C970      1.0  0.54278  0.22001  0.08013  1.0000
  S   S127      1.0  0.96159  0.09392  0.10406  1.0000
  C   C971      1.0  0.97560  0.03002  0.24924  1.0000
  C   C972      1.0  0.94010  0.26499  0.04073  1.0000
  P   P34       1.0  0.69833  0.01521  0.06779  1.0000
  H   H768      1.0  0.97239  0.24613  0.10155  1.0000
  C   C973      1.0  0.59648  0.21974  0.15259  1.0000
  H   H769      1.0  0.52717  0.28763  0.16501  1.0000
  H   H770      1.0  0.70145  0.06176  0.16595  1.0000
  C   C974      1.0  0.90680  0.04913  0.06895  1.0000
  C   C975      1.0  0.91646  0.04603  0.09981  1.0000
  C   C976      1.0  0.93339  0.05960  0.10973  1.0000
  C   C977      1.0  0.94135  0.07620  0.08879  1.0000
  C   C978      1.0  0.93237  0.07869  0.05735  1.0000
  C   C979      1.0  0.91508  0.06546  0.04777  1.0000
  H   H771      1.0  0.91034  0.03368  0.11655  1.0000
  H   H772      1.0  0.94012  0.05739  0.13409  1.0000
  H   H773      1.0  0.93827  0.09120  0.04074  1.0000
  H   H774      1.0  0.90783  0.06809  0.02385  1.0000
  H   H775      1.0  0.53954  0.19185  0.05014  1.0000
  C   C980      1.0  0.97993  0.99648  0.04979  1.0000
  P   P35       1.0  0.50413  0.02786  0.00638  1.0000
  H   H776      1.0  0.99109  0.20765  0.21594  1.0000
  C   C981      1.0  0.97861  0.03382  0.99560  1.0000
  H   H777      1.0  0.93798  0.24787  0.16231  1.0000
  C   C982      1.0  0.77226  0.02300  0.06588  1.0000
  H   H778      1.0  0.87606  0.23814  0.20897  1.0000
  C   C983      1.0  0.49838  0.08960  0.03818  1.0000
  C   C984      1.0  0.54389  0.29913  0.09903  1.0000
  H   H779      1.0  0.50720  0.22938  0.11790  1.0000
  C   C985      1.0  0.88612  0.21386  0.17457  1.0000
  C   C986      1.0  0.93733  0.18423  0.10458  1.0000
  C   C987      1.0  0.69198  0.05024  0.15263  1.0000
  H   H780      1.0  0.52772  0.29544  0.09115  1.0000
  C   C988      1.0  0.54454  0.24249  0.08029  1.0000
  C   C989      1.0  0.51536  0.27526  0.16078  1.0000
  H   H781      1.0  0.98041  0.04855  0.08370  1.0000
  C   C990      1.0  0.96705  0.05076  0.24994  1.0000
  C   C991      1.0  0.88868  0.23280  0.19215  1.0000
  C   C992      1.0  0.96970  0.20949  0.17438  1.0000
  C   C993      1.0  0.93165  0.14233  0.08171  1.0000
  C   C994      1.0  0.70008  0.04159  0.12317  1.0000
  S   S128      1.0  0.98219  0.19303  0.02467  1.0000
  C   C995      1.0  0.92139  0.21891  0.14863  1.0000
  C   C996      1.0  0.90233  0.20699  0.15269  1.0000
  H   H782      1.0  0.87147  0.20456  0.17766  1.0000
  H   H783      1.0  0.93073  0.13268  0.13302  1.0000
  H   H784      1.0  0.93609  0.16953  0.15355  1.0000
  C   C997      1.0  0.92365  0.23814  0.16588  1.0000
  H   H785      1.0  0.97652  0.15983  0.17813  1.0000
  C   C998      1.0  0.94216  0.23144  0.08786  1.0000
  C   C999      1.0  0.90741  0.24498  0.18771  1.0000
  C   C1000     1.0  0.96809  0.20937  0.13969  1.0000
  C   C1001     1.0  0.55690  0.28306  0.11305  1.0000
  C   C1002     1.0  0.51998  0.25824  0.13931  1.0000
  C   C1003     1.0  0.65419  0.04376  0.00648  1.0000
  H   H786      1.0  0.92650  0.99724  0.07128  1.0000
  C   C1004     1.0  0.98065  0.06853  0.24632  1.0000
  H   H787      1.0  0.58617  0.23288  0.10596  1.0000
  H   H788      1.0  0.54222  0.21089  0.10317  1.0000
  H   H789      1.0  0.93444  0.15636  0.03275  1.0000
  H   H790      1.0  0.55304  0.08643  0.03878  1.0000
  C   C1005     1.0  0.54141  0.20912  0.05019  1.0000
  H   H791      1.0  0.90928  0.25981  0.20100  1.0000
  H   H792      1.0  0.60135  0.31348  0.12771  1.0000
  H   H793      1.0  0.91123  0.22201  0.06895  1.0000
  H   H794      1.0  0.98581  0.20556  0.09352  1.0000
  C   C1006     1.0  0.93517  0.16693  0.12715  1.0000
  H   H795      1.0  0.52325  0.11204  0.05018  1.0000
  C   C1007     1.0  0.53190  0.06077  0.02525  1.0000
  C   C1008     1.0  0.92347  0.24997  0.04327  1.0000
  C   C1009     1.0  0.95764  0.26345  0.06189  1.0000
  H   H796      1.0  0.64378  0.02443  0.15716  1.0000
  H   H797      1.0  0.54583  0.24678  0.19114  1.0000
  C   C1010     1.0  0.66430  0.03521  0.03447  1.0000
  C   C1011     1.0  0.95868  0.24680  0.08542  1.0000
  C   C1012     1.0  0.54366  0.24288  0.02006  1.0000
  H   H798      1.0  0.72687  0.05012  0.04470  1.0000
  C   C1013     1.0  0.69696  0.02998  0.00204  1.0000
  H   H799      1.0  0.93946  0.19307  0.05247  1.0000
  C   C1014     1.0  0.75918  0.03945  0.05353  1.0000
  C   C1015     1.0  0.52720  0.01010  0.00954  1.0000
  H   H800      1.0  0.63738  0.04852  0.00775  1.0000
  C   C1016     1.0  0.57386  0.22760  0.20029  1.0000
  H   H801      1.0  0.89973  0.19256  0.13876  1.0000
  C   C1017     1.0  0.54189  0.22055  0.02016  1.0000
  C   C1018     1.0  0.93693  0.18026  0.07047  1.0000
  H   H802      1.0  0.54559  0.27114  0.04905  1.0000
  C   C1019     1.0  0.56402  0.24113  0.14579  1.0000
  C   C1020     1.0  0.55984  0.23925  0.18001  1.0000
  C   C1021     1.0  0.92438  0.23337  0.06695  1.0000
  C   C1022     1.0  0.74057  0.00164  0.07864  1.0000
  H   H803      1.0  0.95822  0.02047  0.07016  1.0000
  C   C1023     1.0  0.55160  0.32010  0.09532  1.0000
  H   H804      1.0  0.60300  0.20881  0.20236  1.0000
  P   P36       1.0  0.94229  0.21082  0.11983  1.0000
  H   H805      1.0  0.97371  0.08446  0.24741  1.0000
  C   C1024     1.0  0.58251  0.23138  0.13224  1.0000
  H   H806      1.0  0.95550  0.21079  0.19008  1.0000
  P   P37       1.0  0.54620  0.25630  0.11934  1.0000
  C   C1025     1.0  0.99051  0.10794  0.19399  1.0000
  H   H807      1.0  0.71326  0.02397  0.99935  1.0000
  H   H808      1.0  0.93958  0.27774  0.02217  1.0000
  H   H809      1.0  0.57054  0.22618  0.22668  1.0000
  H   H810      1.0  0.76647  0.05399  0.04353  1.0000
  Fe  Fe65      1.0  0.86718  0.00171  0.06928  1.0000
  C   C1026     1.0  0.68795  0.02660  0.10578  1.0000
  H   H811      1.0  0.94984  0.05306  0.25321  1.0000
  C   C1027     1.0  0.59215  0.21782  0.18660  1.0000
  H   H812      1.0  0.78965  0.02463  0.06525  1.0000
  S   S129      1.0  0.98874  0.15252  0.10362  1.0000
  H   H813      1.0  0.61070  0.21223  0.14197  1.0000
  C   C1028     1.0  0.54483  0.25385  0.04995  1.0000
  C   C1029     1.0  0.66758  0.02050  0.11829  1.0000
  H   H814      1.0  0.90988  0.25119  0.02684  1.0000
  C   C1030     1.0  0.57778  0.28833  0.12317  1.0000
  C   C1031     1.0  0.68582  0.02823  0.03252  1.0000
  C   C1032     1.0  0.93414  0.15938  0.05912  1.0000
  C   C1033     1.0  0.98678  0.20648  0.12024  1.0000
  C   C1034     1.0  0.53646  0.08146  0.03603  1.0000
  C   C1035     1.0  0.65952  0.02920  0.14772  1.0000
  H   H815      1.0  0.65501  0.03362  0.05718  1.0000
  H   H816      1.0  0.54336  0.25175  0.99678  1.0000
  C   C1036     1.0  0.97794  0.23414  0.99882  1.0000
  C   C1037     1.0  0.51047  0.05440  0.02061  1.0000
  C   C1038     1.0  0.76292  0.00424  0.07879  1.0000
  H   H817      1.0  0.98046  0.30987  0.37202  1.0000
  H   H818      1.0  0.66546  0.05079  0.18772  1.0000
  C   C1039     1.0  0.67172  0.04406  0.16491  1.0000
  H   H819      1.0  0.98530  0.06262  0.13949  1.0000
  H   H820      1.0  0.96501  0.01626  0.25186  1.0000
  H   H821      1.0  0.71580  0.04663  0.11416  1.0000
  C   C1040     1.0  0.72731  0.01797  0.06589  1.0000
  H   H822      1.0  0.96812  0.12284  0.16055  1.0000
  C   C1041     1.0  0.73677  0.03709  0.05391  1.0000
  H   H823      1.0  0.92981  0.12609  0.07293  1.0000
  C   C1042     1.0  0.58536  0.30938  0.11955  1.0000
  C   C1043     1.0  0.98984  0.20756  0.18922  1.0000
  Fe  Fe66      1.0  0.98597  0.11901  0.08334  1.0000
  H   H824      1.0  0.54521  0.05008  0.02018  1.0000
  C   C1044     1.0  0.98430  0.14623  0.18995  1.0000
  H   H825      1.0  0.49773  0.02067  0.07743  1.0000
  C   C1045     1.0  0.97966  0.12542  0.17995  1.0000
  H   H826      1.0  0.98715  0.09202  0.18506  1.0000
  S   S130      1.0  0.99191  0.13100  0.03115  1.0000
  C   C1046     1.0  0.99330  0.04213  0.09868  1.0000
  C   C1047     1.0  0.57223  0.32528  0.10577  1.0000
  C   C1048     1.0  0.49524  0.27664  0.17672  1.0000
  H   H827      1.0  0.54021  0.21217  0.99697  1.0000
  H   H828      1.0  0.55457  0.08816  0.96893  1.0000
  C   C1049     1.0  0.97969  0.30803  0.84085  1.0000
  S   S131      1.0  0.60933  0.03136  0.95237  1.0000
  S   S132      1.0  0.49644  0.14757  0.89835  1.0000
  S   S133      1.0  0.65791  0.00127  0.89826  1.0000
  H   H829      1.0  0.49864  0.24379  0.95179  1.0000
  H   H830      1.0  0.57660  0.00231  0.97328  1.0000
  S   S134      1.0  0.53009  0.09177  0.90677  1.0000
  H   H831      1.0  0.78630  0.00092  0.99152  1.0000
  S   S135      1.0  0.71377  0.99377  0.94421  1.0000
  H   H832      1.0  0.95541  0.31163  0.80376  1.0000
  H   H833      1.0  0.95705  0.21293  0.90695  1.0000
  C   C1050     1.0  0.98445  0.25546  0.99160  1.0000
  H   H834      1.0  0.50085  0.06332  0.95658  1.0000
  S   S136      1.0  0.49962  0.13101  0.97582  1.0000
  C   C1051     1.0  0.49749  0.04819  0.94489  1.0000
  H   H835      1.0  0.97886  0.19524  0.95050  1.0000
  C   C1052     1.0  0.50908  0.31118  0.54523  1.0000
  Fe  Fe67      1.0  0.50456  0.11627  0.92532  1.0000
  H   H836      1.0  0.69535  0.03923  0.95050  1.0000
  H   H837      1.0  0.97439  0.26589  0.97678  1.0000
  H   H838      1.0  0.80809  0.00477  0.59330  1.0000
  C   C1053     1.0  0.58655  0.04719  0.93962  1.0000
  C   C1054     1.0  0.57801  0.06269  0.96137  1.0000
  C   C1055     1.0  0.56051  0.07606  0.95220  1.0000
  C   C1056     1.0  0.55128  0.07432  0.92092  1.0000
  C   C1057     1.0  0.55958  0.05857  0.89941  1.0000
  C   C1058     1.0  0.57693  0.04505  0.90868  1.0000
  H   H839      1.0  0.58520  0.06460  0.98536  1.0000
  C   C1059     1.0  0.98525  0.26650  0.81706  1.0000
  H   H840      1.0  0.55270  0.05702  0.87511  1.0000
  H   H841      1.0  0.58318  0.03333  0.89153  1.0000
  H   H842      1.0  0.95916  0.04896  0.95816  1.0000
  C   C1060     1.0  0.96714  0.30093  0.81481  1.0000
  C   C1061     1.0  0.75433  0.99743  0.97128  1.0000
  S   S137      1.0  0.49660  0.19764  0.95589  1.0000
  H   H843      1.0  0.97780  0.32425  0.84982  1.0000
  C   C1062     1.0  0.68681  0.03859  0.97413  1.0000
  H   H844      1.0  0.54470  0.02573  0.96898  1.0000
  H   H845      1.0  0.98714  0.25042  0.80764  1.0000
  C   C1063     1.0  0.97226  0.05097  0.97523  1.0000
  C   C1064     1.0  0.98336  0.23220  0.88771  1.0000
  C   C1065     1.0  0.96987  0.28014  0.80298  1.0000
  H   H846      1.0  0.96012  0.27465  0.78278  1.0000
  H   H847      1.0  0.97347  0.23978  0.86909  1.0000
  C   C1066     1.0  0.49801  0.32314  0.52137  1.0000
  C   C1067     1.0  0.66540  0.04539  0.97630  1.0000
  H   H848      1.0  0.75570  0.01166  0.95572  1.0000
  Fe  Fe68      1.0  0.63011  0.00240  0.93521  1.0000
  H   H849      1.0  0.52618  0.31369  0.54851  1.0000
  H   H850      1.0  0.65726  0.05137  0.95442  1.0000
  H   H851      1.0  0.49542  0.27276  0.99337  1.0000
  C   C1068     1.0  0.97396  0.21686  0.90904  1.0000
  C   C1069     1.0  0.54482  0.01301  0.98765  1.0000
  H   H852      1.0  0.78141  0.99777  0.63859  1.0000
  C   C1070     1.0  0.49769  0.02876  0.96294  1.0000
  C   C1071     1.0  0.56298  0.99979  0.99002  1.0000
  C   C1072     1.0  0.98249  0.07082  0.97740  1.0000
  C   C1073     1.0  0.98625  0.20680  0.93346  1.0000
  C   C1074     1.0  0.49805  0.29608  0.56501  1.0000
  H   H853      1.0  0.96284  0.22842  0.98936  1.0000
  H   H854      1.0  0.50662  0.28693  0.58369  1.0000
  H   H855      1.0  0.97745  0.08422  0.96194  1.0000
  H   H856      1.0  0.97027  0.01869  0.99377  1.0000
  H   H857      1.0  0.74047  0.58520  0.13467  1.0000
  S   S138      1.0  0.85121  0.62621  0.34485  1.0000
  C   C1075     1.0  0.51253  0.39357  0.02677  1.0000
  H   H858      1.0  0.53042  0.50158  0.05279  1.0000
  S   S139      1.0  0.90474  0.62227  0.29249  1.0000
  H   H859      1.0  0.98854  0.40051  0.01064  1.0000
  C   C1076     1.0  0.63839  0.58458  0.08083  1.0000
  H   H860      1.0  0.54150  0.33251  0.08480  1.0000
  C   C1077     1.0  0.50260  0.54210  0.01496  1.0000
  Fe  Fe69      1.0  0.69844  0.60927  0.35775  1.0000
  S   S140      1.0  0.66785  0.59019  0.36560  1.0000
  S   S141      1.0  0.73232  0.59880  0.36873  1.0000
  C   C1078     1.0  0.91316  0.65135  0.24066  1.0000
  S   S142      1.0  0.64312  0.63355  0.33868  1.0000
  Fe  Fe70      1.0  0.65512  0.62099  0.38788  1.0000
  S   S143      1.0  0.63346  0.62834  0.43249  1.0000
  Fe  Fe71      1.0  0.65845  0.60431  0.31575  1.0000
  S   S144      1.0  0.64321  0.59148  0.26867  1.0000
  S   S145      1.0  0.68648  0.63853  0.38343  1.0000
  S   S146      1.0  0.68989  0.62104  0.30715  1.0000
  Fe  Fe72      1.0  0.96895  0.63887  0.11168  1.0000
  C   C1079     1.0  0.70205  0.56956  0.49233  1.0000
  C   C1080     1.0  0.94799  0.50367  0.02996  1.0000
  Fe  Fe73      1.0  0.96798  0.61395  0.04673  1.0000
  H   H861      1.0  0.62011  0.64120  0.25176  1.0000
  S   S147      1.0  0.98151  0.60607  0.09696  1.0000
  Fe  Fe74      1.0  0.62559  0.46439  0.09041  1.0000
  S   S148      1.0  0.62810  0.48927  0.04921  1.0000
  S   S149      1.0  0.61018  0.43278  0.07330  1.0000
  Fe  Fe75      1.0  0.64383  0.49666  0.14088  1.0000
  S   S150      1.0  0.64574  0.52314  0.10288  1.0000
  S   S151      1.0  0.65615  0.50288  0.19304  1.0000
  Fe  Fe76      1.0  0.61354  0.51145  0.08658  1.0000
  S   S152      1.0  0.58238  0.52984  0.08088  1.0000
  Fe  Fe77      1.0  0.66070  0.49820  0.06944  1.0000
  S   S153      1.0  0.69054  0.51032  0.03946  1.0000
  S   S154      1.0  0.61033  0.48661  0.12720  1.0000
  S   S155      1.0  0.65948  0.47170  0.10799  1.0000
  H   H862      1.0  0.71542  0.47190  0.06011  1.0000
  C   C1081     1.0  0.78092  0.57250  0.10061  1.0000
  S   S156      1.0  0.53149  0.37175  0.11985  1.0000
  C   C1082     1.0  0.58711  0.41720  0.08583  1.0000
  C   C1083     1.0  0.57639  0.41992  0.11627  1.0000
  C   C1084     1.0  0.55917  0.40620  0.12586  1.0000
  C   C1085     1.0  0.55209  0.38978  0.10503  1.0000
  C   C1086     1.0  0.56246  0.38741  0.07423  1.0000
  C   C1087     1.0  0.57988  0.40091  0.06487  1.0000
  H   H863      1.0  0.58172  0.43224  0.13283  1.0000
  H   H864      1.0  0.55146  0.40818  0.14984  1.0000
  H   H865      1.0  0.55765  0.37464  0.05815  1.0000
  H   H866      1.0  0.58811  0.39845  0.04140  1.0000
  C   C1088     1.0  0.88795  0.56017  0.02083  1.0000
  C   C1089     1.0  0.58089  0.55112  0.05196  1.0000
  S   S157      1.0  0.95539  0.58917  0.01148  1.0000
  H   H867      1.0  0.52473  0.62050  0.06572  1.0000
  Fe  Fe78      1.0  0.67545  0.64905  0.33335  1.0000
  C   C1090     1.0  0.65888  0.59936  0.12547  1.0000
  C   C1091     1.0  0.71737  0.50094  0.03075  1.0000
  C   C1092     1.0  0.76028  0.48737  0.01470  1.0000
  S   S158      1.0  0.94959  0.65270  0.15562  1.0000
  C   C1093     1.0  0.96675  0.51359  0.01725  1.0000
  C   C1094     1.0  0.63876  0.62511  0.47539  1.0000
  H   H868      1.0  0.99010  0.54735  0.15907  1.0000
  C   C1095     1.0  0.91517  0.58475  0.04096  1.0000
  C   C1096     1.0  0.89464  0.57534  0.04386  1.0000
  H   H869      1.0  0.92030  0.59635  0.05885  1.0000
  H   H870      1.0  0.88395  0.57978  0.06404  1.0000
  C   C1097     1.0  0.57807  0.56097  0.22586  1.0000
  H   H871      1.0  0.52279  0.37991  0.03187  1.0000
  H   H872      1.0  0.57489  0.43600  0.00897  1.0000
  S   S159      1.0  0.84707  0.62019  0.43950  1.0000
  C   C1098     1.0  0.72486  0.57115  0.44322  1.0000
  C   C1099     1.0  0.65332  0.52786  0.21335  1.0000
  C   C1100     1.0  0.66244  0.53061  0.24472  1.0000
  C   C1101     1.0  0.66005  0.55014  0.26175  1.0000
  C   C1102     1.0  0.64831  0.56705  0.24763  1.0000
  C   C1103     1.0  0.63971  0.56441  0.21593  1.0000
  C   C1104     1.0  0.64221  0.54501  0.19887  1.0000
  H   H873      1.0  0.67109  0.51745  0.25615  1.0000
  H   H874      1.0  0.66678  0.55190  0.28610  1.0000
  H   H875      1.0  0.63080  0.57728  0.20452  1.0000
  H   H876      1.0  0.63530  0.54324  0.17465  1.0000
  H   H877      1.0  0.49937  0.55606  0.09602  1.0000
  C   C1105     1.0  0.58773  0.54062  0.17730  1.0000
  C   C1106     1.0  0.68815  0.61158  0.21131  1.0000
  C   C1107     1.0  0.81021  0.49317  0.09584  1.0000
  C   C1108     1.0  0.65819  0.58967  0.09454  1.0000
  C   C1109     1.0  0.91645  0.63074  0.25384  1.0000
  C   C1110     1.0  0.92962  0.61636  0.23603  1.0000
  C   C1111     1.0  0.93958  0.62255  0.20563  1.0000
  C   C1112     1.0  0.93660  0.64331  0.19278  1.0000
  C   C1113     1.0  0.99264  0.47525  0.05701  1.0000
  H   H878      1.0  0.67297  0.58584  0.08128  1.0000
  Fe  Fe79      1.0  0.88208  0.64145  0.32629  1.0000
  H   H879      1.0  0.94984  0.61142  0.19246  1.0000
  C   C1114     1.0  0.78002  0.55450  0.12174  1.0000
  C   C1115     1.0  0.51556  0.52795  0.07758  1.0000
  C   C1116     1.0  0.74663  0.63261  0.32974  1.0000
  C   C1117     1.0  0.75173  0.61732  0.35411  1.0000
  C   C1118     1.0  0.77285  0.61604  0.36561  1.0000
  C   C1119     1.0  0.78893  0.62954  0.35210  1.0000
  H   H880      1.0  0.54489  0.58862  0.02476  1.0000
  H   H881      1.0  0.73043  0.63406  0.32104  1.0000
  H   H882      1.0  0.77679  0.60443  0.38472  1.0000
  H   H883      1.0  0.80520  0.62837  0.36102  1.0000
  H   H884      1.0  0.78178  0.53415  0.25182  1.0000
  C   C1120     1.0  0.85010  0.49430  0.34746  1.0000
  C   C1121     1.0  0.83437  0.48497  0.32797  1.0000
  C   C1122     1.0  0.81691  0.49723  0.31710  1.0000
  C   C1123     1.0  0.81522  0.51886  0.32556  1.0000
  C   C1124     1.0  0.83115  0.52845  0.34471  1.0000
  C   C1125     1.0  0.84846  0.51591  0.35596  1.0000
  P   P38       1.0  0.82903  0.55615  0.35686  1.0000
  C   C1126     1.0  0.81246  0.57112  0.32808  1.0000
  C   C1127     1.0  0.81601  0.55815  0.39700  1.0000
  C   C1128     1.0  0.81122  0.57848  0.40963  1.0000
  C   C1129     1.0  0.80141  0.58044  0.44081  1.0000
  C   C1130     1.0  0.79592  0.56214  0.45942  1.0000
  H   H885      1.0  0.57787  0.34172  0.10344  1.0000
  C   C1131     1.0  0.81041  0.53976  0.41575  1.0000
  C   C1132     1.0  0.78997  0.56861  0.32955  1.0000
  C   C1133     1.0  0.77677  0.58059  0.30849  1.0000
  C   C1134     1.0  0.78580  0.59574  0.28659  1.0000
  C   C1135     1.0  0.80810  0.59846  0.28503  1.0000
  C   C1136     1.0  0.82142  0.58609  0.30543  1.0000
  C   C1137     1.0  0.85607  0.56693  0.35764  1.0000
  C   C1138     1.0  0.86969  0.56495  0.32972  1.0000
  C   C1139     1.0  0.89032  0.57391  0.32953  1.0000
  C   C1140     1.0  0.89764  0.58460  0.35733  1.0000
  C   C1141     1.0  0.88451  0.58597  0.38562  1.0000
  C   C1142     1.0  0.86388  0.57702  0.38593  1.0000
  H   H886      1.0  0.86357  0.48476  0.35613  1.0000
  H   H887      1.0  0.83564  0.46820  0.32150  1.0000
  H   H888      1.0  0.80461  0.48992  0.30225  1.0000
  H   H889      1.0  0.80148  0.52792  0.31709  1.0000
  H   H890      1.0  0.86069  0.52282  0.37140  1.0000
  H   H891      1.0  0.81561  0.59290  0.39573  1.0000
  H   H892      1.0  0.51853  0.60137  0.11927  1.0000
  C   C1143     1.0  0.55883  0.62398  0.07276  1.0000
  C   C1144     1.0  0.58162  0.58011  0.20805  1.0000
  H   H893      1.0  0.81385  0.52388  0.40664  1.0000
  H   H894      1.0  0.78253  0.55786  0.34769  1.0000
  H   H895      1.0  0.75944  0.57916  0.31080  1.0000
  H   H896      1.0  0.77546  0.60602  0.27188  1.0000
  H   H897      1.0  0.81504  0.61083  0.26899  1.0000
  H   H898      1.0  0.83855  0.58901  0.30418  1.0000
  H   H899      1.0  0.86417  0.55704  0.30776  1.0000
  H   H900      1.0  0.90045  0.57329  0.30743  1.0000
  H   H901      1.0  0.91334  0.59221  0.35663  1.0000
  C   C1145     1.0  0.50348  0.54680  0.07433  1.0000
  H   H902      1.0  0.85417  0.57842  0.40823  1.0000
  H   H903      1.0  0.54798  0.55841  0.06499  1.0000
  C   C1146     1.0  0.52116  0.51614  0.04952  1.0000
  C   C1147     1.0  0.81301  0.52567  0.23208  1.0000
  H   H904      1.0  0.74954  0.59516  0.44213  1.0000
  C   C1148     1.0  0.96533  0.42620  0.00839  1.0000
  C   C1149     1.0  0.73641  0.58813  0.45657  1.0000
  P   P39       1.0  0.98862  0.51963  0.04472  1.0000
  H   H905      1.0  0.72907  0.56537  0.41878  1.0000
  H   H906      1.0  0.57304  0.56142  0.25167  1.0000
  H   H907      1.0  0.56151  0.63174  0.04881  1.0000
  H   H908      1.0  0.50755  0.41741  0.13171  1.0000
  C   C1150     1.0  0.65484  0.61136  0.48716  1.0000
  C   C1151     1.0  0.59714  0.57472  0.01032  1.0000
  C   C1152     1.0  0.53461  0.60659  0.11224  1.0000
  C   C1153     1.0  0.77509  0.65713  0.41792  1.0000
  C   C1154     1.0  0.73073  0.59601  0.48791  1.0000
  C   C1155     1.0  0.82080  0.47673  0.07898  1.0000
  H   H909      1.0  0.76281  0.52685  0.19986  1.0000
  H   H910      1.0  0.81988  0.44364  0.06470  1.0000
  C   C1156     1.0  0.97788  0.53415  0.07980  1.0000
  C   C1157     1.0  0.98915  0.53473  0.10968  1.0000
  C   C1158     1.0  0.98117  0.54666  0.13628  1.0000
  C   C1159     1.0  0.96190  0.55811  0.13327  1.0000
  C   C1160     1.0  0.95070  0.55777  0.10356  1.0000
  C   C1161     1.0  0.95871  0.54599  0.07686  1.0000
  S   S160      1.0  0.95317  0.64501  0.06252  1.0000
  C   C1162     1.0  0.82453  0.51825  0.20455  1.0000
  C   C1163     1.0  0.81381  0.51346  0.17536  1.0000
  C   C1164     1.0  0.77917  0.57010  0.06637  1.0000
  S   S161      1.0  0.86216  0.54861  0.02518  1.0000
  C   C1165     1.0  0.70757  0.56203  0.46091  1.0000
  C   C1166     1.0  0.79072  0.52841  0.23042  1.0000
  C   C1167     1.0  0.50979  0.45567  0.09516  1.0000
  H   H911      1.0  0.82316  0.50778  0.15446  1.0000
  H   H912      1.0  0.59665  0.55870  0.13389  1.0000
  H   H913      1.0  0.97679  0.47343  0.04693  1.0000
  H   H914      1.0  0.54886  0.59393  0.15644  1.0000
  C   C1168     1.0  0.79139  0.51618  0.17337  1.0000
  H   H915      1.0  0.67949  0.59785  0.20243  1.0000
  S   S162      1.0  0.50209  0.33616  0.04602  1.0000
  H   H916      1.0  0.83562  0.48009  0.06544  1.0000
  H   H917      1.0  0.80463  0.43516  0.00373  1.0000
  H   H918      1.0  0.95591  0.56769  0.15365  1.0000
  H   H919      1.0  0.93608  0.56711  0.10084  1.0000
  H   H920      1.0  0.95013  0.54663  0.05372  1.0000
  C   C1169     1.0  0.78855  0.64716  0.44090  1.0000
  C   C1170     1.0  0.56161  0.56272  0.04941  1.0000
  C   C1171     1.0  0.67638  0.62975  0.22052  1.0000
  C   C1172     1.0  0.49702  0.55387  0.04299  1.0000
  C   C1173     1.0  0.58128  0.54123  0.21057  1.0000
  C   C1174     1.0  0.74680  0.47504  0.03602  1.0000
  P   P40       1.0  0.59489  0.60406  0.15185  1.0000
  H   H921      1.0  0.61299  0.64647  0.48953  1.0000
  S   S163      1.0  0.84915  0.49044  0.99832  1.0000
  C   C1175     1.0  0.77970  0.63574  0.46790  1.0000
  C   C1176     1.0  0.81197  0.45616  0.07871  1.0000
  C   C1177     1.0  0.80034  0.54180  0.44684  1.0000
  C   C1178     1.0  0.51481  0.52323  0.01795  1.0000
  H   H922      1.0  0.84186  0.51621  0.20573  1.0000
  H   H923      1.0  0.67427  0.60295  0.13632  1.0000
  C   C1179     1.0  0.68684  0.64740  0.23378  1.0000
  C   C1180     1.0  0.60921  0.62526  0.20818  1.0000
  H   H924      1.0  0.56299  0.50373  0.01142  1.0000
  H   H925      1.0  0.93229  0.60039  0.24596  1.0000
  C   C1181     1.0  0.58905  0.57961  0.17499  1.0000
  C   C1182     1.0  0.63974  0.60408  0.14266  1.0000
  H   H926      1.0  0.78582  0.63020  0.15768  1.0000
  C   C1183     1.0  0.52662  0.47780  0.13656  1.0000
  H   H927      1.0  0.95339  0.41768  0.02337  1.0000
  H   H928      1.0  0.61096  0.57942  0.99526  1.0000
  C   C1184     1.0  0.57104  0.47024  0.01137  1.0000
  H   H929      1.0  0.66494  0.60273  0.46978  1.0000
  C   C1185     1.0  0.72094  0.62861  0.22921  1.0000
  C   C1186     1.0  0.61970  0.59916  0.12895  1.0000
  S   S164      1.0  0.99347  0.35137  0.99850  1.0000
  H   H930      1.0  0.73676  0.51595  0.09903  1.0000
  H   H931      1.0  0.63785  0.57676  0.05706  1.0000
  C   C1187     1.0  0.75721  0.63417  0.47222  1.0000
  H   H932      1.0  0.58016  0.64905  0.14665  1.0000
  H   H933      1.0  0.77524  0.54770  0.02668  1.0000
  H   H934      1.0  0.94659  0.49951  0.05606  1.0000
  C   C1188     1.0  0.79264  0.45194  0.09571  1.0000
  C   C1189     1.0  0.78217  0.46825  0.11314  1.0000
  C   C1190     1.0  0.74998  0.50238  0.14430  1.0000
  C   C1191     1.0  0.74515  0.48997  0.17284  1.0000
  C   C1192     1.0  0.72408  0.48305  0.17932  1.0000
  C   C1193     1.0  0.70781  0.48802  0.15700  1.0000
  C   C1194     1.0  0.71254  0.49993  0.12826  1.0000
  C   C1195     1.0  0.73352  0.50713  0.12186  1.0000
  C   C1196     1.0  0.77754  0.53393  0.10866  1.0000
  C   C1197     1.0  0.77564  0.53169  0.07427  1.0000
  H   H935      1.0  0.64073  0.61118  0.16680  1.0000
  H   H936      1.0  0.59208  0.62515  0.08604  1.0000
  H   H937      1.0  0.69835  0.54921  0.45017  1.0000
  C   C1198     1.0  0.55991  0.57998  0.02688  1.0000
  H   H938      1.0  0.52098  0.52263  0.10174  1.0000
  H   H939      1.0  0.76707  0.46459  0.12567  1.0000
  H   H940      1.0  0.75770  0.48528  0.18980  1.0000
  H   H941      1.0  0.72029  0.47351  0.20130  1.0000
  H   H942      1.0  0.69155  0.48233  0.16175  1.0000
  H   H943      1.0  0.69993  0.50333  0.11064  1.0000
  H   H944      1.0  0.77374  0.51598  0.06359  1.0000
  Fe  Fe80      1.0  0.85779  0.64044  0.39467  1.0000
  H   H945      1.0  0.61616  0.61012  0.21593  1.0000
  H   H946      1.0  0.59009  0.52535  0.16523  1.0000
  C   C1199     1.0  0.77999  0.52405  0.20102  1.0000
  H   H947      1.0  0.78323  0.58830  0.11071  1.0000
  H   H948      1.0  0.89005  0.59445  0.40714  1.0000
  H   H949      1.0  0.80591  0.64776  0.43731  1.0000
  C   C1200     1.0  0.74386  0.64399  0.44858  1.0000
  C   C1201     1.0  0.56456  0.44958  0.00322  1.0000
  H   H950      1.0  0.81700  0.50917  0.09476  1.0000
  H   H951      1.0  0.82142  0.52941  0.25459  1.0000
  C   C1202     1.0  0.78391  0.64423  0.32678  1.0000
  H   H952      1.0  0.75278  0.46009  0.04627  1.0000
  H   H953      1.0  0.58639  0.47257  0.02323  1.0000
  C   C1203     1.0  0.59861  0.55697  0.03209  1.0000
  C   C1204     1.0  0.85060  0.62695  0.48160  1.0000
  H   H954      1.0  0.91617  0.49203  0.01914  1.0000
  H   H955      1.0  0.51293  0.40429  0.07680  1.0000
  C   C1205     1.0  0.50674  0.40738  0.05235  1.0000
  C   C1206     1.0  0.98503  0.41644  0.00095  1.0000
  C   C1207     1.0  0.92322  0.65757  0.21042  1.0000
  C   C1208     1.0  0.57284  0.60871  0.12388  1.0000
  H   H956      1.0  0.78011  0.58398  0.04991  1.0000
  C   C1209     1.0  0.54637  0.47613  0.11974  1.0000
  C   C1210     1.0  0.54797  0.46402  0.09101  1.0000
  C   C1211     1.0  0.52976  0.45394  0.07855  1.0000
  C   C1212     1.0  0.75221  0.50671  0.00183  1.0000
  C   C1213     1.0  0.59158  0.55969  0.15958  1.0000
  H   H957      1.0  0.99238  0.33867  0.33285  1.0000
  S   S165      1.0  0.89033  0.65280  0.37754  1.0000
  C   C1214     1.0  0.58901  0.64707  0.16938  1.0000
  H   H958      1.0  0.65899  0.62972  0.21877  1.0000
  C   C1215     1.0  0.72554  0.48172  0.04397  1.0000
  H   H959      1.0  0.78553  0.43611  0.09484  1.0000
  H   H960      1.0  0.79066  0.62765  0.48445  1.0000
  C   C1216     1.0  0.61152  0.64297  0.22864  1.0000
  H   H961      1.0  0.56053  0.48401  0.12908  1.0000
  H   H962      1.0  0.56351  0.46221  0.07871  1.0000
  H   H963      1.0  0.53148  0.44462  0.05632  1.0000
  H   H964      1.0  0.79848  0.59622  0.45067  1.0000
  C   C1217     1.0  0.79168  0.58499  0.20492  1.0000
  C   C1218     1.0  0.79739  0.60298  0.18571  1.0000
  C   C1219     1.0  0.78137  0.61621  0.17252  1.0000
  C   C1220     1.0  0.75963  0.61144  0.17852  1.0000
  C   C1221     1.0  0.75377  0.59351  0.19813  1.0000
  C   C1222     1.0  0.76995  0.58029  0.21116  1.0000
  P   P41       1.0  0.72569  0.58697  0.20494  1.0000
  C   C1223     1.0  0.72292  0.56832  0.23956  1.0000
  C   C1224     1.0  0.71059  0.61093  0.21516  1.0000
  H   H965      1.0  0.57870  0.59514  0.22034  1.0000
  P   P42       1.0  0.77745  0.51043  0.13539  1.0000
  Fe  Fe81      1.0  0.50492  0.35114  0.09655  1.0000
  C   C1225     1.0  0.61924  0.58920  0.09797  1.0000
  C   C1226     1.0  0.92910  0.57888  0.01511  1.0000
  C   C1227     1.0  0.72054  0.57595  0.27193  1.0000
  C   C1228     1.0  0.71710  0.56163  0.29849  1.0000
  C   C1229     1.0  0.71638  0.53958  0.29303  1.0000
  C   C1230     1.0  0.71941  0.53178  0.26101  1.0000
  C   C1231     1.0  0.72282  0.54606  0.23439  1.0000
  C   C1232     1.0  0.71499  0.57455  0.16847  1.0000
  C   C1233     1.0  0.69617  0.56218  0.17119  1.0000
  C   C1234     1.0  0.68873  0.55102  0.14400  1.0000
  C   C1235     1.0  0.69967  0.55239  0.11355  1.0000
  C   C1236     1.0  0.71825  0.56487  0.11039  1.0000
  C   C1237     1.0  0.72592  0.57593  0.13771  1.0000
  H   H966      1.0  0.80414  0.57483  0.21531  1.0000
  H   H967      1.0  0.81425  0.60672  0.18116  1.0000
  C   C1238     1.0  0.73099  0.51343  0.00989  1.0000
  H   H968      1.0  0.74737  0.62174  0.16792  1.0000
  H   H969      1.0  0.76582  0.56654  0.22652  1.0000
  H   H970      1.0  0.73798  0.62815  0.23435  1.0000
  C   C1239     1.0  0.76271  0.64582  0.31581  1.0000
  C   C1240     1.0  0.59786  0.62707  0.17840  1.0000
  C   C1241     1.0  0.86069  0.64596  0.49061  1.0000
  C   C1242     1.0  0.57777  0.58621  0.00761  1.0000
  H   H971      1.0  0.72108  0.59294  0.27678  1.0000
  H   H972      1.0  0.71461  0.56771  0.32331  1.0000
  H   H973      1.0  0.71315  0.52858  0.31356  1.0000
  H   H974      1.0  0.71839  0.51471  0.25665  1.0000
  H   H975      1.0  0.72473  0.53963  0.20975  1.0000
  H   H976      1.0  0.68752  0.56056  0.19463  1.0000
  H   H977      1.0  0.67465  0.54096  0.14692  1.0000
  H   H978      1.0  0.69386  0.54356  0.09250  1.0000
  H   H979      1.0  0.72687  0.56564  0.08681  1.0000
  C   C1243     1.0  0.93071  0.49947  0.00922  1.0000
  H   H980      1.0  0.60409  0.58461  0.08721  1.0000
  H   H981      1.0  0.52548  0.48692  0.15915  1.0000
  H   H982      1.0  0.78151  0.55666  0.14812  1.0000
  C   C1244     1.0  0.70911  0.64681  0.23817  1.0000
  H   H983      1.0  0.61348  0.54797  0.03378  1.0000
  H   H984      1.0  0.57885  0.52640  0.22447  1.0000
  C   C1245     1.0  0.79088  0.48904  0.11333  1.0000
  H   H985      1.0  0.86293  0.60008  0.99979  1.0000
  C   C1246     1.0  0.55189  0.60231  0.13315  1.0000
  C   C1247     1.0  0.57614  0.61988  0.09370  1.0000
  C   C1248     1.0  0.53808  0.61742  0.08209  1.0000
  C   C1249     1.0  0.50843  0.46748  0.12449  1.0000
  C   C1250     1.0  0.77645  0.54970  0.05324  1.0000
  H   H986      1.0  0.60051  0.65583  0.37955  1.0000
  H   H987      1.0  0.79615  0.52761  0.46137  1.0000
  H   H988      1.0  0.72659  0.64210  0.45001  1.0000
  H   H989      1.0  0.78845  0.56375  0.48369  1.0000
  H   H990      1.0  0.94539  0.45409  0.00105  1.0000
  C   C1251     1.0  0.55766  0.48781  0.00478  1.0000
  H   H991      1.0  0.72496  0.52832  0.99948  1.0000
  H   H992      1.0  0.75869  0.65718  0.29634  1.0000
  C   C1252     1.0  0.75277  0.65546  0.42166  1.0000
  H   H993      1.0  0.70195  0.63323  0.49055  1.0000
  S   S166      1.0  0.78695  0.47789  0.00525  1.0000
  C   C1253     1.0  0.96083  0.44668  0.99572  1.0000
  H   H994      1.0  0.86626  0.65706  0.47154  1.0000
  Fe  Fe82      1.0  0.83578  0.65772  0.33315  1.0000
  Fe  Fe83      1.0  0.84623  0.62844  0.63815  1.0000
  H   H995      1.0  0.95090  0.52065  0.93730  1.0000
  S   S167      1.0  0.86328  0.64124  0.59132  1.0000
  Fe  Fe84      1.0  0.84303  0.60244  0.70471  1.0000
  S   S168      1.0  0.81237  0.61883  0.72005  1.0000
  S   S169      1.0  0.85974  0.57847  0.73943  1.0000
  Fe  Fe85      1.0  0.80292  0.61490  0.66702  1.0000
  S   S170      1.0  0.77023  0.60563  0.64904  1.0000
  H   H996      1.0  0.86830  0.49318  0.84630  1.0000
  S   S171      1.0  0.83241  0.59610  0.65230  1.0000
  S   S172      1.0  0.85999  0.63307  0.68908  1.0000
  H   H997      1.0  0.55380  0.52246  0.87104  1.0000
  S   S173      1.0  0.64915  0.62320  0.68165  1.0000
  H   H998      1.0  0.90668  0.64802  0.86467  1.0000
  Fe  Fe86      1.0  0.61855  0.63730  0.70339  1.0000
  S   S174      1.0  0.60402  0.62074  0.74959  1.0000
  Fe  Fe87      1.0  0.63669  0.63339  0.63150  1.0000
  S   S175      1.0  0.64648  0.61270  0.58751  1.0000
  Fe  Fe88      1.0  0.86207  0.48512  0.94662  1.0000
  C   C1254     1.0  0.54485  0.44652  0.98775  1.0000
  S   S176      1.0  0.89252  0.46578  0.93123  1.0000
  Fe  Fe89      1.0  0.83245  0.52039  0.91718  1.0000
  S   S177      1.0  0.81796  0.52831  0.96720  1.0000
  S   S178      1.0  0.81853  0.53976  0.87376  1.0000
  C   C1255     1.0  0.97104  0.49623  0.88484  1.0000
  C   C1256     1.0  0.80388  0.36881  0.85085  1.0000
  Fe  Fe90      1.0  0.81578  0.49295  0.97644  1.0000
  H   H999      1.0  0.68860  0.56253  0.50607  1.0000
  S   S179      1.0  0.86640  0.52060  0.93544  1.0000
  S   S180      1.0  0.82841  0.48464  0.92508  1.0000
  Fe  Fe91      1.0  0.54375  0.61948  0.96311  1.0000
  C   C1257     1.0  0.83877  0.44736  0.85594  1.0000
  C   C1258     1.0  0.79680  0.59064  0.57607  1.0000
  Fe  Fe92      1.0  0.52280  0.63851  0.90238  1.0000
  C   C1259     1.0  0.81945  0.45471  0.84209  1.0000
  H   H1000     1.0  0.87078  0.65823  0.74976  1.0000
  Fe  Fe93      1.0  0.97519  0.36247  0.95358  1.0000
  H   H1001     1.0  0.87096  0.45659  0.86995  1.0000
  S   S181      1.0  0.94143  0.37692  0.96366  1.0000
  C   C1260     1.0  0.62563  0.63600  0.49840  1.0000
  H   H1002     1.0  0.80740  0.62324  0.58058  1.0000
  C   C1261     1.0  0.94656  0.64278  0.92077  1.0000
  H   H1003     1.0  0.89733  0.37515  0.92197  1.0000
  C   C1262     1.0  0.90694  0.44190  0.94292  1.0000
  C   C1263     1.0  0.89954  0.42772  0.96782  1.0000
  C   C1264     1.0  0.91061  0.40828  0.97427  1.0000
  C   C1265     1.0  0.92962  0.40287  0.95671  1.0000
  C   C1266     1.0  0.93765  0.41755  0.93295  1.0000
  C   C1267     1.0  0.92627  0.43678  0.92593  1.0000
  S   S182      1.0  0.81604  0.64653  0.65027  1.0000
  H   H1004     1.0  0.71726  0.65522  0.60529  1.0000
  H   H1005     1.0  0.95224  0.41376  0.91923  1.0000
  H   H1006     1.0  0.93231  0.44759  0.90677  1.0000
  C   C1268     1.0  0.53965  0.51617  0.91937  1.0000
  H   H1007     1.0  0.80858  0.58433  0.59315  1.0000
  S   S183      1.0  0.52929  0.65136  0.84964  1.0000
  H   H1008     1.0  0.80970  0.39054  0.77337  1.0000
  H   H1009     1.0  0.86702  0.64715  0.88730  1.0000
  C   C1269     1.0  0.76573  0.60712  0.53275  1.0000
  C   C1270     1.0  0.55072  0.64305  0.82280  1.0000
  H   H1010     1.0  0.75500  0.57404  0.53012  1.0000
  Fe  Fe94      1.0  0.51103  0.65596  0.97135  1.0000
  H   H1011     1.0  0.93310  0.55932  0.97193  1.0000
  C   C1271     1.0  0.58389  0.63028  0.77775  1.0000
  H   H1012     1.0  0.84752  0.58247  0.88311  1.0000
  C   C1272     1.0  0.79609  0.61261  0.56894  1.0000
  C   C1273     1.0  0.56448  0.62605  0.83100  1.0000
  C   C1274     1.0  0.58082  0.61961  0.80848  1.0000
  H   H1013     1.0  0.56232  0.61761  0.85443  1.0000
  H   H1014     1.0  0.59106  0.60615  0.81483  1.0000
  C   C1275     1.0  0.84557  0.64455  0.81047  1.0000
  C   C1276     1.0  0.64384  0.61866  0.54457  1.0000
  C   C1277     1.0  0.62830  0.63297  0.53279  1.0000
  H   H1015     1.0  0.66897  0.59665  0.53055  1.0000
  H   H1016     1.0  0.61767  0.64085  0.55018  1.0000
  C   C1278     1.0  0.74961  0.62296  0.66214  1.0000
  C   C1279     1.0  0.75440  0.64156  0.67944  1.0000
  C   C1280     1.0  0.78234  0.64968  0.79744  1.0000
  H   H1017     1.0  0.90423  0.39718  0.99278  1.0000
  C   C1281     1.0  0.71144  0.63145  0.66669  1.0000
  C   C1282     1.0  0.72814  0.61803  0.65549  1.0000
  H   H1018     1.0  0.77096  0.64555  0.68441  1.0000
  C   C1283     1.0  0.72600  0.63363  0.52894  1.0000
  H   H1019     1.0  0.69492  0.62751  0.66145  1.0000
  H   H1020     1.0  0.72437  0.60372  0.64192  1.0000
  C   C1284     1.0  0.83095  0.55115  0.83756  1.0000
  C   C1285     1.0  0.81886  0.56520  0.81754  1.0000
  C   C1286     1.0  0.82752  0.57377  0.78768  1.0000
  C   C1287     1.0  0.84832  0.56820  0.77718  1.0000
  C   C1288     1.0  0.86059  0.55443  0.79750  1.0000
  C   C1289     1.0  0.85206  0.54613  0.82770  1.0000
  H   H1021     1.0  0.80269  0.56951  0.82520  1.0000
  H   H1022     1.0  0.81810  0.58466  0.77273  1.0000
  H   H1023     1.0  0.87678  0.55017  0.78979  1.0000
  H   H1024     1.0  0.86161  0.53548  0.84294  1.0000
  H   H1025     1.0  0.80303  0.48128  0.81862  1.0000
  C   C1290     1.0  0.85722  0.63579  0.54940  1.0000
  C   C1291     1.0  0.70604  0.63882  0.51490  1.0000
  S   S184      1.0  0.52651  0.60439  0.92081  1.0000
  H   H1026     1.0  0.53285  0.50096  0.91225  1.0000
  C   C1292     1.0  0.84218  0.43008  0.94204  1.0000
  C   C1293     1.0  0.71620  0.64977  0.68471  1.0000
  C   C1294     1.0  0.81801  0.47554  0.82896  1.0000
  H   H1027     1.0  0.84204  0.60538  0.55927  1.0000
  C   C1295     1.0  0.84339  0.61263  0.50664  1.0000
  C   C1296     1.0  0.92441  0.61085  0.92094  1.0000
  C   C1297     1.0  0.53148  0.46409  0.98078  1.0000
  H   H1028     1.0  0.78233  0.55992  0.56806  1.0000
  H   H1029     1.0  0.56956  0.55735  0.88680  1.0000
  C   C1298     1.0  0.83672  0.58013  0.93375  1.0000
  C   C1299     1.0  0.88190  0.41470  0.85099  1.0000
  C   C1300     1.0  0.53642  0.52377  0.95164  1.0000
  C   C1301     1.0  0.87359  0.60352  0.94889  1.0000
  C   C1302     1.0  0.86959  0.59826  0.91582  1.0000
  C   C1303     1.0  0.85092  0.58673  0.90843  1.0000
  P   P43       1.0  0.88805  0.60543  0.88248  1.0000
  H   H1030     1.0  0.57245  0.65576  0.74630  1.0000
  C   C1304     1.0  0.89914  0.58126  0.86483  1.0000
  C   C1305     1.0  0.91082  0.58233  0.83478  1.0000
  C   C1306     1.0  0.91943  0.56368  0.82094  1.0000
  C   C1307     1.0  0.91688  0.54393  0.83738  1.0000
  C   C1308     1.0  0.90590  0.54283  0.86785  1.0000
  C   C1309     1.0  0.89712  0.56143  0.88162  1.0000
  C   C1310     1.0  0.83358  0.43362  0.97369  1.0000
  H   H1031     1.0  0.56470  0.57046  0.94395  1.0000
  H   H1032     1.0  0.83036  0.41717  0.80437  1.0000
  H   H1033     1.0  0.77639  0.65254  0.60317  1.0000
  C   C1311     1.0  0.87216  0.62096  0.85350  1.0000
  C   C1312     1.0  0.86670  0.61275  0.82256  1.0000
  P   P44       1.0  0.74539  0.61794  0.50550  1.0000
  C   C1313     1.0  0.57042  0.64758  0.76989  1.0000
  C   C1314     1.0  0.73769  0.65481  0.69101  1.0000
  H   H1034     1.0  0.88764  0.61256  0.95558  1.0000
  H   H1035     1.0  0.91298  0.59753  0.82180  1.0000
  H   H1036     1.0  0.92787  0.56454  0.79725  1.0000
  H   H1037     1.0  0.92332  0.52946  0.82643  1.0000
  H   H1038     1.0  0.90393  0.52754  0.88071  1.0000
  H   H1039     1.0  0.88879  0.56020  0.90533  1.0000
  C   C1315     1.0  0.69465  0.65616  0.56543  1.0000
  C   C1316     1.0  0.85356  0.62456  0.80112  1.0000
  H   H1040     1.0  0.83052  0.57908  0.98643  1.0000
  H   H1041     1.0  0.98170  0.52782  0.97324  1.0000
  H   H1042     1.0  0.87218  0.59710  0.81496  1.0000
  C   C1317     1.0  0.77426  0.64434  0.76657  1.0000
  C   C1318     1.0  0.84108  0.58491  0.96665  1.0000
  C   C1319     1.0  0.77645  0.63755  0.82557  1.0000
  C   C1320     1.0  0.76255  0.62002  0.82278  1.0000
  C   C1321     1.0  0.75462  0.61442  0.79168  1.0000
  C   C1322     1.0  0.76052  0.62679  0.76370  1.0000
  P   P45       1.0  0.73772  0.59114  0.78682  1.0000
  C   C1323     1.0  0.74061  0.57371  0.82280  1.0000
  C   C1324     1.0  0.70982  0.59882  0.78170  1.0000
  C   C1325     1.0  0.69335  0.58406  0.78957  1.0000
  C   C1326     1.0  0.67176  0.58954  0.78456  1.0000
  C   C1327     1.0  0.66644  0.60965  0.77131  1.0000
  C   C1328     1.0  0.68270  0.62430  0.76302  1.0000
  C   C1329     1.0  0.70432  0.61894  0.76804  1.0000
  C   C1330     1.0  0.75656  0.55768  0.82361  1.0000
  C   C1331     1.0  0.75950  0.54519  0.85227  1.0000
  C   C1332     1.0  0.74643  0.54840  0.88024  1.0000
  C   C1333     1.0  0.73047  0.56423  0.87966  1.0000
  C   C1334     1.0  0.72766  0.57696  0.85118  1.0000
  C   C1335     1.0  0.74732  0.57775  0.75000  1.0000
  C   C1336     1.0  0.73287  0.57023  0.72642  1.0000
  C   C1337     1.0  0.74062  0.56088  0.69728  1.0000
  C   C1338     1.0  0.76279  0.55890  0.69153  1.0000
  C   C1339     1.0  0.77726  0.56635  0.71484  1.0000
  C   C1340     1.0  0.76957  0.57583  0.74386  1.0000
  S   S185      1.0  0.51396  0.62291  0.99442  1.0000
  H   H1043     1.0  0.82257  0.57088  0.92783  1.0000
  H   H1044     1.0  0.78286  0.64154  0.84949  1.0000
  H   H1045     1.0  0.75842  0.61072  0.84480  1.0000
  H   H1046     1.0  0.75480  0.62250  0.73950  1.0000
  H   H1047     1.0  0.69717  0.56820  0.79912  1.0000
  H   H1048     1.0  0.65908  0.57812  0.79050  1.0000
  H   H1049     1.0  0.64971  0.61377  0.76700  1.0000
  H   H1050     1.0  0.67852  0.63970  0.75210  1.0000
  H   H1051     1.0  0.71655  0.63044  0.76063  1.0000
  H   H1052     1.0  0.76702  0.55487  0.80248  1.0000
  H   H1053     1.0  0.77217  0.53318  0.85296  1.0000
  H   H1054     1.0  0.74882  0.53869  0.90242  1.0000
  H   H1055     1.0  0.72037  0.56672  0.90142  1.0000
  H   H1056     1.0  0.71554  0.58948  0.85145  1.0000
  H   H1057     1.0  0.71565  0.57196  0.72995  1.0000
  H   H1058     1.0  0.72944  0.55569  0.67872  1.0000
  H   H1059     1.0  0.76877  0.55231  0.66848  1.0000
  H   H1060     1.0  0.79446  0.56534  0.70998  1.0000
  H   H1061     1.0  0.78098  0.58197  0.76129  1.0000
  C   C1341     1.0  0.91610  0.64070  0.88410  1.0000
  H   H1062     1.0  0.97206  0.47312  0.96600  1.0000
  P   P46       1.0  0.83991  0.42102  0.87495  1.0000
  C   C1342     1.0  0.83572  0.48927  0.82999  1.0000
  C   C1343     1.0  0.85483  0.48227  0.84448  1.0000
  C   C1344     1.0  0.85633  0.46144  0.85765  1.0000
  C   C1345     1.0  0.97593  0.45726  0.97525  1.0000
  H   H1063     1.0  0.93066  0.65743  0.80168  1.0000
  C   C1346     1.0  0.92234  0.56388  0.99194  1.0000
  H   H1064     1.0  0.83439  0.50549  0.82026  1.0000
  H   H1065     1.0  0.74452  0.63508  0.57423  1.0000
  H   H1066     1.0  0.92419  0.38477  0.87851  1.0000
  H   H1067     1.0  0.78032  0.63792  0.54211  1.0000
  C   C1347     1.0  0.55766  0.55530  0.93710  1.0000
  C   C1348     1.0  0.87230  0.39515  0.90141  1.0000
  C   C1349     1.0  0.95035  0.51548  0.96298  1.0000
  H   H1068     1.0  0.95544  0.49401  0.87371  1.0000
  H   H1069     1.0  0.91435  0.40984  0.83273  1.0000
  C   C1350     1.0  0.90065  0.65525  0.77596  1.0000
  H   H1070     1.0  0.76225  0.51640  0.98540  1.0000
  H   H1071     1.0  0.84403  0.43826  0.99356  1.0000
  H   H1072     1.0  0.88505  0.43148  0.98171  1.0000
  C   C1351     1.0  0.72992  0.63966  0.56177  1.0000
  H   H1073     1.0  0.85924  0.43229  0.93757  1.0000
  H   H1074     1.0  0.95200  0.61503  0.95195  1.0000
  H   H1075     1.0  0.78050  0.42686  0.95758  1.0000
  C   C1352     1.0  0.91096  0.62024  0.89705  1.0000
  Fe  Fe95      1.0  0.85169  0.52554  0.98588  1.0000
  C   C1353     1.0  0.82876  0.42428  0.91608  1.0000
  H   H1076     1.0  0.87780  0.42543  0.83071  1.0000
  H   H1077     1.0  0.84951  0.61811  0.77720  1.0000
  S   S186      1.0  0.60471  0.64473  0.65283  1.0000
  C   C1354     1.0  0.76646  0.58505  0.54035  1.0000
  C   C1355     1.0  0.78199  0.57688  0.56185  1.0000
  S   S187      1.0  0.57646  0.60855  0.98057  1.0000
  H   H1078     1.0  0.81731  0.38161  0.89505  1.0000
  C   C1356     1.0  0.82277  0.40391  0.81767  1.0000
  C   C1357     1.0  0.85940  0.59673  0.97417  1.0000
  C   C1358     1.0  0.54574  0.54330  0.96048  1.0000
  C   C1359     1.0  0.98108  0.47901  0.90100  1.0000
  H   H1079     1.0  0.54391  0.54932  0.98532  1.0000
  C   C1360     1.0  0.90807  0.39147  0.87740  1.0000
  C   C1361     1.0  0.55381  0.65375  0.79212  1.0000
  C   C1362     1.0  0.93376  0.65196  0.89613  1.0000
  C   C1363     1.0  0.84678  0.61696  0.54034  1.0000
  C   C1364     1.0  0.78070  0.62084  0.54727  1.0000
  P   P47       1.0  0.52088  0.50802  0.98126  1.0000
  H   H1080     1.0  0.77910  0.65343  0.74460  1.0000
  H   H1081     1.0  0.80535  0.44453  0.84201  1.0000
  S   S188      1.0  0.98372  0.33167  0.92686  1.0000
  H   H1082     1.0  0.86079  0.39072  0.92074  1.0000
  C   C1365     1.0  0.71434  0.65102  0.57978  1.0000
  C   C1366     1.0  0.71368  0.58637  0.50593  1.0000
  Fe  Fe96      1.0  0.49585  0.60987  0.95082  1.0000
  Fe  Fe97      1.0  0.66258  0.65638  0.68383  1.0000
  C   C1367     1.0  0.56045  0.54787  0.90486  1.0000
  S   S189      1.0  0.54212  0.65316  0.94281  1.0000
  C   C1368     1.0  0.80639  0.42345  0.92166  1.0000
  H   H1083     1.0  0.79556  0.42036  0.90155  1.0000
  C   C1369     1.0  0.79778  0.42713  0.95332  1.0000
  C   C1370     1.0  0.65710  0.60791  0.52158  1.0000
  C   C1371     1.0  0.81140  0.43195  0.97939  1.0000
  C   C1372     1.0  0.86406  0.65031  0.52433  1.0000
  H   H1084     1.0  0.79272  0.35954  0.80286  1.0000
  C   C1373     1.0  0.94198  0.62218  0.93295  1.0000
  C   C1374     1.0  0.86363  0.64087  0.86306  1.0000
  H   H1085     1.0  0.83554  0.65369  0.79357  1.0000
  H   H1086     1.0  0.92112  0.59489  0.93081  1.0000
  C   C1375     1.0  0.81545  0.38393  0.86859  1.0000
  C   C1376     1.0  0.55152  0.52825  0.89602  1.0000
  C   C1377     1.0  0.82459  0.40181  0.85220  1.0000
  H   H1087     1.0  0.97308  0.52975  0.87119  1.0000
  C   C1378     1.0  0.80167  0.37128  0.81658  1.0000
  C   C1379     1.0  0.93193  0.50528  0.97571  1.0000
  H   H1088     1.0  0.50839  0.38578  0.97553  1.0000
  H   H1089     1.0  0.97284  0.46371  0.90261  1.0000
  C   C1380     1.0  0.85059  0.65272  0.84145  1.0000
  Fe  Fe98      1.0  0.82863  0.64893  0.70154  1.0000
  H   H1090     1.0  0.79671  0.35512  0.86366  1.0000
  H   H1091     1.0  0.51666  0.46132  0.96790  1.0000
  H   H1092     1.0  0.91839  0.50222  0.95978  1.0000
  H   H1093     1.0  0.90093  0.63788  0.77484  1.0000
  C   C1381     1.0  0.86678  0.40989  0.87626  1.0000
  C   C1382     1.0  0.89289  0.38607  0.90200  1.0000
  C   C1383     1.0  0.90256  0.40570  0.85181  1.0000
  C   C1384     1.0  0.81120  0.38877  0.79999  1.0000
  H   H1094     1.0  0.83564  0.59782  0.49993  1.0000
  H   H1095     1.0  0.70925  0.59190  0.53045  1.0000
  C   C1385     1.0  0.98092  0.51635  0.88354  1.0000
  H   H1096     1.0  0.50652  0.33494  0.50614  1.0000
  C   C1386     1.0  0.96776  0.51957  0.98356  1.0000
  C   C1387     1.0  0.69048  0.65005  0.53306  1.0000
  H   H1097     1.0  0.89685  0.54291  0.97695  1.0000
  C   C1388     1.0  0.53755  0.48484  0.99001  1.0000
  H   H1098     1.0  0.53997  0.43048  0.98117  1.0000
  H   H1099     1.0  0.96009  0.65159  0.93046  1.0000
  H   H1100     1.0  0.67482  0.65321  0.52253  1.0000
  C   C1389     1.0  0.49495  0.50202  0.96388  1.0000
  H   H1101     1.0  0.49748  0.54779  0.99083  1.0000
  H   H1102     1.0  0.49548  0.52865  0.92846  1.0000
  C   C1390     1.0  0.50458  0.39701  0.99499  1.0000
  C   C1391     1.0  0.90182  0.55457  0.99475  1.0000
  Fe  Fe99      1.0  0.87196  0.68259  0.36277  1.0000
  C   C1392     1.0  0.96923  0.76800  0.08141  1.0000
  S   S190      1.0  0.88448  0.71587  0.37150  1.0000
  S   S191      1.0  0.68363  0.68263  0.31577  1.0000
  Fe  Fe100     1.0  0.62562  0.78645  0.34930  1.0000
  S   S192      1.0  0.60368  0.81511  0.35112  1.0000
  S   S193      1.0  0.61313  0.75267  0.34920  1.0000
  Fe  Fe101     1.0  0.66588  0.81321  0.34786  1.0000
  S   S194      1.0  0.64755  0.84427  0.34840  1.0000
  S   S195      1.0  0.70131  0.80618  0.35071  1.0000
  Fe  Fe102     1.0  0.62726  0.82789  0.38815  1.0000
  S   S196      1.0  0.61486  0.84476  0.43453  1.0000
  Fe  Fe103     1.0  0.62557  0.82880  0.31118  1.0000
  S   S197      1.0  0.61533  0.84679  0.26383  1.0000
  S   S198      1.0  0.64701  0.79789  0.38945  1.0000
  S   S199      1.0  0.64611  0.79917  0.30748  1.0000
  Fe  Fe104     1.0  0.82534  0.82299  0.35165  1.0000
  S   S200      1.0  0.85810  0.83797  0.34846  1.0000
  S   S201      1.0  0.81554  0.78857  0.34429  1.0000
  Fe  Fe105     1.0  0.80321  0.86560  0.36239  1.0000
  S   S202      1.0  0.83417  0.88428  0.35994  1.0000
  S   S203      1.0  0.76991  0.87963  0.36828  1.0000
  Fe  Fe106     1.0  0.84280  0.86365  0.31613  1.0000
  S   S204      1.0  0.85622  0.87043  0.26359  1.0000
  Fe  Fe107     1.0  0.84672  0.85718  0.39251  1.0000
  S   S205      1.0  0.86879  0.86403  0.43588  1.0000
  S   S206      1.0  0.81089  0.84705  0.31690  1.0000
  S   S207      1.0  0.81504  0.84021  0.39765  1.0000
  C   C1393     1.0  0.50575  0.74558  0.03752  1.0000
  Fe  Fe108     1.0  0.87372  0.95620  0.04507  1.0000
  S   S208      1.0  0.88583  0.97365  0.08946  1.0000
  C   C1394     1.0  0.65065  0.70217  0.44704  1.0000
  Fe  Fe109     1.0  0.85467  0.96288  0.11463  1.0000
  S   S209      1.0  0.84918  0.95438  0.16994  1.0000
  S   S210      1.0  0.84430  0.94295  0.07159  1.0000
  Fe  Fe110     1.0  0.52897  0.83376  0.11209  1.0000
  S   S211      1.0  0.54702  0.82780  0.06409  1.0000
  S   S212      1.0  0.54218  0.82048  0.16132  1.0000
  C   C1395     1.0  0.95002  0.72711  0.10445  1.0000
  Fe  Fe111     1.0  0.53305  0.85937  0.04734  1.0000
  H   H1103     1.0  0.57453  0.75295  0.05527  1.0000
  S   S213      1.0  0.51728  0.86693  0.09657  1.0000
  H   H1104     1.0  0.59021  0.86399  0.48508  1.0000
  C   C1396     1.0  0.58655  0.89025  0.02716  1.0000
  C   C1397     1.0  0.60652  0.90075  0.02407  1.0000
  H   H1105     1.0  0.58482  0.87621  0.04306  1.0000
  H   H1106     1.0  0.62013  0.89484  0.03789  1.0000
  H   H1107     1.0  0.67759  0.66110  0.24225  1.0000
  C   C1398     1.0  0.91844  0.88481  0.03297  1.0000
  C   C1399     1.0  0.90723  0.90446  0.03298  1.0000
  H   H1108     1.0  0.91695  0.87397  0.05407  1.0000
  H   H1109     1.0  0.89711  0.90871  0.05395  1.0000
  H   H1110     1.0  0.79329  0.92854  0.09653  1.0000
  C   C1400     1.0  0.60991  0.77083  0.43490  1.0000
  C   C1401     1.0  0.57614  0.68115  0.05486  1.0000
  H   H1111     1.0  0.67326  0.92746  0.06379  1.0000
  C   C1402     1.0  0.88988  0.80844  0.43146  1.0000
  C   C1403     1.0  0.85336  0.89374  0.23766  1.0000
  C   C1404     1.0  0.86028  0.89293  0.20425  1.0000
  C   C1405     1.0  0.85902  0.91117  0.18306  1.0000
  C   C1406     1.0  0.85101  0.93061  0.19512  1.0000
  C   C1407     1.0  0.84397  0.93135  0.22845  1.0000
  C   C1408     1.0  0.84495  0.91305  0.24950  1.0000
  H   H1112     1.0  0.86689  0.87815  0.19477  1.0000
  H   H1113     1.0  0.86454  0.91028  0.15757  1.0000
  H   H1114     1.0  0.83784  0.94628  0.23812  1.0000
  H   H1115     1.0  0.83962  0.91403  0.27507  1.0000
  C   C1409     1.0  0.57320  0.73332  0.16428  1.0000
  H   H1116     1.0  0.96721  0.74618  0.23617  1.0000
  C   C1410     1.0  0.68034  0.67681  0.44386  1.0000
  H   H1117     1.0  0.75532  0.82026  0.42709  1.0000
  C   C1411     1.0  0.59524  0.83895  0.23518  1.0000
  C   C1412     1.0  0.59134  0.85200  0.20706  1.0000
  C   C1413     1.0  0.57536  0.84660  0.18404  1.0000
  C   C1414     1.0  0.56298  0.82803  0.18889  1.0000
  C   C1415     1.0  0.56712  0.81482  0.21672  1.0000
  C   C1416     1.0  0.58311  0.82020  0.23969  1.0000
  H   H1118     1.0  0.60057  0.86655  0.20326  1.0000
  H   H1119     1.0  0.57241  0.85695  0.16283  1.0000
  H   H1120     1.0  0.55770  0.80042  0.22079  1.0000
  H   H1121     1.0  0.58585  0.80997  0.26111  1.0000
  C   C1417     1.0  0.71968  0.82725  0.35491  1.0000
  C   C1418     1.0  0.71301  0.84834  0.36063  1.0000
  C   C1419     1.0  0.72846  0.86459  0.36420  1.0000
  C   C1420     1.0  0.75049  0.85968  0.36237  1.0000
  C   C1421     1.0  0.75700  0.83862  0.35649  1.0000
  C   C1422     1.0  0.74165  0.82253  0.35256  1.0000
  H   H1122     1.0  0.69604  0.85210  0.36247  1.0000
  H   H1123     1.0  0.72338  0.88090  0.36854  1.0000
  H   H1124     1.0  0.77389  0.83460  0.35531  1.0000
  H   H1125     1.0  0.74685  0.80631  0.34792  1.0000
  C   C1423     1.0  0.66437  0.70195  0.32732  1.0000
  C   C1424     1.0  0.64347  0.69589  0.33683  1.0000
  C   C1425     1.0  0.62789  0.71158  0.34388  1.0000
  C   C1426     1.0  0.63323  0.73336  0.34203  1.0000
  C   C1427     1.0  0.65436  0.73944  0.33380  1.0000
  C   C1428     1.0  0.66984  0.72375  0.32611  1.0000
  H   H1126     1.0  0.63912  0.67917  0.33808  1.0000
  H   H1127     1.0  0.61162  0.70683  0.35049  1.0000
  H   H1128     1.0  0.65868  0.75622  0.33270  1.0000
  H   H1129     1.0  0.68600  0.72854  0.31890  1.0000
  C   C1429     1.0  0.86553  0.73611  0.36307  1.0000
  C   C1430     1.0  0.84458  0.73087  0.35402  1.0000
  C   C1431     1.0  0.82941  0.74716  0.34836  1.0000
  C   C1432     1.0  0.83517  0.76874  0.35114  1.0000
  C   C1433     1.0  0.85624  0.77404  0.35951  1.0000
  C   C1434     1.0  0.87136  0.75771  0.36565  1.0000
  H   H1130     1.0  0.84010  0.71427  0.35139  1.0000
  H   H1131     1.0  0.81317  0.74307  0.34167  1.0000
  H   H1132     1.0  0.86085  0.79066  0.36166  1.0000
  H   H1133     1.0  0.88760  0.76179  0.37231  1.0000
  C   C1435     1.0  0.92180  0.69366  0.08902  1.0000
  C   C1436     1.0  0.83451  0.69846  0.25438  1.0000
  C   C1437     1.0  0.70022  0.87650  0.44715  1.0000
  C   C1438     1.0  0.55963  0.72643  0.19050  1.0000
  C   C1439     1.0  0.83989  0.74277  0.25990  1.0000
  C   C1440     1.0  0.85705  0.73016  0.24796  1.0000
  C   C1441     1.0  0.85420  0.70790  0.24538  1.0000
  P   P48       1.0  0.88267  0.74213  0.23643  1.0000
  C   C1442     1.0  0.88400  0.76870  0.25381  1.0000
  C   C1443     1.0  0.90363  0.72509  0.25298  1.0000
  C   C1444     1.0  0.90119  0.71596  0.28481  1.0000
  C   C1445     1.0  0.91673  0.70185  0.29721  1.0000
  C   C1446     1.0  0.93474  0.69656  0.27782  1.0000
  C   C1447     1.0  0.93736  0.70561  0.24613  1.0000
  C   C1448     1.0  0.92191  0.71986  0.23373  1.0000
  C   C1449     1.0  0.89318  0.77196  0.28492  1.0000
  C   C1450     1.0  0.89371  0.79253  0.29826  1.0000
  C   C1451     1.0  0.88510  0.80997  0.28073  1.0000
  C   C1452     1.0  0.87557  0.80682  0.25012  1.0000
  C   C1453     1.0  0.87489  0.78627  0.23675  1.0000
  C   C1454     1.0  0.88600  0.74378  0.19183  1.0000
  C   C1455     1.0  0.87656  0.72850  0.17140  1.0000
  C   C1456     1.0  0.88027  0.72923  0.13711  1.0000
  C   C1457     1.0  0.89337  0.74521  0.12294  1.0000
  C   C1458     1.0  0.90284  0.76044  0.14308  1.0000
  C   C1459     1.0  0.89941  0.75959  0.17740  1.0000
  H   H1134     1.0  0.83253  0.68121  0.25303  1.0000
  C   C1460     1.0  0.62128  0.73765  0.46177  1.0000
  H   H1135     1.0  0.61863  0.79999  0.45891  1.0000
  H   H1136     1.0  0.84165  0.75988  0.26304  1.0000
  H   H1137     1.0  0.86733  0.69773  0.23703  1.0000
  H   H1138     1.0  0.88711  0.71954  0.29995  1.0000
  H   H1139     1.0  0.91458  0.69471  0.32173  1.0000
  H   H1140     1.0  0.94642  0.68510  0.28712  1.0000
  H   H1141     1.0  0.95108  0.70103  0.23082  1.0000
  H   H1142     1.0  0.92413  0.72637  0.20895  1.0000
  H   H1143     1.0  0.89962  0.75870  0.29927  1.0000
  H   H1144     1.0  0.90047  0.79491  0.32249  1.0000
  H   H1145     1.0  0.88553  0.82595  0.29096  1.0000
  H   H1146     1.0  0.86855  0.82041  0.23703  1.0000
  H   H1147     1.0  0.86708  0.78408  0.21326  1.0000
  H   H1148     1.0  0.86659  0.71582  0.18174  1.0000
  H   H1149     1.0  0.87322  0.71720  0.12152  1.0000
  H   H1150     1.0  0.89642  0.74557  0.09641  1.0000
  H   H1151     1.0  0.91298  0.77283  0.13215  1.0000
  H   H1152     1.0  0.90742  0.77115  0.19267  1.0000
  S   S214      1.0  0.89577  0.94344  0.00456  1.0000
  H   H1153     1.0  0.94522  0.80457  0.18985  1.0000
  H   H1154     1.0  0.79392  0.69177  0.45187  1.0000
  C   C1461     1.0  0.94895  0.79244  0.04608  1.0000
  C   C1462     1.0  0.69357  0.80161  0.44682  1.0000
  H   H1155     1.0  0.68835  0.71849  0.38976  1.0000
  H   H1156     1.0  0.74241  0.66228  0.40288  1.0000
  H   H1157     1.0  0.59596  0.72471  0.25291  1.0000
  C   C1463     1.0  0.95533  0.77618  0.21650  1.0000
  C   C1464     1.0  0.73595  0.78075  0.14120  1.0000
  C   C1465     1.0  0.73969  0.80749  0.19571  1.0000
  C   C1466     1.0  0.72749  0.78858  0.19875  1.0000
  C   C1467     1.0  0.72542  0.77538  0.17111  1.0000
  P   P49       1.0  0.71404  0.78240  0.23770  1.0000
  C   C1468     1.0  0.73324  0.77692  0.26998  1.0000
  C   C1469     1.0  0.69804  0.80594  0.24622  1.0000
  C   C1470     1.0  0.70436  0.82052  0.27029  1.0000
  C   C1471     1.0  0.69174  0.83861  0.27691  1.0000
  C   C1472     1.0  0.67286  0.84234  0.25935  1.0000
  C   C1473     1.0  0.66702  0.82845  0.23423  1.0000
  C   C1474     1.0  0.67974  0.81048  0.22730  1.0000
  C   C1475     1.0  0.72574  0.76943  0.30105  1.0000
  C   C1476     1.0  0.74026  0.76406  0.32600  1.0000
  C   C1477     1.0  0.76237  0.76632  0.32020  1.0000
  C   C1478     1.0  0.76999  0.77389  0.28948  1.0000
  C   C1479     1.0  0.75554  0.77887  0.26423  1.0000
  C   C1480     1.0  0.69777  0.75835  0.23679  1.0000
  C   C1481     1.0  0.70773  0.73858  0.23015  1.0000
  C   C1482     1.0  0.69600  0.71946  0.23285  1.0000
  C   C1483     1.0  0.67429  0.71991  0.24241  1.0000
  C   C1484     1.0  0.66429  0.73945  0.24935  1.0000
  C   C1485     1.0  0.67601  0.75855  0.24703  1.0000
  H   H1158     1.0  0.73435  0.77052  0.11993  1.0000
  H   H1159     1.0  0.74107  0.81813  0.21655  1.0000
  H   H1160     1.0  0.71555  0.76112  0.17234  1.0000
  H   H1161     1.0  0.71878  0.81777  0.28448  1.0000
  H   H1162     1.0  0.69632  0.84948  0.29622  1.0000
  H   H1163     1.0  0.66261  0.85588  0.26537  1.0000
  H   H1164     1.0  0.65227  0.83137  0.22081  1.0000
  H   H1165     1.0  0.67494  0.79982  0.20784  1.0000
  H   H1166     1.0  0.70859  0.76794  0.30616  1.0000
  H   H1167     1.0  0.73426  0.75869  0.35007  1.0000
  H   H1168     1.0  0.77367  0.76254  0.33960  1.0000
  H   H1169     1.0  0.78715  0.77607  0.28551  1.0000
  H   H1170     1.0  0.76195  0.78422  0.24051  1.0000
  H   H1171     1.0  0.72475  0.73789  0.22400  1.0000
  H   H1172     1.0  0.70390  0.70421  0.22873  1.0000
  H   H1173     1.0  0.66546  0.70504  0.24595  1.0000
  H   H1174     1.0  0.64775  0.73971  0.25842  1.0000
  H   H1175     1.0  0.66818  0.77317  0.25476  1.0000
  H   H1176     1.0  0.74521  0.87013  0.43289  1.0000
  H   H1177     1.0  0.93375  0.79898  0.03777  1.0000
  H   H1178     1.0  0.64079  0.82687  0.00908  1.0000
  C   C1486     1.0  0.59135  0.66480  0.18991  1.0000
  H   H1179     1.0  0.51222  0.94189  0.11716  1.0000
  H   H1180     1.0  0.70553  0.68453  0.40840  1.0000
  C   C1487     1.0  0.82147  0.79236  0.44670  1.0000
  Fe  Fe112     1.0  0.98412  0.66109  0.04605  1.0000
  C   C1488     1.0  0.61125  0.74847  0.43548  1.0000
  C   C1489     1.0  0.58311  0.70384  0.43394  1.0000
  H   H1181     1.0  0.56277  0.66911  0.37818  1.0000
  C   C1490     1.0  0.88380  0.74774  0.47833  1.0000
  S   S215      1.0  0.80385  0.66047  0.30799  1.0000
  H   H1182     1.0  0.97569  0.89701  0.00892  1.0000
  C   C1491     1.0  0.68083  0.70885  0.40926  1.0000
  H   H1183     1.0  0.74071  0.80282  0.47838  1.0000
  C   C1492     1.0  0.79335  0.82564  0.24705  1.0000
  H   H1184     1.0  0.77695  0.79903  0.38715  1.0000
  H   H1185     1.0  0.68738  0.66157  0.45108  1.0000
  C   C1493     1.0  0.58873  0.79870  0.11504  1.0000
  H   H1186     1.0  0.78287  0.76051  0.39682  1.0000
  C   C1494     1.0  0.52551  0.76287  0.13510  1.0000
  H   H1187     1.0  0.74446  0.90351  0.16258  1.0000
  H   H1188     1.0  0.75989  0.82724  0.16393  1.0000
  C   C1495     1.0  0.82006  0.69879  0.48396  1.0000
  C   C1496     1.0  0.70729  0.90929  0.25258  1.0000
  H   H1189     1.0  0.59941  0.81591  0.07120  1.0000
  C   C1497     1.0  0.98771  0.90915  0.00314  1.0000
  C   C1498     1.0  0.74773  0.71322  0.39240  1.0000
  C   C1499     1.0  0.96291  0.96218  0.03896  1.0000
  C   C1500     1.0  0.74780  0.70418  0.36089  1.0000
  H   H1190     1.0  0.55152  0.69471  0.02391  1.0000
  C   C1501     1.0  0.68084  0.87103  0.43182  1.0000
  S   S216      1.0  0.54434  0.88398  0.00898  1.0000
  C   C1502     1.0  0.75028  0.81275  0.16588  1.0000
  C   C1503     1.0  0.76719  0.71858  0.40757  1.0000
  P   P50       1.0  0.88153  0.77665  0.47924  1.0000
  S   S217      1.0  0.63458  0.93057  0.99790  1.0000
  C   C1504     1.0  0.74845  0.79936  0.13863  1.0000
  H   H1191     1.0  0.79965  0.81003  0.25404  1.0000
  H   H1192     1.0  0.60224  0.77902  0.41430  1.0000
  C   C1505     1.0  0.77827  0.86710  0.23162  1.0000
  C   C1506     1.0  0.78670  0.71518  0.39025  1.0000
  H   H1193     1.0  0.80196  0.71965  0.40079  1.0000
  H   H1194     1.0  0.49715  0.97704  0.25020  1.0000
  C   C1507     1.0  0.98112  0.97541  0.03794  1.0000
  P   P51       1.0  0.76706  0.73040  0.44832  1.0000
  C   C1508     1.0  0.76424  0.75911  0.44269  1.0000
  C   C1509     1.0  0.50190  0.72326  0.03596  1.0000
  C   C1510     1.0  0.59297  0.80095  0.08109  1.0000
  H   H1195     1.0  0.75663  0.80348  0.11547  1.0000
  H   H1196     1.0  0.69933  0.92099  0.26816  1.0000
  C   C1511     1.0  0.94013  0.71476  0.12979  1.0000
  S   S218      1.0  0.50381  0.84374  0.02701  1.0000
  H   H1197     1.0  0.96379  0.94599  0.02960  1.0000
  H   H1198     1.0  0.67777  0.89337  0.24012  1.0000
  H   H1199     1.0  0.59036  0.78638  0.03329  1.0000
  H   H1200     1.0  0.59173  0.81194  0.13148  1.0000
  C   C1512     1.0  0.71026  0.89599  0.43842  1.0000
  H   H1201     1.0  0.76548  0.82315  0.27944  1.0000
  H   H1202     1.0  0.57585  0.77871  0.15407  1.0000
  C   C1513     1.0  0.58787  0.78432  0.05977  1.0000
  C   C1514     1.0  0.87338  0.71364  0.45496  1.0000
  C   C1515     1.0  0.56789  0.72318  0.22226  1.0000
  C   C1516     1.0  0.96816  0.80035  0.03229  1.0000
  C   C1517     1.0  0.57966  0.77975  0.12778  1.0000
  H   H1203     1.0  0.82080  0.83385  0.21608  1.0000
  S   S219      1.0  0.86589  0.67207  0.31089  1.0000
  C   C1518     1.0  0.57877  0.76532  0.07242  1.0000
  H   H1204     1.0  0.52476  0.91305  0.07975  1.0000
  C   C1519     1.0  0.80527  0.83906  0.22567  1.0000
  C   C1520     1.0  0.76730  0.70052  0.34420  1.0000
  C   C1521     1.0  0.78405  0.85258  0.48489  1.0000
  C   C1522     1.0  0.79897  0.93903  0.30062  1.0000
  Fe  Fe113     1.0  0.82679  0.97262  0.05339  1.0000
  H   H1205     1.0  0.57764  0.97293  0.01529  1.0000
  C   C1523     1.0  0.74013  0.89444  0.22862  1.0000
  C   C1524     1.0  0.77410  0.83300  0.26128  1.0000
  C   C1525     1.0  0.78670  0.70598  0.35886  1.0000
  C   C1526     1.0  0.60906  0.91855  0.00258  1.0000
  C   C1527     1.0  0.51309  0.92478  0.07128  1.0000
  C   C1528     1.0  0.87158  0.86001  0.47953  1.0000
  H   H1206     1.0  0.73243  0.71601  0.40461  1.0000
  C   C1529     1.0  0.77322  0.76934  0.41453  1.0000
  H   H1207     1.0  0.78441  0.86662  0.43574  1.0000
  C   C1530     1.0  0.77451  0.86149  0.45675  1.0000
  C   C1531     1.0  0.68176  0.95569  0.03533  1.0000
  C   C1532     1.0  0.68273  0.90335  0.39788  1.0000
  H   H1208     1.0  0.73274  0.69991  0.34937  1.0000
  C   C1533     1.0  0.50613  0.94110  0.09220  1.0000
  C   C1534     1.0  0.95587  0.77982  0.15661  1.0000
  C   C1535     1.0  0.60455  0.69658  0.43447  1.0000
  C   C1536     1.0  0.61917  0.78264  0.46004  1.0000
  H   H1209     1.0  0.76743  0.69333  0.31993  1.0000
  C   C1537     1.0  0.74970  0.79341  0.46052  1.0000
  H   H1210     1.0  0.80621  0.94942  0.31857  1.0000
  Fe  Fe114     1.0  0.51642  0.81245  0.04707  1.0000
  C   C1538     1.0  0.77038  0.97303  0.01201  1.0000
  C   C1539     1.0  0.59561  0.66940  0.39441  1.0000
  H   H1211     1.0  0.67600  0.91364  0.37879  1.0000
  C   C1540     1.0  0.91763  0.80620  0.38884  1.0000
  C   C1541     1.0  0.57476  0.76279  0.10662  1.0000
  C   C1542     1.0  0.79783  0.85971  0.21804  1.0000
  S   S220      1.0  0.97677  0.69216  0.01613  1.0000
  H   H1212     1.0  0.50983  0.91012  0.02408  1.0000
  H   H1213     1.0  0.53603  0.77644  0.13854  1.0000
  C   C1543     1.0  0.98893  0.71720  0.00419  1.0000
  H   H1214     1.0  0.55013  0.79896  0.44680  1.0000
  H   H1215     1.0  0.75227  0.85938  0.26646  1.0000
  H   H1216     1.0  0.92070  0.67361  0.20070  1.0000
  H   H1217     1.0  0.80780  0.86998  0.20240  1.0000
  H   H1218     1.0  0.95192  0.78284  0.24069  1.0000
  C   C1544     1.0  0.84274  0.78522  0.44818  1.0000
  C   C1545     1.0  0.59518  0.73656  0.17023  1.0000
  H   H1219     1.0  0.86346  0.70464  0.43827  1.0000
  H   H1220     1.0  0.66276  0.85907  0.02062  1.0000
  C   C1546     1.0  0.76667  0.85368  0.25385  1.0000
  P   P52       1.0  0.56259  0.73852  0.12345  1.0000
  C   C1547     1.0  0.70541  0.87848  0.21699  1.0000
  C   C1548     1.0  0.92599  0.69821  0.12204  1.0000
  C   C1549     1.0  0.55679  0.71394  0.06699  1.0000
  H   H1221     1.0  0.54477  0.72570  0.05995  1.0000
  H   H1222     1.0  0.80732  0.74289  0.27902  1.0000
  C   C1550     1.0  0.88942  0.70317  0.47294  1.0000
  C   C1551     1.0  0.67220  0.88439  0.40727  1.0000
  H   H1223     1.0  0.60591  0.74196  0.15039  1.0000
  C   C1552     1.0  0.69053  0.68973  0.41978  1.0000
  H   H1224     1.0  0.89181  0.68605  0.47048  1.0000
  P   P53       1.0  0.96970  0.74748  0.11357  1.0000
  C   C1553     1.0  0.96402  0.75887  0.15378  1.0000
  C   C1554     1.0  0.81760  0.71108  0.26636  1.0000
  H   H1225     1.0  0.79731  0.91184  0.33408  1.0000
  C   C1555     1.0  0.78100  0.91172  0.25382  1.0000
  H   H1226     1.0  0.65711  0.88014  0.39593  1.0000
  C   C1556     1.0  0.76996  0.79129  0.40902  1.0000
  H   H1227     1.0  0.81048  0.90736  0.19416  1.0000
  H   H1228     1.0  0.79471  0.75545  0.49217  1.0000
  C   C1557     1.0  0.94548  0.72257  0.07133  1.0000
  C   C1558     1.0  0.80421  0.91787  0.14444  1.0000
  C   C1559     1.0  0.93182  0.87929  0.00602  1.0000
  C   C1560     1.0  0.61065  0.67929  0.41448  1.0000
  C   C1561     1.0  0.56828  0.71618  0.09644  1.0000
  H   H1229     1.0  0.92907  0.70181  0.03799  1.0000
  H   H1230     1.0  0.60427  0.67641  0.23557  1.0000
  C   C1562     1.0  0.98845  0.77595  0.06715  1.0000
  C   C1563     1.0  0.57438  0.67682  0.39381  1.0000
  C   C1564     1.0  0.70170  0.90920  0.41355  1.0000
  C   C1565     1.0  0.79830  0.90916  0.17540  1.0000
  H   H1231     1.0  0.79858  0.96318  0.26189  1.0000
  H   H1232     1.0  0.72077  0.74047  0.44898  1.0000
  H   H1233     1.0  0.70625  0.83099  0.42634  1.0000
  C   C1566     1.0  0.51953  0.72537  0.12347  1.0000
  H   H1234     1.0  0.65312  0.72934  0.41296  1.0000
  C   C1567     1.0  0.68654  0.79064  0.47543  1.0000
  H   H1235     1.0  0.74989  0.94663  0.02701  1.0000
  H   H1236     1.0  0.94366  0.71725  0.15547  1.0000
  H   H1237     1.0  0.85096  0.78073  0.42552  1.0000
  H   H1238     1.0  0.70974  0.92404  0.40657  1.0000
  H   H1239     1.0  0.69598  0.86633  0.20496  1.0000
  C   C1568     1.0  0.75796  0.80328  0.43172  1.0000
  H   H1240     1.0  0.91172  0.68013  0.08307  1.0000
  C   C1569     1.0  0.68938  0.97487  0.09615  1.0000
  H   H1241     1.0  0.69346  0.79380  0.42297  1.0000
  S   S221      1.0  0.79200  0.96408  0.03787  1.0000
  C   C1570     1.0  0.70027  0.83340  0.47919  1.0000
  H   H1242     1.0  0.82079  0.92248  0.13944  1.0000
  H   H1243     1.0  0.57913  0.66768  0.03869  1.0000
  C   C1571     1.0  0.53380  0.74267  0.12670  1.0000
  C   C1572     1.0  0.85350  0.78448  0.47844  1.0000
  H   H1244     1.0  0.81366  0.79330  0.42292  1.0000
  C   C1573     1.0  0.54543  0.77890  0.49036  1.0000
  C   C1574     1.0  0.58773  0.68324  0.08403  1.0000
  H   H1245     1.0  0.85851  0.74360  0.44251  1.0000
  C   C1575     1.0  0.56903  0.89770  0.00898  1.0000
  S   S222      1.0  0.49845  0.81736  0.09532  1.0000
  H   H1246     1.0  0.58171  0.81762  0.46905  1.0000
  H   H1247     1.0  0.68995  0.72543  0.48072  1.0000
  H   H1248     1.0  0.54632  0.96689  0.05323  1.0000
  H   H1249     1.0  0.62024  0.73631  0.20663  1.0000
  C   C1576     1.0  0.72971  0.90971  0.24848  1.0000
  H   H1250     1.0  0.93445  0.77013  0.08069  1.0000
  C   C1577     1.0  0.93147  0.70591  0.06368  1.0000
  H   H1251     1.0  0.67866  0.94834  0.01171  1.0000
  C   C1578     1.0  0.49732  0.72848  0.12738  1.0000
  C   C1579     1.0  0.76724  0.91582  0.12695  1.0000
  H   H1252     1.0  0.92910  0.95981  0.05130  1.0000
  C   C1580     1.0  0.75295  0.77144  0.46616  1.0000
  H   H1253     1.0  0.55168  0.69983  0.41300  1.0000
  C   C1581     1.0  0.87061  0.73583  0.45749  1.0000
  C   C1582     1.0  0.58384  0.70068  0.10478  1.0000
  H   H1254     1.0  0.95355  0.73120  0.05127  1.0000
  C   C1583     1.0  0.66087  0.71500  0.42261  1.0000
  C   C1584     1.0  0.69514  0.89371  0.23682  1.0000
  C   C1585     1.0  0.95148  0.78838  0.18786  1.0000
  C   C1586     1.0  0.79461  0.94677  0.26876  1.0000
  H   H1255     1.0  0.59974  0.67133  0.09050  1.0000
  C   C1587     1.0  0.91193  0.77645  0.42735  1.0000
  C   C1588     1.0  0.94945  0.77624  0.07045  1.0000
  C   C1589     1.0  0.75123  0.96091  0.01158  1.0000
  S   S223      1.0  0.84023  0.67113  0.38369  1.0000
  H   H1256     1.0  0.59300  0.70194  0.12719  1.0000
  H   H1257     1.0  0.75523  0.91880  0.10824  1.0000
  H   H1258     1.0  0.90728  0.81538  0.49202  1.0000
  C   C1590     1.0  0.94328  0.96996  0.05115  1.0000
  C   C1591     1.0  0.61923  0.84561  0.47803  1.0000
  H   H1259     1.0  0.78230  0.93962  0.22096  1.0000
  H   H1260     1.0  0.78156  0.88777  0.29343  1.0000
  P   P54       1.0  0.76912  0.89428  0.22382  1.0000
  H   H1261     1.0  0.96781  0.81281  0.01330  1.0000
  C   C1592     1.0  0.57387  0.80506  0.48369  1.0000
  C   C1593     1.0  0.60338  0.73331  0.20202  1.0000
  S   S224      1.0  0.52029  0.78467  0.01028  1.0000
  C   C1594     1.0  0.50471  0.92323  0.03950  1.0000
  C   C1595     1.0  0.55598  0.79461  0.47119  1.0000
  H   H1262     1.0  0.91905  0.68822  0.14163  1.0000
  H   H1263     1.0  0.73881  0.92184  0.26107  1.0000
  C   C1596     1.0  0.56065  0.69646  0.04641  1.0000
  C   C1597     1.0  0.68290  0.95340  0.09514  1.0000
  C   C1598     1.0  0.67881  0.94391  0.06473  1.0000
  C   C1599     1.0  0.63030  0.74968  0.48727  1.0000
  C   C1600     1.0  0.70065  0.82281  0.44873  1.0000
  C   C1601     1.0  0.54597  0.97994  0.03517  1.0000
  C   C1602     1.0  0.56814  0.69407  0.41351  1.0000
  C   C1603     1.0  0.72359  0.72790  0.46727  1.0000
  H   H1264     1.0  0.80257  0.70359  0.27413  1.0000
  S   S225      1.0  0.85566  0.98435  0.02406  1.0000
  H   H1265     1.0  0.98864  0.70988  0.08055  1.0000
  C   C1604     1.0  0.58972  0.72673  0.22808  1.0000
  H   H1266     1.0  0.58428  0.68011  0.18301  1.0000
  H   H1267     1.0  0.55726  0.71833  0.24258  1.0000
  H   H1268     1.0  0.52546  0.70948  0.11782  1.0000
  H   H1269     1.0  0.91641  0.76052  0.43582  1.0000
  H   H1270     1.0  0.93580  0.77670  0.38802  1.0000
  C   C1605     1.0  0.82027  0.73321  0.26904  1.0000
  C   C1606     1.0  0.80166  0.73964  0.48944  1.0000
  C   C1607     1.0  0.75214  0.86385  0.45546  1.0000
  C   C1608     1.0  0.90108  0.81760  0.40450  1.0000
  C   C1609     1.0  0.78554  0.93324  0.24548  1.0000
  H   H1271     1.0  0.54261  0.72392  0.18670  1.0000
  P   P55       1.0  0.62384  0.70875  0.46153  1.0000
  H   H1272     1.0  0.89704  0.83371  0.39612  1.0000
  H   H1273     1.0  0.89846  0.88169  0.47963  1.0000
  C   C1610     1.0  0.92301  0.78560  0.40018  1.0000
  C   C1611     1.0  0.80128  0.70388  0.46682  1.0000
  H   H1274     1.0  0.80179  0.70290  0.34586  1.0000
  C   C1612     1.0  0.79411  0.91779  0.30928  1.0000
  H   H1275     1.0  0.67196  0.85677  0.43927  1.0000
  C   C1613     1.0  0.78518  0.90415  0.28602  1.0000
  C   C1614     1.0  0.72782  0.87877  0.21300  1.0000
  H   H1276     1.0  0.73558  0.86675  0.19779  1.0000
  C   C1615     1.0  0.89527  0.78783  0.44319  1.0000
  C   C1616     1.0  0.77677  0.90361  0.18247  1.0000
  S   S226      1.0  0.94600  0.85476  0.00702  1.0000
  C   C1617     1.0  0.66040  0.68287  0.45723  1.0000
  H   H1277     1.0  0.92635  0.81342  0.36807  1.0000
  H   H1278     1.0  0.72458  0.90111  0.45102  1.0000
  H   H1279     1.0  0.60482  0.73977  0.41492  1.0000
  H   H1280     1.0  0.87731  0.81767  0.44358  1.0000
  C   C1618     1.0  0.76126  0.90704  0.15789  1.0000
  C   C1619     1.0  0.78870  0.92129  0.12026  1.0000
  H   H1281     1.0  0.78200  0.66546  0.39651  1.0000
  H   H1282     1.0  0.53123  0.77116  0.48092  1.0000
  C   C1620     1.0  0.90927  0.91857  0.00588  1.0000
  C   C1621     1.0  0.51628  0.75630  0.01121  1.0000
  H   H1283     1.0  0.57797  0.71702  0.44935  1.0000
  H   H1284     1.0  0.62697  0.67318  0.41433  1.0000
  H   H1285     1.0  0.68080  0.94419  0.11792  1.0000
  H   H1286     1.0  0.50020  0.75455  0.05875  1.0000
  H   H1287     1.0  0.65217  0.67201  0.47437  1.0000
  H   H1288     1.0  0.80143  0.85077  0.48560  1.0000
  H   H1289     1.0  0.49717  0.78153  0.14599  1.0000
  H   H1290     1.0  0.73381  0.98679  0.08824  1.0000
  C   C1622     1.0  0.74449  0.71990  0.47245  1.0000
  H   H1291     1.0  0.90305  0.66257  0.25392  1.0000
  C   C1623     1.0  0.79203  0.72441  0.46913  1.0000
  H   H1292     1.0  0.95302  0.78972  0.13487  1.0000
  C   C1624     1.0  0.50333  0.76585  0.13938  1.0000
  C   C1625     1.0  0.70605  0.71945  0.48525  1.0000
  H   H1293     1.0  0.82719  0.68295  0.48190  1.0000
  C   C1626     1.0  0.94184  0.99097  0.06249  1.0000
  C   C1627     1.0  0.50885  0.71126  0.00848  1.0000
  S   S227      1.0  0.50366  0.68307  0.00822  1.0000
  C   C1628     1.0  0.56357  0.98325  0.01373  1.0000
  H   H1294     1.0  0.79432  0.80475  0.47420  1.0000
  C   C1629     1.0  0.73913  0.85793  0.48281  1.0000
  C   C1630     1.0  0.68832  0.97710  0.03627  1.0000
  C   C1631     1.0  0.96391  0.75553  0.21394  1.0000
  H   H1295     1.0  0.97528  0.73099  0.18119  1.0000
  H   H1296     1.0  0.84575  0.83748  0.48811  1.0000
  P   P56       1.0  0.71015  0.86050  0.48141  1.0000
  C   C1632     1.0  0.62928  0.77210  0.48629  1.0000
  C   C1633     1.0  0.65154  0.85930  0.00033  1.0000
  H   H1297     1.0  0.64885  0.82756  0.47975  1.0000
  H   H1298     1.0  0.68076  0.77432  0.47374  1.0000
  H   H1299     1.0  0.74653  0.76411  0.48870  1.0000
  C   C1634     1.0  0.81066  0.79880  0.47550  1.0000
  H   H1300     1.0  0.51445  0.99015  0.04969  1.0000
  C   C1635     1.0  0.60259  0.66275  0.21953  1.0000
  C   C1636     1.0  0.96838  0.74694  0.18275  1.0000
  H   H1301     1.0  0.69251  0.98198  0.11989  1.0000
  C   C1637     1.0  0.98786  0.79211  0.04281  1.0000
  H   H1302     1.0  0.69075  0.98585  0.01315  1.0000
  S   S228      1.0  0.83639  0.99242  0.09732  1.0000
  C   C1638     1.0  0.88823  0.87118  0.49453  1.0000
  C   C1639     1.0  0.69158  0.98705  0.06668  1.0000
  H   H1303     1.0  0.71700  0.66009  0.25004  1.0000
  C   C1640     1.0  0.90283  0.71491  0.49331  1.0000
  H   H1304     1.0  0.77312  0.99146  0.08818  1.0000
  C   C1641     1.0  0.63688  0.83611  0.49415  1.0000
  S   S229      1.0  0.82720  0.67976  0.72997  1.0000
  Fe  Fe115     1.0  0.62172  0.67645  0.65786  1.0000
  C   C1642     1.0  0.85855  0.84633  0.49943  1.0000
  S   S230      1.0  0.60875  0.70949  0.64617  1.0000
  H   H1305     1.0  0.81548  0.76047  0.80994  1.0000
  C   C1643     1.0  0.58421  0.74106  0.84092  1.0000
  Fe  Fe116     1.0  0.67227  0.81399  0.67140  1.0000
  S   S231      1.0  0.64256  0.83371  0.68000  1.0000
  S   S232      1.0  0.67801  0.77901  0.68302  1.0000
  Fe  Fe117     1.0  0.69817  0.85232  0.64604  1.0000
  S   S233      1.0  0.67045  0.87531  0.65237  1.0000
  S   S234      1.0  0.73026  0.86057  0.62211  1.0000
  Fe  Fe118     1.0  0.66453  0.85859  0.70182  1.0000
  S   S235      1.0  0.66076  0.87042  0.75546  1.0000
  Fe  Fe119     1.0  0.65103  0.84860  0.62992  1.0000
  S   S236      1.0  0.62498  0.85352  0.59130  1.0000
  S   S237      1.0  0.69366  0.83730  0.69635  1.0000
  S   S238      1.0  0.67924  0.82717  0.62045  1.0000
  Fe  Fe120     1.0  0.86085  0.79078  0.65974  1.0000
  S   S239      1.0  0.89291  0.80722  0.65710  1.0000
  S   S240      1.0  0.85790  0.75773  0.63833  1.0000
  Fe  Fe121     1.0  0.83891  0.82990  0.68913  1.0000
  S   S241      1.0  0.86921  0.84936  0.68815  1.0000
  S   S242      1.0  0.80910  0.84189  0.71525  1.0000
  Fe  Fe122     1.0  0.87382  0.83523  0.63695  1.0000
  S   S243      1.0  0.88514  0.85500  0.59198  1.0000
  Fe  Fe123     1.0  0.88531  0.81949  0.70826  1.0000
  S   S244      1.0  0.90336  0.81237  0.75639  1.0000
  S   S245      1.0  0.84226  0.81804  0.63701  1.0000
  S   S246      1.0  0.85432  0.80090  0.71171  1.0000
  Fe  Fe124     1.0  0.97280  0.84900  0.96936  1.0000
  H   H1306     1.0  0.76331  0.69685  0.50075  1.0000
  C   C1644     1.0  0.59139  0.92622  0.98495  1.0000
  H   H1307     1.0  0.67023  0.71405  0.73703  1.0000
  S   S247      1.0  0.97784  0.85219  0.84422  1.0000
  S   S248      1.0  0.97189  0.82123  0.93434  1.0000
  H   H1308     1.0  0.89218  0.71390  0.70999  1.0000
  Fe  Fe125     1.0  0.64622  0.96796  0.88590  1.0000
  S   S249      1.0  0.66774  0.95176  0.92293  1.0000
  S   S250      1.0  0.64365  0.95884  0.83110  1.0000
  H   H1309     1.0  0.90098  0.72908  0.65517  1.0000
  C   C1645     1.0  0.65763  0.70815  0.75365  1.0000
  H   H1310     1.0  0.71852  0.71514  0.75157  1.0000
  S   S251      1.0  0.61731  0.97000  0.92078  1.0000
  H   H1311     1.0  0.75875  0.90183  0.63196  1.0000
  H   H1312     1.0  0.86981  0.69754  0.75196  1.0000
  H   H1313     1.0  0.53595  0.68280  0.69502  1.0000
  C   C1646     1.0  0.49835  0.94614  0.95608  1.0000
  C   C1647     1.0  0.84245  0.79072  0.50743  1.0000
  C   C1648     1.0  0.75262  0.92413  0.72075  1.0000
  C   C1649     1.0  0.80303  0.94757  0.63271  1.0000
  H   H1314     1.0  0.59821  0.86718  0.84218  1.0000
  C   C1650     1.0  0.51823  0.95458  0.96549  1.0000
  H   H1315     1.0  0.97119  0.75113  0.81774  1.0000
  P   P57       1.0  0.89952  0.72934  0.77800  1.0000
  C   C1651     1.0  0.55635  0.81496  0.90901  1.0000
  C   C1652     1.0  0.55421  0.71232  0.75899  1.0000
  C   C1653     1.0  0.98477  0.75332  0.97946  1.0000
  H   H1316     1.0  0.91956  0.75403  0.88950  1.0000
  H   H1317     1.0  0.64989  0.88870  0.54884  1.0000
  H   H1318     1.0  0.92386  0.92363  0.95764  1.0000
  H   H1319     1.0  0.94360  0.88907  0.95773  1.0000
  C   C1654     1.0  0.66109  0.68961  0.77269  1.0000
  C   C1655     1.0  0.58036  0.92878  0.88769  1.0000
  C   C1656     1.0  0.96475  0.97543  0.95476  1.0000
  H   H1320     1.0  0.55556  0.70218  0.57746  1.0000
  C   C1657     1.0  0.92395  0.82406  0.78037  1.0000
  C   C1658     1.0  0.93391  0.84345  0.77146  1.0000
  C   C1659     1.0  0.95014  0.85196  0.79154  1.0000
  C   C1660     1.0  0.95648  0.84132  0.82087  1.0000
  C   C1661     1.0  0.94630  0.82207  0.82998  1.0000
  C   C1662     1.0  0.93027  0.81344  0.80970  1.0000
  H   H1321     1.0  0.92928  0.85179  0.74897  1.0000
  H   H1322     1.0  0.95796  0.86681  0.78421  1.0000
  H   H1323     1.0  0.95111  0.81363  0.85229  1.0000
  H   H1324     1.0  0.92279  0.79836  0.81672  1.0000
  H   H1325     1.0  0.68168  0.79229  0.52832  1.0000
  C   C1663     1.0  0.87904  0.85576  0.54882  1.0000
  C   C1664     1.0  0.86239  0.84406  0.53406  1.0000
  H   H1326     1.0  0.50389  0.86523  0.94744  1.0000
  H   H1327     1.0  0.85252  0.83342  0.54924  1.0000
  C   C1665     1.0  0.75221  0.85547  0.64799  1.0000
  C   C1666     1.0  0.77297  0.85365  0.63424  1.0000
  C   C1667     1.0  0.79058  0.84952  0.65477  1.0000
  C   C1668     1.0  0.78745  0.84728  0.68902  1.0000
  C   C1669     1.0  0.76678  0.84936  0.70273  1.0000
  C   C1670     1.0  0.74923  0.85362  0.68230  1.0000
  H   H1328     1.0  0.77542  0.85531  0.60774  1.0000
  H   H1329     1.0  0.80652  0.84791  0.64412  1.0000
  H   H1330     1.0  0.76428  0.84732  0.72914  1.0000
  H   H1331     1.0  0.73350  0.85589  0.69325  1.0000
  C   C1671     1.0  0.65692  0.89550  0.77562  1.0000
  C   C1672     1.0  0.65176  0.91441  0.75833  1.0000
  C   C1673     1.0  0.64788  0.93361  0.77567  1.0000
  C   C1674     1.0  0.64930  0.93428  0.81045  1.0000
  C   C1675     1.0  0.65484  0.91549  0.82766  1.0000
  C   C1676     1.0  0.65854  0.89624  0.81040  1.0000
  H   H1332     1.0  0.65034  0.91417  0.73166  1.0000
  H   H1333     1.0  0.64357  0.94803  0.76204  1.0000
  H   H1334     1.0  0.65597  0.91580  0.85429  1.0000
  H   H1335     1.0  0.66257  0.88179  0.82414  1.0000
  C   C1677     1.0  0.98605  0.92183  0.97443  1.0000
  C   C1678     1.0  0.60604  0.85847  0.53139  1.0000
  C   C1679     1.0  0.62378  0.84969  0.54768  1.0000
  C   C1680     1.0  0.63923  0.83834  0.52895  1.0000
  H   H1336     1.0  0.59392  0.86713  0.54540  1.0000
  H   H1337     1.0  0.65308  0.83165  0.54118  1.0000
  C   C1681     1.0  0.62735  0.72897  0.65840  1.0000
  C   C1682     1.0  0.62157  0.75073  0.65897  1.0000
  C   C1683     1.0  0.63698  0.76638  0.66645  1.0000
  C   C1684     1.0  0.65808  0.76019  0.67378  1.0000
  C   C1685     1.0  0.66362  0.73843  0.67401  1.0000
  C   C1686     1.0  0.64832  0.72288  0.66639  1.0000
  H   H1338     1.0  0.60532  0.75545  0.65303  1.0000
  H   H1339     1.0  0.63265  0.78318  0.66650  1.0000
  H   H1340     1.0  0.67988  0.73357  0.67985  1.0000
  H   H1341     1.0  0.65292  0.70619  0.66655  1.0000
  H   H1342     1.0  0.78701  0.70232  0.68975  1.0000
  H   H1343     1.0  0.80884  0.66499  0.57126  1.0000
  H   H1344     1.0  0.57496  0.68318  0.68051  1.0000
  C   C1687     1.0  0.83596  0.70153  0.70488  1.0000
  C   C1688     1.0  0.84307  0.69819  0.67233  1.0000
  C   C1689     1.0  0.84975  0.71557  0.65227  1.0000
  C   C1690     1.0  0.84981  0.73639  0.66477  1.0000
  C   C1691     1.0  0.84313  0.73973  0.69760  1.0000
  C   C1692     1.0  0.83602  0.72235  0.71750  1.0000
  H   H1345     1.0  0.84358  0.68219  0.66250  1.0000
  H   H1346     1.0  0.85503  0.71280  0.62701  1.0000
  H   H1347     1.0  0.84322  0.75569  0.70758  1.0000
  H   H1348     1.0  0.83059  0.72505  0.74266  1.0000
  H   H1349     1.0  0.82849  0.93901  0.59793  1.0000
  H   H1350     1.0  0.52252  0.95519  0.99129  1.0000
  C   C1693     1.0  0.89923  0.78473  0.57558  1.0000
  H   H1351     1.0  0.53941  0.96706  0.88928  1.0000
  C   C1694     1.0  0.57642  0.71176  0.75167  1.0000
  C   C1695     1.0  0.64025  0.74944  0.58236  1.0000
  H   H1352     1.0  0.90467  0.87828  0.53946  1.0000
  H   H1353     1.0  0.59472  0.82727  0.66716  1.0000
  C   C1696     1.0  0.83153  0.75458  0.80433  1.0000
  H   H1354     1.0  0.54840  0.96832  0.94868  1.0000
  C   C1697     1.0  0.77250  0.92569  0.70409  1.0000
  H   H1355     1.0  0.62433  0.89682  0.87918  1.0000
  H   H1356     1.0  0.84161  0.78381  0.77953  1.0000
  H   H1357     1.0  0.85030  0.79061  0.53115  1.0000
  C   C1698     1.0  0.73386  0.96688  0.99108  1.0000
  H   H1358     1.0  0.73901  0.84330  0.53192  1.0000
  H   H1359     1.0  0.79651  0.72954  0.60106  1.0000
  H   H1360     1.0  0.60058  0.70165  0.71620  1.0000
  H   H1361     1.0  0.79335  0.66304  0.79937  1.0000
  H   H1362     1.0  0.64638  0.73361  0.58815  1.0000
  H   H1363     1.0  0.64158  0.83180  0.90552  1.0000
  C   C1699     1.0  0.57146  0.78332  0.53421  1.0000
  H   H1364     1.0  0.60036  0.79405  0.63582  1.0000
  H   H1365     1.0  0.67097  0.76502  0.58701  1.0000
  C   C1700     1.0  0.58168  0.79941  0.51496  1.0000
  C   C1701     1.0  0.57369  0.82842  0.90063  1.0000
  C   C1702     1.0  0.85486  0.90614  0.72437  1.0000
  H   H1366     1.0  0.78586  0.93317  0.71637  1.0000
  C   C1703     1.0  0.85823  0.72620  0.80660  1.0000
  S   S252      1.0  0.69560  0.66663  0.69948  1.0000
  H   H1367     1.0  0.54318  0.66679  0.78543  1.0000
  H   H1368     1.0  0.59542  0.80799  0.52418  1.0000
  C   C1704     1.0  0.70888  0.86187  0.89382  1.0000
  H   H1369     1.0  0.59316  0.93996  0.96850  1.0000
  H   H1370     1.0  0.57497  0.75350  0.88871  1.0000
  Fe  Fe126     1.0  0.63998  0.95637  0.95866  1.0000
  C   C1705     1.0  0.92230  0.76814  0.70240  1.0000
  C   C1706     1.0  0.90675  0.73979  0.73723  1.0000
  H   H1371     1.0  0.58099  0.82734  0.87619  1.0000
  H   H1372     1.0  0.74330  0.74871  0.58681  1.0000
  H   H1373     1.0  0.63231  0.89344  0.94159  1.0000
  H   H1374     1.0  0.58692  0.68835  0.49662  1.0000
  C   C1707     1.0  0.97178  0.96183  0.92940  1.0000
  H   H1375     1.0  0.68234  0.66425  0.57973  1.0000
  H   H1376     1.0  0.57466  0.68984  0.81657  1.0000
  C   C1708     1.0  0.91076  0.74344  0.84091  1.0000
  H   H1377     1.0  0.78245  0.87893  0.75391  1.0000
  C   C1709     1.0  0.61857  0.85076  0.87770  1.0000
  C   C1710     1.0  0.58366  0.70161  0.72287  1.0000
  H   H1378     1.0  0.91069  0.97392  0.94262  1.0000
  C   C1711     1.0  0.56593  0.72037  0.88432  1.0000
  H   H1379     1.0  0.72199  0.72715  0.69338  1.0000
  C   C1712     1.0  0.63341  0.69283  0.55898  1.0000
  H   H1380     1.0  0.64628  0.69385  0.57661  1.0000
  C   C1713     1.0  0.57506  0.73964  0.87284  1.0000
  C   C1714     1.0  0.63661  0.70003  0.52634  1.0000
  Fe  Fe127     1.0  0.67792  0.98475  0.93776  1.0000
  H   H1381     1.0  0.57686  0.85551  0.97325  1.0000
  H   H1382     1.0  0.52264  0.70187  0.74487  1.0000
  H   H1383     1.0  0.63640  0.78141  0.50569  1.0000
  H   H1384     1.0  0.63520  0.73241  0.73891  1.0000
  H   H1385     1.0  0.79126  0.94647  0.96359  1.0000
  H   H1386     1.0  0.54402  0.84603  0.60167  1.0000
  H   H1387     1.0  0.86785  0.90198  0.74092  1.0000
  C   C1715     1.0  0.82047  0.73451  0.50655  1.0000
  H   H1388     1.0  0.71013  0.74764  0.55395  1.0000
  P   P58       1.0  0.73658  0.91804  0.86086  1.0000
  C   C1716     1.0  0.72165  0.94110  0.84590  1.0000
  C   C1717     1.0  0.75456  0.92641  0.89310  1.0000
  H   H1389     1.0  0.69117  0.95771  0.78066  1.0000
  C   C1718     1.0  0.69934  0.95826  0.80416  1.0000
  H   H1390     1.0  0.74569  0.90105  0.92814  1.0000
  H   H1391     1.0  0.93741  0.98988  0.97959  1.0000
  H   H1392     1.0  0.61199  0.68487  0.81001  1.0000
  C   C1719     1.0  0.71187  0.94087  0.81475  1.0000
  C   C1720     1.0  0.55680  0.71683  0.59133  1.0000
  H   H1393     1.0  0.96111  0.94130  0.88996  1.0000
  H   H1394     1.0  0.54372  0.70268  0.63624  1.0000
  C   C1721     1.0  0.71828  0.95886  0.86647  1.0000
  C   C1722     1.0  0.75124  0.90606  0.82664  1.0000
  C   C1723     1.0  0.77347  0.90949  0.82206  1.0000
  C   C1724     1.0  0.78465  0.89974  0.79589  1.0000
  C   C1725     1.0  0.77376  0.88651  0.77413  1.0000
  H   H1395     1.0  0.53311  0.80572  0.94697  1.0000
  H   H1396     1.0  0.73240  0.68241  0.53226  1.0000
  C   C1726     1.0  0.75165  0.88309  0.77842  1.0000
  H   H1397     1.0  0.70332  0.98982  0.87174  1.0000
  H   H1398     1.0  0.63833  0.74194  0.50771  1.0000
  S   S253      1.0  0.98566  0.87261  0.93184  1.0000
  C   C1727     1.0  0.89338  0.78714  0.51624  1.0000
  C   C1728     1.0  0.49810  0.69558  0.89444  1.0000
  H   H1399     1.0  0.76633  0.95423  0.86559  1.0000
  H   H1400     1.0  0.71322  0.92711  0.79893  1.0000
  C   C1729     1.0  0.69679  0.90491  0.88706  1.0000
  C   C1730     1.0  0.95644  0.95277  0.90854  1.0000
  H   H1401     1.0  0.92298  0.82565  0.96772  1.0000
  H   H1402     1.0  0.72465  0.95921  0.89129  1.0000
  H   H1403     1.0  0.78229  0.91953  0.83867  1.0000
  H   H1404     1.0  0.80180  0.90236  0.79249  1.0000
  C   C1731     1.0  0.64563  0.78765  0.57696  1.0000
  C   C1732     1.0  0.55290  0.77350  0.52195  1.0000
  C   C1733     1.0  0.80445  0.90240  0.61649  1.0000
  C   C1734     1.0  0.59186  0.78135  0.72544  1.0000
  C   C1735     1.0  0.60838  0.79345  0.73898  1.0000
  C   C1736     1.0  0.62042  0.78498  0.76503  1.0000
  C   C1737     1.0  0.61599  0.76439  0.77759  1.0000
  C   C1738     1.0  0.59948  0.75205  0.76406  1.0000
  C   C1739     1.0  0.58742  0.76072  0.73785  1.0000
  P   P59       1.0  0.59535  0.72466  0.77838  1.0000
  H   H1405     1.0  0.51509  0.69586  0.90011  1.0000
  C   C1740     1.0  0.58438  0.72312  0.82027  1.0000
  H   H1406     1.0  0.87363  0.93746  0.93907  1.0000
  C   C1741     1.0  0.97599  0.73335  0.98980  1.0000
  H   H1407     1.0  0.68080  0.72228  0.56968  1.0000
  H   H1408     1.0  0.75460  0.67826  0.63498  1.0000
  C   C1742     1.0  0.61359  0.68417  0.56896  1.0000
  H   H1409     1.0  0.55075  0.91975  0.91272  1.0000
  C   C1743     1.0  0.56676  0.91468  0.90525  1.0000
  H   H1410     1.0  0.78957  0.96676  0.91050  1.0000
  C   C1744     1.0  0.51975  0.72191  0.98247  1.0000
  C   C1745     1.0  0.70594  0.97628  0.85561  1.0000
  H   H1411     1.0  0.58277  0.78781  0.70488  1.0000
  H   H1412     1.0  0.61208  0.80928  0.72898  1.0000
  H   H1413     1.0  0.63355  0.79421  0.77494  1.0000
  H   H1414     1.0  0.62587  0.75780  0.79717  1.0000
  H   H1415     1.0  0.57494  0.75147  0.72636  1.0000
  H   H1416     1.0  0.87233  0.66483  0.53106  1.0000
  C   C1746     1.0  0.74750  0.70342  0.49608  1.0000
  H   H1417     1.0  0.59092  0.75620  0.83250  1.0000
  C   C1747     1.0  0.91718  0.75970  0.73381  1.0000
  C   C1748     1.0  0.65401  0.76710  0.58196  1.0000
  C   C1749     1.0  0.91805  0.73889  0.80863  1.0000
  H   H1418     1.0  0.95806  0.75942  0.87439  1.0000
  H   H1419     1.0  0.54812  0.72045  0.78072  1.0000
  C   C1750     1.0  0.83515  0.85913  0.82925  1.0000
  C   C1751     1.0  0.84279  0.85252  0.79827  1.0000
  C   C1752     1.0  0.86491  0.85230  0.79144  1.0000
  C   C1753     1.0  0.87942  0.85845  0.81564  1.0000
  C   C1754     1.0  0.87193  0.86486  0.84700  1.0000
  C   C1755     1.0  0.84965  0.86517  0.85364  1.0000
  P   P60       1.0  0.89100  0.87064  0.87911  1.0000
  C   C1756     1.0  0.87822  0.88613  0.91148  1.0000
  C   C1757     1.0  0.90091  0.84574  0.89682  1.0000
  C   C1758     1.0  0.90920  0.84522  0.92902  1.0000
  C   C1759     1.0  0.91650  0.82591  0.94295  1.0000
  C   C1760     1.0  0.91601  0.80707  0.92472  1.0000
  C   C1761     1.0  0.90792  0.80747  0.89264  1.0000
  C   C1762     1.0  0.90035  0.82668  0.87875  1.0000
  C   C1763     1.0  0.88052  0.90854  0.91213  1.0000
  C   C1764     1.0  0.87124  0.92026  0.93794  1.0000
  C   C1765     1.0  0.91705  0.68873  0.79193  1.0000
  C   C1766     1.0  0.85712  0.88754  0.96271  1.0000
  C   C1767     1.0  0.86623  0.87575  0.93680  1.0000
  C   C1768     1.0  0.91305  0.88620  0.86166  1.0000
  C   C1769     1.0  0.90948  0.90055  0.83509  1.0000
  C   C1770     1.0  0.92642  0.91285  0.82179  1.0000
  C   C1771     1.0  0.94697  0.91111  0.83515  1.0000
  C   C1772     1.0  0.95054  0.89726  0.86201  1.0000
  C   C1773     1.0  0.93370  0.88476  0.87519  1.0000
  H   H1420     1.0  0.81799  0.85919  0.83452  1.0000
  H   H1421     1.0  0.83162  0.84729  0.77965  1.0000
  H   H1422     1.0  0.87089  0.84682  0.76762  1.0000
  H   H1423     1.0  0.89656  0.85758  0.81019  1.0000
  H   H1424     1.0  0.84342  0.86979  0.87766  1.0000
  H   H1425     1.0  0.91019  0.85971  0.94340  1.0000
  C   C1774     1.0  0.94284  0.98002  0.95918  1.0000
  C   C1775     1.0  0.68820  0.86838  0.90362  1.0000
  H   H1426     1.0  0.90783  0.79303  0.87814  1.0000
  H   H1427     1.0  0.89445  0.82649  0.85373  1.0000
  H   H1428     1.0  0.88980  0.91702  0.89325  1.0000
  C   C1776     1.0  0.93362  0.89331  0.97879  1.0000
  H   H1429     1.0  0.69175  0.92144  0.88446  1.0000
  H   H1430     1.0  0.53140  0.75234  0.96323  1.0000
  H   H1431     1.0  0.86427  0.85849  0.93689  1.0000
  H   H1432     1.0  0.89363  0.90220  0.82458  1.0000
  H   H1433     1.0  0.92370  0.92354  0.80087  1.0000
  H   H1434     1.0  0.96023  0.92023  0.82445  1.0000
  H   H1435     1.0  0.96659  0.89556  0.87189  1.0000
  H   H1436     1.0  0.93704  0.87378  0.89550  1.0000
  S   S254      1.0  0.63330  0.66968  0.70908  1.0000
  H   H1437     1.0  0.64693  0.66656  0.80681  1.0000
  H   H1438     1.0  0.65213  0.70650  0.51895  1.0000
  C   C1777     1.0  0.63430  0.87856  0.95537  1.0000
  H   H1439     1.0  0.66214  0.82019  0.85616  1.0000
  H   H1440     1.0  0.81882  0.70339  0.57112  1.0000
  C   C1778     1.0  0.50856  0.95205  0.89821  1.0000
  H   H1441     1.0  0.92099  0.76905  0.75532  1.0000
  H   H1442     1.0  0.97460  0.76548  0.96839  1.0000
  H   H1443     1.0  0.68465  0.69827  0.61893  1.0000
  C   C1779     1.0  0.79985  0.77259  0.66190  1.0000
  C   C1780     1.0  0.78681  0.79082  0.66086  1.0000
  C   C1781     1.0  0.76486  0.78895  0.65442  1.0000
  C   C1782     1.0  0.75598  0.76876  0.64860  1.0000
  C   C1783     1.0  0.76918  0.75039  0.64842  1.0000
  C   C1784     1.0  0.79103  0.75241  0.65632  1.0000
  P   P61       1.0  0.75755  0.72408  0.64454  1.0000
  C   C1785     1.0  0.75439  0.71466  0.68673  1.0000
  C   C1786     1.0  0.73261  0.72445  0.62226  1.0000
  C   C1787     1.0  0.71616  0.70977  0.63044  1.0000
  C   C1788     1.0  0.69742  0.70928  0.61181  1.0000
  C   C1789     1.0  0.69521  0.72292  0.58430  1.0000
  C   C1790     1.0  0.71173  0.73719  0.57545  1.0000
  C   C1791     1.0  0.73043  0.73787  0.59425  1.0000
  C   C1792     1.0  0.77189  0.70505  0.70285  1.0000
  C   C1793     1.0  0.77017  0.69928  0.73639  1.0000
  C   C1794     1.0  0.75087  0.70261  0.75387  1.0000
  C   C1795     1.0  0.73347  0.71240  0.73807  1.0000
  C   C1796     1.0  0.73536  0.71884  0.70481  1.0000
  C   C1797     1.0  0.77419  0.70573  0.62125  1.0000
  C   C1798     1.0  0.79199  0.71281  0.60215  1.0000
  C   C1799     1.0  0.80445  0.69808  0.58434  1.0000
  C   C1800     1.0  0.77117  0.84600  0.51189  1.0000
  C   C1801     1.0  0.91734  0.66627  0.79107  1.0000
  C   C1802     1.0  0.76842  0.68399  0.62078  1.0000
  H   H1444     1.0  0.81676  0.77409  0.66755  1.0000
  H   H1445     1.0  0.79374  0.80629  0.66584  1.0000
  H   H1446     1.0  0.75468  0.80312  0.65467  1.0000
  H   H1447     1.0  0.73876  0.76752  0.64516  1.0000
  H   H1448     1.0  0.80127  0.73838  0.65868  1.0000
  H   H1449     1.0  0.71777  0.69854  0.65103  1.0000
  H   H1450     1.0  0.91800  0.81031  0.59605  1.0000
  C   C1803     1.0  0.56071  0.75438  0.62775  1.0000
  H   H1451     1.0  0.54733  0.73587  0.66867  1.0000
  C   C1804     1.0  0.61811  0.75231  0.57844  1.0000
  H   H1452     1.0  0.60793  0.73833  0.58062  1.0000
  H   H1453     1.0  0.83153  0.97528  0.57310  1.0000
  C   C1805     1.0  0.77178  0.99138  0.99162  1.0000
  C   C1806     1.0  0.81991  0.97225  0.59294  1.0000
  H   H1454     1.0  0.55775  0.92187  0.97473  1.0000
  C   C1807     1.0  0.69889  0.87374  0.51726  1.0000
  C   C1808     1.0  0.89178  0.86922  0.52863  1.0000
  C   C1809     1.0  0.90098  0.72881  0.70855  1.0000
  C   C1810     1.0  0.66725  0.88711  0.54670  1.0000
  C   C1811     1.0  0.55008  0.71711  0.62450  1.0000
  C   C1812     1.0  0.62195  0.86040  0.94840  1.0000
  C   C1813     1.0  0.55609  0.83447  0.60930  1.0000
  H   H1455     1.0  0.56683  0.85343  0.65004  1.0000
  H   H1456     1.0  0.54935  0.81298  0.56990  1.0000
  C   C1814     1.0  0.64808  0.83034  0.85335  1.0000
  C   C1815     1.0  0.56593  0.70250  0.86389  1.0000
  C   C1816     1.0  0.67647  0.87626  0.51995  1.0000
  C   C1817     1.0  0.68220  0.88990  0.90026  1.0000
  C   C1818     1.0  0.78124  0.94074  0.94380  1.0000
  C   C1819     1.0  0.84620  0.76769  0.78705  1.0000
  C   C1820     1.0  0.61206  0.85684  0.84571  1.0000
  H   H1457     1.0  0.82794  0.74632  0.52207  1.0000
  H   H1458     1.0  0.65126  0.83236  0.80004  1.0000
  C   C1821     1.0  0.56887  0.83861  0.63664  1.0000
  C   C1822     1.0  0.55926  0.81572  0.59124  1.0000
  C   C1823     1.0  0.60944  0.77305  0.57466  1.0000
  C   C1824     1.0  0.64187  0.83701  0.82170  1.0000
  H   H1459     1.0  0.57159  0.73447  0.55102  1.0000
  C   C1825     1.0  0.63642  0.83708  0.88128  1.0000
  C   C1826     1.0  0.93455  0.95755  0.91278  1.0000
  C   C1827     1.0  0.84040  0.92858  0.68037  1.0000
  H   H1460     1.0  0.67316  0.90413  0.59158  1.0000
  P   P62       1.0  0.58062  0.77750  0.57578  1.0000
  C   C1828     1.0  0.56909  0.69134  0.70240  1.0000
  C   C1829     1.0  0.58459  0.82384  0.64632  1.0000
  H   H1461     1.0  0.75078  0.93016  0.74568  1.0000
  C   C1830     1.0  0.87288  0.73911  0.78845  1.0000
  C   C1831     1.0  0.53966  0.70199  0.73853  1.0000
  H   H1462     1.0  0.57499  0.94485  0.88136  1.0000
  C   C1832     1.0  0.68037  0.89581  0.57079  1.0000
  C   C1833     1.0  0.62458  0.69186  0.79458  1.0000
  H   H1463     1.0  0.76918  0.91387  0.97233  1.0000
  C   C1834     1.0  0.58782  0.80509  0.62834  1.0000
  C   C1835     1.0  0.57548  0.80110  0.60022  1.0000
  C   C1836     1.0  0.56567  0.73523  0.57638  1.0000
  C   C1837     1.0  0.62381  0.85013  0.81789  1.0000
  H   H1464     1.0  0.71288  0.90030  0.58698  1.0000
  C   C1838     1.0  0.88364  0.66666  0.76185  1.0000
  C   C1839     1.0  0.86680  0.76002  0.77911  1.0000
  C   C1840     1.0  0.54712  0.69129  0.71043  1.0000
  H   H1465     1.0  0.61933  0.85563  0.79329  1.0000
  C   C1841     1.0  0.92239  0.91287  0.97877  1.0000
  C   C1842     1.0  0.89024  0.77653  0.54692  1.0000
  H   H1466     1.0  0.71955  0.95707  0.99064  1.0000
  C   C1843     1.0  0.75548  0.91513  0.92348  1.0000
  H   H1467     1.0  0.78650  0.89368  0.53827  1.0000
  C   C1844     1.0  0.85969  0.90978  0.96333  1.0000
  C   C1845     1.0  0.79206  0.90474  0.58780  1.0000
  C   C1846     1.0  0.82518  0.87434  0.58939  1.0000
  H   H1468     1.0  0.54627  0.83177  0.98752  1.0000
  H   H1469     1.0  0.56244  0.76856  0.64253  1.0000
  H   H1470     1.0  0.87151  0.93315  0.70216  1.0000
  H   H1471     1.0  0.83476  0.87975  0.74061  1.0000
  C   C1847     1.0  0.70272  0.89374  0.56806  1.0000
  P   P63       1.0  0.60392  0.86037  0.91366  1.0000
  C   C1848     1.0  0.71201  0.88288  0.54131  1.0000
  C   C1849     1.0  0.83757  0.73387  0.81423  1.0000
  C   C1850     1.0  0.56759  0.75422  0.59441  1.0000
  H   H1472     1.0  0.52537  0.71295  0.96129  1.0000
  C   C1851     1.0  0.69640  0.97595  0.82455  1.0000
  C   C1852     1.0  0.92519  0.75064  0.86459  1.0000
  H   H1473     1.0  0.68606  0.98907  0.81678  1.0000
  C   C1853     1.0  0.59696  0.68263  0.54631  1.0000
  C   C1854     1.0  0.60106  0.92221  0.87839  1.0000
  C   C1855     1.0  0.60825  0.90162  0.88677  1.0000
  H   H1474     1.0  0.73956  0.87168  0.87341  1.0000
  C   C1856     1.0  0.63764  0.71854  0.75491  1.0000
  H   H1475     1.0  0.93031  0.69691  0.80327  1.0000
  C   C1857     1.0  0.79607  0.89178  0.56034  1.0000
  C   C1858     1.0  0.59475  0.88734  0.90455  1.0000
  C   C1859     1.0  0.85692  0.92365  0.70247  1.0000
  H   H1476     1.0  0.66606  0.87005  0.50115  1.0000
  C   C1860     1.0  0.83621  0.89366  0.72435  1.0000
  C   C1861     1.0  0.77510  0.91771  0.67185  1.0000
  H   H1477     1.0  0.92279  0.82956  0.54266  1.0000
  C   C1862     1.0  0.55206  0.73586  0.64272  1.0000
  H   H1478     1.0  0.69414  0.82975  0.53197  1.0000
  C   C1863     1.0  0.91127  0.80365  0.57388  1.0000
  H   H1479     1.0  0.61119  0.67828  0.59412  1.0000
  H   H1480     1.0  0.65612  0.80141  0.57724  1.0000
  H   H1481     1.0  0.83821  0.86275  0.58996  1.0000
  C   C1864     1.0  0.58137  0.84307  0.92373  1.0000
  C   C1865     1.0  0.75736  0.90838  0.65652  1.0000
  C   C1866     1.0  0.81969  0.89857  0.70239  1.0000
  C   C1867     1.0  0.62349  0.79066  0.57346  1.0000
  H   H1482     1.0  0.72398  0.89927  0.66148  1.0000
  H   H1483     1.0  0.88062  0.76208  0.54886  1.0000
  C   C1868     1.0  0.60000  0.68999  0.51371  1.0000
  H   H1484     1.0  0.84252  0.94193  0.66322  1.0000
  H   H1485     1.0  0.56318  0.88364  0.92791  1.0000
  H   H1486     1.0  0.55883  0.71925  0.90901  1.0000
  H   H1487     1.0  0.77851  0.83913  0.53383  1.0000
  C   C1869     1.0  0.57393  0.89407  0.91382  1.0000
  H   H1488     1.0  0.87789  0.77048  0.76562  1.0000
  C   C1870     1.0  0.82167  0.91600  0.68017  1.0000
  C   C1871     1.0  0.78034  0.95212  0.91379  1.0000
  H   H1489     1.0  0.77801  0.96168  0.66360  1.0000
  H   H1490     1.0  0.80560  0.88838  0.70203  1.0000
  H   H1491     1.0  0.74313  0.87298  0.76137  1.0000
  C   C1872     1.0  0.64452  0.68138  0.79294  1.0000
  H   H1492     1.0  0.92275  0.95006  0.89724  1.0000
  C   C1873     1.0  0.82117  0.88715  0.61691  1.0000
  C   C1874     1.0  0.73750  0.90686  0.67327  1.0000
  H   H1493     1.0  0.89649  0.77658  0.59919  1.0000
  C   C1875     1.0  0.91415  0.81447  0.54363  1.0000
  C   C1876     1.0  0.57508  0.70386  0.83207  1.0000
  C   C1877     1.0  0.90519  0.80634  0.51491  1.0000
  C   C1878     1.0  0.72355  0.87690  0.88070  1.0000
  H   H1494     1.0  0.83138  0.88504  0.63818  1.0000
  H   H1495     1.0  0.50795  0.90368  0.95760  1.0000
  H   H1496     1.0  0.61730  0.80686  0.57151  1.0000
  Fe  Fe128     1.0  0.98737  0.84433  0.89764  1.0000
  H   H1497     1.0  0.95902  0.73036  0.98649  1.0000
  C   C1879     1.0  0.57140  0.91591  0.98843  1.0000
  C   C1880     1.0  0.52326  0.74427  0.98375  1.0000
  C   C1881     1.0  0.57139  0.84414  0.95514  1.0000
  C   C1882     1.0  0.81810  0.95169  0.60705  1.0000
  H   H1498     1.0  0.78389  0.69225  0.74875  1.0000
  P   P64       1.0  0.80077  0.92086  0.65036  1.0000
  H   H1499     1.0  0.81284  0.80297  0.52828  1.0000
  C   C1883     1.0  0.78056  0.66943  0.60226  1.0000
  C   C1884     1.0  0.73513  0.91462  0.70539  1.0000
  H   H1500     1.0  0.55042  0.80367  0.89120  1.0000
  H   H1501     1.0  0.77955  0.91683  0.58644  1.0000
  H   H1502     1.0  0.71356  0.84519  0.89638  1.0000
  H   H1503     1.0  0.54382  0.76204  0.53682  1.0000
  H   H1504     1.0  0.72936  0.88188  0.53967  1.0000
  C   C1885     1.0  0.74878  0.84851  0.51078  1.0000
  C   C1886     1.0  0.55403  0.83074  0.96333  1.0000
  C   C1887     1.0  0.78983  0.96435  0.64402  1.0000
  C   C1888     1.0  0.52802  0.96107  0.90782  1.0000
  H   H1505     1.0  0.97249  0.91945  0.95837  1.0000
  C   C1889     1.0  0.90600  0.73737  0.67716  1.0000
  H   H1506     1.0  0.92225  0.79229  0.93531  1.0000
  H   H1507     1.0  0.71975  0.91315  0.71835  1.0000
  C   C1890     1.0  0.91675  0.75696  0.67407  1.0000
  H   H1508     1.0  0.81625  0.86696  0.53965  1.0000
  H   H1509     1.0  0.61156  0.93312  0.86464  1.0000
  C   C1891     1.0  0.88317  0.68903  0.76304  1.0000
  C   C1892     1.0  0.81272  0.87667  0.56109  1.0000
  C   C1893     1.0  0.70919  0.70291  0.50840  1.0000
  C   C1894     1.0  0.62101  0.71073  0.77592  1.0000
  H   H1510     1.0  0.74945  0.69772  0.77967  1.0000
  H   H1511     1.0  0.92030  0.76371  0.64972  1.0000
  H   H1512     1.0  0.89398  0.74142  0.84788  1.0000
  C   C1895     1.0  0.60393  0.85666  0.49705  1.0000
  H   H1513     1.0  0.84845  0.87944  0.98274  1.0000
  H   H1514     1.0  0.93004  0.78367  0.70016  1.0000
  S   S255      1.0  0.65218  0.66567  0.63303  1.0000
  C   C1896     1.0  0.76879  0.92230  0.94867  1.0000
  H   H1515     1.0  0.82618  0.72368  0.82755  1.0000
  C   C1897     1.0  0.82109  0.79782  0.50591  1.0000
  C   C1898     1.0  0.89986  0.70030  0.77804  1.0000
  C   C1899     1.0  0.53298  0.96201  0.94139  1.0000
  H   H1516     1.0  0.65857  0.89204  0.98630  1.0000
  C   C1900     1.0  0.74044  0.89273  0.80458  1.0000
  C   C1901     1.0  0.92773  0.97102  0.93827  1.0000
  C   C1902     1.0  0.94691  0.75356  0.85617  1.0000
  C   C1903     1.0  0.76713  0.94498  0.88848  1.0000
  C   C1904     1.0  0.79876  0.67642  0.58434  1.0000
  C   C1905     1.0  0.68693  0.80080  0.50608  1.0000
  C   C1906     1.0  0.54655  0.81611  0.94036  1.0000
  H   H1517     1.0  0.66622  0.89506  0.90772  1.0000
  H   H1518     1.0  0.97617  0.98183  0.97189  1.0000
  H   H1519     1.0  0.50491  0.95088  0.87213  1.0000
  C   C1907     1.0  0.94003  0.74131  0.80065  1.0000
  H   H1520     1.0  0.72331  0.88972  0.80754  1.0000
  H   H1521     1.0  0.91146  0.74598  0.51048  1.0000
  H   H1522     1.0  0.74139  0.66891  0.70497  1.0000
  H   H1523     1.0  0.86263  0.71018  0.81470  1.0000
  C   C1908     1.0  0.95433  0.74886  0.82423  1.0000
  H   H1524     1.0  0.94614  0.73752  0.77614  1.0000
  H   H1525     1.0  0.55877  0.68750  0.87259  1.0000
  C   C1909     1.0  0.71752  0.89853  0.87700  1.0000
  H   H1526     1.0  0.84428  0.66817  0.84876  1.0000
  C   C1910     1.0  0.72992  0.69506  0.51402  1.0000
  C   C1911     1.0  0.69390  0.82209  0.50803  1.0000
  C   C1912     1.0  0.64922  0.87788  0.98095  1.0000
  H   H1527     1.0  0.69558  0.69612  0.52196  1.0000
  C   C1913     1.0  0.61985  0.69884  0.50347  1.0000
  C   C1914     1.0  0.82966  0.71412  0.50378  1.0000
  H   H1528     1.0  0.85324  0.91891  0.98392  1.0000
  C   C1915     1.0  0.79169  0.98490  0.62984  1.0000
  C   C1916     1.0  0.90028  0.73713  0.49563  1.0000
  H   H1529     1.0  0.93754  0.66784  0.88647  1.0000
  H   H1530     1.0  0.58185  0.67527  0.55393  1.0000
  H   H1531     1.0  0.84428  0.71018  0.51697  1.0000
  H   H1532     1.0  0.67682  0.85682  0.91385  1.0000
  C   C1917     1.0  0.73519  0.98530  0.97084  1.0000
  H   H1533     1.0  0.67636  0.68120  0.77072  1.0000
  S   S256      1.0  0.65117  0.98850  0.97552  1.0000
  H   H1534     1.0  0.91550  0.70681  0.50682  1.0000
  C   C1918     1.0  0.80671  0.98885  0.60432  1.0000
  H   H1535     1.0  0.61518  0.82746  0.96300  1.0000
  C   C1919     1.0  0.62449  0.84171  0.96789  1.0000
  H   H1536     1.0  0.50365  0.69013  0.84247  1.0000
  C   C1920     1.0  0.63913  0.84123  0.99387  1.0000
