data_image0
_chemical_formula_structural       FeS2FeS2FeSFeS3FeS2H2CHSHFeCSC4HC2H2C3HC6H4C2H2SC6H4C3H2C6PC18H7CH11C2H2CHSH2CH2PCHC5HCHSCHCPC2HC5HCH3C2HFeC7H2CHCH2CHFeHC4H5CH7CHC2HC3HCH2SH3C2FeS2FeS2FeSFeS3FeS2FeS2FeSFeS3CFeS4FeSCSFeS2HFeSCFeS2FeS2FeSFeS3C3HCH5C6H4C6H4CH2C4H3C6H4C6H3C6H4C6H4C2H4SC4H4C12PC14H17C3HCHCH2CHC3HC2H2CH3C4H2C5H4C2HC3HC7HCHCHCH4C6HPC2H2CH3CH2C3PC4FeC2HCHC7HSH2C2H5CH4C13PC5H5C2HCH2CHC4HC7H2CHCHFeCH2C2HC2HCH2CHC3H3C2H2CH7C2H2C2PC3H2C3HC3HCH2CH3CHC2H3CH2C3FeHC6HCH2PCHCH2CSHCH3C3H2CPC2P2H2CHSC4SH3CPHSCH2CH3C5H3C5FeCHCHCHSC3H3C4SHFeHC2H2C2HCHC2HSH2C4HCHCH6C2H2C3H7CH3CH4PC3H2C2HCFeS2FeS2FeSFeS3FeHSFeS2CFeSFeCSC2HPHCHSH2C8H4C6H5CHCHC3HCH2CH2CHCHC2HCH2C2H2C3HC3H2C3H2C3H2C9H2CH2CHC3HCSCH3CH2C2H2CH3CHCHC3HCHC5HCHPC2HCSCH5PHC2HPC14HC3HC2H15C2HC3H6C2H5C3HC2H3CHC7HCH2CH3C2H2CHFeS2C3HC2FeS2FeS2FeSFeS3FeS2HC10H5C2H3C11H4SC2FeCHC2HC2HCH2CH5CH3PHC2HC3H2C3H3CHCHCH2CH2CH4C9PC18H12CH7C2SC2HC2H3CHC2HC3HC2H6CHC7H2CH4CH7C2HCH4CH2CHPC4FeCHFeS2FeS2FeS2FeS2FeSFeS3FeS2FeS2FeSFeS3FeS2FeS2FeSFeS3FeS2HCHCSHFeS2CFeSHSHC2HCHC3HCH2CHC6H4CHC7H4C6H9C2H2C6H3C6H4C6H5C6H5C2HC5H4SC2PC9HFeCH13CHC2PC2H2C3HC2HCH2C3H3CH2C2H2CH5CHPC18HCH3CH11C2H3C5SC2HC3HCH2CHC8H2C6PC20H18C5PC10H10C4HCHC3H6CHCHCH2CPC2HCHC4HC3H2C2HCHCHCH2C2HC3HCHC3H2C4HC4H3CH3C3PC2HCH2CHCHCH2C4HFeC3H2C5HC3H2C7H2C3H2CHCHC2HCHCH2CH2CHCHC2HC4HC2H2CH5CHCHPHC4HCHC2HCHC2HCHCHCH2PC3HCH2C2H2C2H2CPCH4CHCHC3HC2HC2HC2H2C2HC3SCH3CHC2H4C4HFeHSFeS2FeS2FeS2FeSFeS3FeHS2H4CH2SC3HC2HC6H5CH3C6H4C4SHCHC3HC2H2CH3C2HCHCH2C2SC3HCSHC3HCHC2H3C6PC18H8CH11C6PC2HC2HC3H2C4H3CH4CPCH5CH2CH2C4HCHCHCHC3HC5H4CHC4HSC2H2PC2PHC6H4CFePHCHCFeC3HC2H2C2HC3HCH3CH3C2SFeS2FeS2FeSFeS3FeS2HFeS2FeS2FeSFeS3CH2FeS2HC2HCH2CHCH2CHC2HC6H4C5HC6H4CHCH2C6H4C6H4C6PC12HCHC2H6CH3C2H4CHCHCH2CH2C4HCHCHC2HPCHCSH2SCHCHC3H4PCH2C2HCHC4FeC3H2CHCHC6PC2H3C13H5C2HFeH9CHC6PC6H2C2HCH2CH2CH5CH2C2H2C2HCHC3HCHCHCHC3H2CHCHCHCH2CHCPH3CH3CH5C2H4C3H2CHCH2C2H2C2HPC13HC3HC4H2CSCH3C2SH3C2H2CHCHC4H2SH2CS2C2FeSFeSHCS2FeS2C2HSC2H3CH2C6H4C4H2C3HC2HC4H3CHPCHC2HPC2FeC3HCHCHCH3CH2C2H2C2HC3HCHC3H4CSC9HCPHC2HC2HCFeSHC3H8SH2CH6C3HCH2C4HPHSCHCHC2SCHC2H2CHC3HCHC2H2CHC2H2SFeCSCSFeSFeSHFeS2FeS2FeSFeS3C3H2CFeSCFeS2FeS2FeSFeS3FeS2C5H4C6H4C3H2FeC8H4C3H2C6H5C7H4C2HC2HCHC2HC3HC2H6C7H4C2SHC4H8PC2HC2PC10H9CPC2H2CHCH2CH3CHCH2C3H3SC6H2CH2SHC3HPH2C3HC2HCHC7PC18H20C3H2CHCHSH3CH2C3H2C5FeCHCH2SCHCHCSC5H3C3HCHC4H3C2H4C6HCHC3H3CHC3H2CH2C2HC4H2PC3HC8H2PC3HFeCH4C3H3CH2CSCSFeS2FeS2FeSFeS3FeS2PC4FeS2FeS2FeSFeS3CHCFeS2H2C2HCH2PC3HC7H4CH2PHC6H4C6H4CHC6H5PC15H13C2H2C2HC8PC7H12C5HC10H8C2HC6PC18H6CH14CFeC3PC2HC5HC2H3CH2CHC3H2C2HCH2CH3C2HC4H2CSH4C3H2C3H2CH4CH5CHSCPC14H4CSHCH2C2HC3HC2HCH3C10FeC2SHC4H2C2H3CHCHCH3CH2C3HCHCHCFeHC7H2CHC3H3C2H2CHSH6FeC2HC2HPC2H3SCHCHCHCH6CH3CS2FeCSFeSFeCSCHSCFeS2C7H5C2HC3HSCHCFeHC3HC7H2C2SHFeC2HSHCHCH2CHSH2C10PC2H2C6H2C4H10CHSHCH2PHCH3CSCH2CHCHCH2FeHC2H2CFeC2HC4H2CH2SHCH2C6PC18H19C3H2CH2CHFeC3HCH2C2HFeHSC3H2S2FeS2FeS2FeSFeS3FeS2FeS2FeS2FeSFeS3FeS2CHCHCHCH2C7HC6H4CPSH3C7H4C3HC7H6C6H6CH2C6PC5HC6H8CH9C2HC2HCH2CHCHC3HFeHCHC7PC4HC9HSHCH6CHC2H6C2H7C3PC16HCH5C2H5CH2CH2C2H3C3H2CH2CH2C6PC7H10CH3FeCHC4HC2HC4H7C4HCHC2H4C7HCHCHSC4PC7H3C2HC4HCHC4HC4HCHC3HC3HCH3CHCH4C2HCH2CHC2H2CH2C2HCH2FeHC2H2SCHSCH2CH3C2SH2CHFeSFeS2FeS2FeSFeS3FeS2FeS2FeS2FeSFeS3H2C2HCFeS2H2CHC3H3C2HCHC7H6CHCHC7H4C6H4C4HC6H4C7PC3HCSHCH2CHC4HCFeH6C2HCH2CH2C2H2C3HC8H2CH3CH5CH3C4HCHC4HC2H3CHC5H5CH2CH2C3HC2HC2HCHC4PC14HC4H13PHCH2CHC2PC2H2SH2CHC3H4CHCPH2C3HCH2CH2CHCHC4HC4H6CHC2HCSC7HC4HCH2C5HSH3FeHCH2CHC4PCH2C2H2C2HC7HCHC4HC3H6CHC2HC2H3CHCHCHC2H2C10H2C2H4CHSCSHCH3CHC2H2CHC2HSHC2HCHCHPHCHFeH3CHCH2C4HPC2HCH3C2SCSFeS2H2FeSFeSFeSCHCSHCHCHCFeS2HCHC2HCH5C6H4CHC5H2C3HC3HC6H2CSCHCSHCH2CH2CHFeHC2H2SHCHCHFeCH2CH3CFeH2CHSCHC5PHCHC2HC3H2CSHC3HC3H2C3H2C3H4CHSHCHCHC2PHC3HC5HCH2CFe2CPCH4FeHSFeCS2FeS2FeS2FeSFeS3FeS2HCH2FeCFeS2FeS2FeSFeS3HC3HCFeS3HCHCHC6H4CHC4HC6H4C6H5C3H2C8H4SH2CPCHCPC2H2CHSC8HC3HC2H5SHCH5CH2C7H5CH2C3PC4H2C8H2C2H8CH4C3HC2SC4H4C2HC2HCHC5H3CH3C4HPC7HC2PHC3H2CH5CHCHCH2CHC2H4CH2C2HC5HC9HC3H3C5H7CH2CH3C2HC2HPHC3HCH2C2H2C2HCHC2HCHC6HCHCPH4CHC6HC2HCH4C3HCHCHC4H2C3H5C3H2SHCHCHCHC2HCHC2HCH2CH2CPCHPHCHCH3C3H2SFeSFeS2FeS2FeSFeS3C2HCHCFeS2FeS2FeS2FeSFeS3FeS2H2CSH2CHC5H2C6H4CHCH5C6H4C3HCHC8H4C6H4C4H4C2SC11H10C6H7C5PC4H2CH2C4H3C2H4C2H2CHCHC2HC2HC3H2CH2C4H2C15HC3SHCH5C4H2C2H2C2HC6H4CHCSH2CH3CHCHC2HC6H2CHC4HC2H2CH8CH3C3H2CHCHFeC2HC6PC7H10CHCPCHCHCH2PC6P2C3HPFeCH2C8H5C5H2CSH9C4HCHC2HC2H2CHC6H4C2HPC2H3CH4C2HC2SHSCHFeS2H4C2HSCH3SHPC2H3FeSH2C9H4CH2C2HC2H3CHSC4HCHFeHC7H4FeC3HC2H2C7H3C2FeH3CHC4PSCSHC4HC2HCHSCHCHCHC6H4FeSHC2H3CH2C3HC2HCH2CHC2SC2H2CHC7H2C2SCH2SHC2HFeH2CHCH2C4HCSH2C3H3CH3FeSHCH2C3HFeCSHPS2FeS2FeS2FeSFeS3FeS2FeS2FeS2FeSFeS3FeS2CHC2H2C6H4C3H4C2HC6H4C6H4SCHCHC2HC6H4CHCSC8H2CH3C9H11C3HCSH3PHC2HC3HCH2CHC2H2C4SHC2HC3HCHC5HCHFeHCHFeC4H2PHSCHC5PCH3CH11C3H2CHC2H2C2HCH2C2HCHC2SCH3C2PHC4H2C3H3CHCHC2HCHC3H4C3HCH4FeCHCFeCH2C2HC2HC2H2CHC2HC3HC3HCH2C3HC4HC2HC3HC2HC5H2FeC3FeS2FeS2FeSFeS3C2SH2CFeS2HS2H2C2HC2HC7H4C3H2C6H4FeH2CH3CH4C2H4C4HCH2C2HCH2C3SCH2CHC2H2CHCH4CH2C2HC8PC7HFeC9H10C3HCH5C3H3C4FePH4CHC5HCH4C6PC9HC8H9C2H9C6PC3SHC3HC6PHC3H3FeS2FeS2FeSFeS3FeS2FeS2FeSFeS3HCHC2FeS2FeCSCH2CHFeS2FeS2H2SFeS2FeS2FeSFeS3CHC6H5C7H4CH2CHPC6H2FeHC6H4C5H2C6H4C6H5SC4H3CHC2HC2HCH2C2H2C7SC4H4CPHC2HC2HC4H6CHC7PC18H20C3H3C5H2C2HC2H2C4H3C5H2CHCH2CH5C2HC3PC18HSCH18C5HCH2SCHCHCHCH2SC3HC2HCH3C3HC2H2CH3C6H2CHCH4C4H2CHCHCH3CHCHC3HC6H2C2H2C2HC6HSCH2CH4PH2CHC3HCHCH3CPHCHPC5HCHC2HC4HCHC2H4C3HCH3CFeC2HC4H2CH2CH3CH3C6HCH6C2H2CHSC2H3CFeC2H2C3H2C4H2CHCH2CHFeS2FeS2FeSFeS3FeS2FeS2C3H2C3HC4PCH2C6H4C3HFeC6H4CSC2HCHCHCHCHC2H4C3HPHC2HC4H2PCH3CHCHC5PC3H2C13HCHC4H6C2H2CHC2HC2HCHCHCH2C2HCH2CHC2HC11H3CH8C2HC2PC9HC3HSHCHFeHCH11CH2C3H4CH2CSHC4H3CH4C4H2CH2SHCHCPH2C4H2CFeS2FeS2FeS2FeSFeS3FeS2FeS2HC8H4C4HCHC2HC6H6C5H7CHC4H4CH2C2H4C3H2C2HSPC2HCHC2HC2H2C4PFeCHC4HPCHC4HCHC2HCH6C3HC4HCH5C2H2CHCH4C2HCHCH3C4H3C2HC3HC3HCHCH3PCH2C4H2C4HS2H2FeS2FeS2FeS2FeSFeS3FeS2FeS2FeSFeS3FeS2FeS2FeSFeS3FeS2H2SHCH3C7H4CH2CHCHC6H4C6H4C2H3FeC3HCH3C6H3C6H4C6HCHC6H5C3HCHC5HCHCH2C5PC6SC11HFeC2H3C2HSCH2C6PC18H6C2H12C6PC12HC2HCH10CH6CH2SC4PC18H18C6PC14H8CH3CH2CH2CH2CHCPH2CH4CHC4H2CFeSHCH2PHCH2SC2H2SHCHFeHC2HC3HCHC2HC3H3CH5C2SC2H2CSC3HC4H5C3HC3H2CHCH2CHCHCHC2PC2H2CH3C2H3CSH3CHC2PFeC3HC2H2CHCHCH3C3H2CH2SHFeHC4S2C2HCH5C7H2C2HCHC4HSHC2HFeS2FeS2FeS2FeSFeS3HC2HS2HPC6H4CHPCH2C4H3C6H11SHCH5C11HCHPCHCHC2H3FeH5C3HC7H3C4HC2H3CHC6HC3H4C3HCHSCPC2PH3C2HC7HC3HCH2C2HC4HFeHCH2SH2C2H2CH2C2H4C2H2CHC6HC2H3C2H2CH3C4H3CHC2HCHCH3C2H3FeCHC6
_chemical_formula_sum              "Fe288 S576 H3456 C4320 P144"
_cell_length_a       71.9179
_cell_length_b       71.839
_cell_length_c       72.001
_cell_angle_alpha    84.237
_cell_angle_beta     84.1545
_cell_angle_gamma    84.1735

_space_group_name_H-M_alt    "P 1"
_space_group_IT_number       1

loop_
  _space_group_symop_operation_xyz
  'x, y, z'

loop_
  _atom_site_type_symbol
  _atom_site_label
  _atom_site_symmetry_multiplicity
  _atom_site_fract_x
  _atom_site_fract_y
  _atom_site_fract_z
  _atom_site_occupancy
  Fe  Fe1       1.0  0.17941  0.38819  0.14552  1.0000
  S   S1        1.0  0.15901  0.36616  0.15411  1.0000
  S   S2        1.0  0.20953  0.38714  0.13109  1.0000
  Fe  Fe2       1.0  0.15149  0.42023  0.15963  1.0000
  S   S3        1.0  0.12945  0.40037  0.16935  1.0000
  S   S4        1.0  0.14163  0.45137  0.16171  1.0000
  Fe  Fe3       1.0  0.15222  0.38045  0.18103  1.0000
  S   S5        1.0  0.15048  0.36402  0.21041  1.0000
  Fe  Fe4       1.0  0.13725  0.38773  0.14191  1.0000
  S   S6        1.0  0.11157  0.38357  0.12690  1.0000
  S   S7        1.0  0.17410  0.40119  0.17312  1.0000
  S   S8        1.0  0.15787  0.40867  0.13159  1.0000
  Fe  Fe5       1.0  0.08354  0.39799  0.01886  1.0000
  S   S9        1.0  0.05231  0.40575  0.02423  1.0000
  S   S10       1.0  0.10624  0.38683  0.03839  1.0000
  H   H1        1.0  0.08795  0.42925  0.15084  1.0000
  H   H2        1.0  0.07107  0.38429  0.28568  1.0000
  C   C1        1.0  0.07971  0.45203  0.22137  1.0000
  H   H3        1.0  0.14367  0.44018  0.07238  1.0000
  S   S11       1.0  0.08955  0.42577  0.00348  1.0000
  H   H4        1.0  0.14619  0.28718  0.26849  1.0000
  Fe  Fe6       1.0  0.08089  0.32855  0.30385  1.0000
  C   C2        1.0  0.13517  0.38696  0.99284  1.0000
  S   S12       1.0  0.08414  0.34523  0.27472  1.0000
  C   C3        1.0  0.15650  0.43482  0.20983  1.0000
  C   C4        1.0  0.08965  0.42939  0.18056  1.0000
  C   C5        1.0  0.08122  0.40114  0.19951  1.0000
  C   C6        1.0  0.14972  0.41719  0.21395  1.0000
  H   H5        1.0  0.13121  0.34078  0.98975  1.0000
  C   C7        1.0  0.07774  0.39325  0.18336  1.0000
  C   C8        1.0  0.18343  0.45621  0.09814  1.0000
  H   H6        1.0  0.05213  0.47830  0.06284  1.0000
  H   H7        1.0  0.10373  0.39278  0.27956  1.0000
  C   C9        1.0  0.17310  0.45446  0.05392  1.0000
  C   C10       1.0  0.99596  0.38351  0.01130  1.0000
  C   C11       1.0  0.08716  0.41931  0.19824  1.0000
  H   H8        1.0  0.04776  0.39588  0.26314  1.0000
  C   C12       1.0  0.13193  0.35945  0.22844  1.0000
  C   C13       1.0  0.11328  0.36655  0.22670  1.0000
  C   C14       1.0  0.09902  0.36217  0.24103  1.0000
  C   C15       1.0  0.10306  0.35058  0.25738  1.0000
  C   C16       1.0  0.12175  0.34363  0.25924  1.0000
  C   C17       1.0  0.13603  0.34800  0.24487  1.0000
  H   H9        1.0  0.10984  0.37508  0.21409  1.0000
  H   H10       1.0  0.08472  0.36783  0.23948  1.0000
  H   H11       1.0  0.12522  0.33479  0.27170  1.0000
  H   H12       1.0  0.15036  0.34235  0.24646  1.0000
  C   C18       1.0  0.15477  0.47111  0.16117  1.0000
  C   C19       1.0  0.17418  0.46930  0.16232  1.0000
  H   H13       1.0  0.11803  0.42141  0.08511  1.0000
  H   H14       1.0  0.18173  0.45548  0.16322  1.0000
  S   S13       1.0  0.08076  0.38506  0.99191  1.0000
  C   C20       1.0  0.11044  0.38529  0.10219  1.0000
  C   C21       1.0  0.12650  0.38260  0.08971  1.0000
  C   C22       1.0  0.12491  0.38334  0.07026  1.0000
  C   C23       1.0  0.10733  0.38709  0.06298  1.0000
  C   C24       1.0  0.09131  0.39023  0.07543  1.0000
  C   C25       1.0  0.09286  0.38914  0.09492  1.0000
  H   H15       1.0  0.14011  0.37958  0.09506  1.0000
  H   H16       1.0  0.13739  0.38079  0.06081  1.0000
  H   H17       1.0  0.07767  0.39294  0.07009  1.0000
  H   H18       1.0  0.08033  0.39117  0.10443  1.0000
  C   C26       1.0  0.06491  0.45848  0.21037  1.0000
  C   C27       1.0  0.17468  0.45521  0.03435  1.0000
  C   C28       1.0  0.13405  0.45776  0.11490  1.0000
  H   H19       1.0  0.21047  0.34578  0.13516  1.0000
  H   H20       1.0  0.01180  0.43781  0.01736  1.0000
  C   C29       1.0  0.11075  0.34333  0.18678  1.0000
  C   C30       1.0  0.10045  0.34426  0.17124  1.0000
  C   C31       1.0  0.08515  0.33358  0.17190  1.0000
  C   C32       1.0  0.08022  0.32190  0.18806  1.0000
  C   C33       1.0  0.09070  0.32068  0.20365  1.0000
  C   C34       1.0  0.10583  0.33171  0.20293  1.0000
  P   P1        1.0  0.08379  0.30639  0.22495  1.0000
  C   C35       1.0  0.06467  0.31879  0.23834  1.0000
  C   C36       1.0  0.07554  0.28511  0.21865  1.0000
  C   C37       1.0  0.05679  0.28504  0.21477  1.0000
  C   C38       1.0  0.05023  0.26867  0.20991  1.0000
  C   C39       1.0  0.06233  0.25225  0.20887  1.0000
  C   C40       1.0  0.08100  0.25218  0.21267  1.0000
  C   C41       1.0  0.08761  0.26853  0.21753  1.0000
  C   C42       1.0  0.05390  0.30897  0.25276  1.0000
  C   C43       1.0  0.03932  0.31850  0.26345  1.0000
  C   C44       1.0  0.03531  0.33787  0.25974  1.0000
  C   C45       1.0  0.04579  0.34771  0.24526  1.0000
  C   C46       1.0  0.06040  0.33821  0.23455  1.0000
  C   C47       1.0  0.10358  0.30031  0.23885  1.0000
  C   C48       1.0  0.10127  0.30038  0.25847  1.0000
  C   C49       1.0  0.11657  0.29549  0.26908  1.0000
  C   C50       1.0  0.13434  0.29070  0.26022  1.0000
  C   C51       1.0  0.13683  0.29066  0.24072  1.0000
  C   C52       1.0  0.12152  0.29534  0.23008  1.0000
  H   H21       1.0  0.12259  0.35166  0.18633  1.0000
  H   H22       1.0  0.07371  0.37903  0.18434  1.0000
  H   H23       1.0  0.07716  0.33438  0.15983  1.0000
  H   H24       1.0  0.06824  0.31390  0.18831  1.0000
  H   H25       1.0  0.11389  0.33139  0.21486  1.0000
  H   H26       1.0  0.04719  0.29765  0.21548  1.0000
  H   H27       1.0  0.03573  0.26873  0.20698  1.0000
  C   C53       1.0  0.12249  0.43162  0.09339  1.0000
  H   H28       1.0  0.09039  0.23944  0.21188  1.0000
  H   H29       1.0  0.10211  0.26807  0.22043  1.0000
  H   H30       1.0  0.05704  0.29400  0.25602  1.0000
  H   H31       1.0  0.03134  0.31091  0.27483  1.0000
  H   H32       1.0  0.02423  0.34527  0.26827  1.0000
  H   H33       1.0  0.04292  0.36277  0.24263  1.0000
  H   H34       1.0  0.06859  0.34613  0.22365  1.0000
  H   H35       1.0  0.08784  0.30453  0.26572  1.0000
  H   H36       1.0  0.11467  0.29574  0.28420  1.0000
  H   H37       1.0  0.15067  0.28715  0.23383  1.0000
  H   H38       1.0  0.12372  0.29523  0.21498  1.0000
  C   C54       1.0  0.05894  0.47836  0.00356  1.0000
  C   C55       1.0  0.11973  0.44656  0.12220  1.0000
  H   H39       1.0  0.10342  0.48178  0.13173  1.0000
  H   H40       1.0  0.21821  0.33177  0.18845  1.0000
  C   C56       1.0  0.07998  0.40348  0.16585  1.0000
  H   H41       1.0  0.17987  0.44274  0.02740  1.0000
  S   S14       1.0  0.07428  0.29822  0.30871  1.0000
  H   H42       1.0  0.07972  0.39278  0.21280  1.0000
  H   H43       1.0  0.19636  0.42990  0.13768  1.0000
  C   C57       1.0  0.00009  0.43940  0.99081  1.0000
  H   H44       1.0  0.16908  0.44865  0.12545  1.0000
  H   H45       1.0  0.01336  0.32278  0.30591  1.0000
  P   P2        1.0  0.16291  0.46875  0.08854  1.0000
  C   C58       1.0  0.07511  0.39329  0.27320  1.0000
  H   H46       1.0  0.20257  0.46229  0.07349  1.0000
  C   C59       1.0  0.06546  0.46989  0.06193  1.0000
  C   C60       1.0  0.00073  0.31680  0.31216  1.0000
  C   C61       1.0  0.08578  0.42159  0.16448  1.0000
  C   C62       1.0  0.09357  0.39805  0.26972  1.0000
  C   C63       1.0  0.22380  0.34967  0.12833  1.0000
  H   H47       1.0  0.07778  0.39717  0.15326  1.0000
  C   C64       1.0  0.06203  0.39969  0.26039  1.0000
  H   H48       1.0  0.09600  0.47593  0.10005  1.0000
  S   S15       1.0  0.04565  0.46089  0.01531  1.0000
  C   C65       1.0  0.00271  0.38266  0.99246  1.0000
  H   H49       1.0  0.22980  0.44337  0.08618  1.0000
  C   C66       1.0  0.08615  0.41509  0.24008  1.0000
  P   P3        1.0  0.09269  0.42944  0.21878  1.0000
  C   C67       1.0  0.16933  0.47191  0.02377  1.0000
  C   C68       1.0  0.21648  0.44465  0.09464  1.0000
  H   H50       1.0  0.15940  0.40459  0.21481  1.0000
  C   C69       1.0  0.14308  0.45562  0.09694  1.0000
  C   C70       1.0  0.13040  0.41566  0.21649  1.0000
  C   C71       1.0  0.13710  0.44245  0.08620  1.0000
  C   C72       1.0  0.08223  0.47738  0.06452  1.0000
  C   C73       1.0  0.11389  0.43355  0.11142  1.0000
  H   H51       1.0  0.10302  0.42462  0.11714  1.0000
  C   C74       1.0  0.14392  0.45094  0.20836  1.0000
  H   H52       1.0  0.11516  0.46205  0.20896  1.0000
  H   H53       1.0  0.05718  0.41558  0.23417  1.0000
  H   H54       1.0  0.06097  0.45009  0.20000  1.0000
  C   C75       1.0  0.22678  0.36869  0.12457  1.0000
  C   C76       1.0  0.19768  0.43713  0.12371  1.0000
  H   H55       1.0  0.00574  0.38365  0.02173  1.0000
  Fe  Fe7       1.0  0.05846  0.43271  0.00713  1.0000
  C   C77       1.0  0.06582  0.45143  0.05717  1.0000
  C   C78       1.0  0.08288  0.44048  0.05446  1.0000
  C   C79       1.0  0.09962  0.44789  0.05672  1.0000
  C   C80       1.0  0.09932  0.46617  0.06199  1.0000
  C   C81       1.0  0.11765  0.43177  0.21549  1.0000
  C   C82       1.0  0.16598  0.47040  0.06314  1.0000
  C   C83       1.0  0.09906  0.40909  0.25334  1.0000
  H   H56       1.0  0.11354  0.44765  0.13643  1.0000
  H   H57       1.0  0.14918  0.46453  0.20440  1.0000
  C   C84       1.0  0.18211  0.44759  0.11655  1.0000
  H   H58       1.0  0.10433  0.35328  0.15871  1.0000
  C   C85       1.0  0.12456  0.44944  0.21100  1.0000
  H   H59       1.0  0.21151  0.36472  0.17520  1.0000
  H   H60       1.0  0.13384  0.39703  0.00327  1.0000
  C   C86       1.0  0.21478  0.43542  0.11269  1.0000
  H   H61       1.0  0.11339  0.41269  0.25116  1.0000
  Fe  Fe8       1.0  0.04986  0.39533  0.99604  1.0000
  H   H62       1.0  0.17712  0.44130  0.06192  1.0000
  C   C87       1.0  0.20092  0.45517  0.08744  1.0000
  C   C88       1.0  0.13308  0.36806  0.99846  1.0000
  C   C89       1.0  0.06747  0.41069  0.24397  1.0000
  C   C90       1.0  0.08388  0.46296  0.23525  1.0000
  H   H63       1.0  0.05723  0.23956  0.20512  1.0000
  H   H64       1.0  0.05290  0.44586  0.05476  1.0000
  H   H65       1.0  0.08316  0.42637  0.05021  1.0000
  H   H66       1.0  0.11281  0.43947  0.05406  1.0000
  H   H67       1.0  0.11247  0.47178  0.06343  1.0000
  C   C91       1.0  0.99955  0.43604  0.01031  1.0000
  H   H68       1.0  0.17146  0.43596  0.20728  1.0000
  H   H69       1.0  0.13021  0.36357  0.01322  1.0000
  H   H70       1.0  0.17037  0.47244  0.00861  1.0000
  H   H71       1.0  0.12547  0.40186  0.21922  1.0000
  H   H72       1.0  0.09499  0.45800  0.24413  1.0000
  H   H73       1.0  0.09500  0.44309  0.17915  1.0000
  H   H74       1.0  0.13852  0.46763  0.12358  1.0000
  C   C92       1.0  0.07380  0.48038  0.23768  1.0000
  H   H75       1.0  0.19875  0.48388  0.16385  1.0000
  C   C93       1.0  0.18379  0.48544  0.16272  1.0000
  C   C94       1.0  0.07205  0.47402  0.98856  1.0000
  H   H76       1.0  0.22660  0.42674  0.11813  1.0000
  C   C95       1.0  0.22582  0.35820  0.17455  1.0000
  C   C96       1.0  0.05484  0.47591  0.21286  1.0000
  C   C97       1.0  0.22960  0.33960  0.18185  1.0000
  H   H77       1.0  0.23785  0.35426  0.01468  1.0000
  C   C98       1.0  0.23818  0.33564  0.12338  1.0000
  H   H78       1.0  0.23567  0.32100  0.12637  1.0000
  H   H79       1.0  0.23286  0.07913  0.23300  1.0000
  S   S16       1.0  0.02725  0.38004  0.98528  1.0000
  H   H80       1.0  0.04349  0.48087  0.20427  1.0000
  H   H81       1.0  0.17528  0.29696  0.98551  1.0000
  H   H82       1.0  0.23741  0.38271  0.16021  1.0000
  C   C99       1.0  0.13381  0.35515  0.98507  1.0000
  C   C100      1.0  0.05933  0.48688  0.22644  1.0000
  Fe  Fe9       1.0  0.13933  0.13122  0.40366  1.0000
  S   S17       1.0  0.12735  0.15420  0.42108  1.0000
  S   S18       1.0  0.12181  0.10796  0.39764  1.0000
  Fe  Fe10      1.0  0.17834  0.14632  0.39805  1.0000
  S   S19       1.0  0.16820  0.17097  0.41543  1.0000
  S   S20       1.0  0.20911  0.14431  0.38437  1.0000
  Fe  Fe11      1.0  0.15385  0.14973  0.43555  1.0000
  S   S21       1.0  0.14671  0.14839  0.46735  1.0000
  Fe  Fe12      1.0  0.14221  0.17398  0.39978  1.0000
  S   S22       1.0  0.12169  0.20026  0.39481  1.0000
  S   S23       1.0  0.16525  0.12502  0.41937  1.0000
  S   S24       1.0  0.15304  0.15097  0.38120  1.0000
  Fe  Fe13      1.0  0.14242  0.14188  0.59196  1.0000
  S   S25       1.0  0.14176  0.16953  0.57440  1.0000
  S   S26       1.0  0.12395  0.11905  0.58718  1.0000
  Fe  Fe14      1.0  0.17982  0.14784  0.60799  1.0000
  S   S27       1.0  0.18121  0.17620  0.59140  1.0000
  S   S28       1.0  0.19978  0.13294  0.62951  1.0000
  Fe  Fe15      1.0  0.15006  0.18160  0.59988  1.0000
  S   S29       1.0  0.13616  0.21156  0.60378  1.0000
  Fe  Fe16      1.0  0.17249  0.16226  0.56730  1.0000
  S   S30       1.0  0.18697  0.16602  0.53771  1.0000
  S   S31       1.0  0.14894  0.15404  0.61801  1.0000
  S   S32       1.0  0.17288  0.13386  0.58327  1.0000
  C   C101      1.0  0.14030  0.29274  0.36274  1.0000
  Fe  Fe17      1.0  0.01122  0.08764  0.41292  1.0000
  S   S33       1.0  0.03237  0.10950  0.41342  1.0000
  S   S34       1.0  0.01013  0.05912  0.42898  1.0000
  S   S35       1.0  0.02565  0.07371  0.56953  1.0000
  S   S36       1.0  0.01408  0.02417  0.57734  1.0000
  Fe  Fe18      1.0  0.01835  0.09075  0.59404  1.0000
  S   S37       1.0  0.03790  0.10624  0.60895  1.0000
  C   C102      1.0  0.09824  0.17615  0.63304  1.0000
  S   S38       1.0  0.09102  0.35978  0.62661  1.0000
  Fe  Fe19      1.0  0.07631  0.33318  0.34651  1.0000
  S   S39       1.0  0.07001  0.30318  0.35430  1.0000
  S   S40       1.0  0.07543  0.35715  0.36547  1.0000
  H   H83       1.0  0.08279  0.30313  0.47178  1.0000
  Fe  Fe20      1.0  0.09319  0.29568  0.33216  1.0000
  S   S41       1.0  0.11623  0.27131  0.33390  1.0000
  C   C103      1.0  0.13764  0.25884  0.42121  1.0000
  Fe  Fe21      1.0  0.08084  0.41617  0.49162  1.0000
  S   S42       1.0  0.09358  0.38589  0.49421  1.0000
  S   S43       1.0  0.09764  0.44169  0.48922  1.0000
  Fe  Fe22      1.0  0.04159  0.40527  0.49408  1.0000
  S   S44       1.0  0.05070  0.37452  0.49720  1.0000
  S   S45       1.0  0.01222  0.41942  0.49315  1.0000
  Fe  Fe23      1.0  0.07043  0.38135  0.51728  1.0000
  S   S46       1.0  0.07176  0.35892  0.54215  1.0000
  Fe  Fe24      1.0  0.07301  0.38072  0.47393  1.0000
  S   S47       1.0  0.07767  0.35734  0.45405  1.0000
  S   S48       1.0  0.05921  0.41184  0.51614  1.0000
  S   S49       1.0  0.06246  0.41128  0.46942  1.0000
  C   C104      1.0  0.01657  0.15296  0.61871  1.0000
  C   C105      1.0  0.99947  0.38479  0.49227  1.0000
  C   C106      1.0  0.08166  0.99930  0.62496  1.0000
  H   H84       1.0  0.08946  0.25680  0.36404  1.0000
  C   C107      1.0  0.22534  0.04635  0.48066  1.0000
  H   H85       1.0  0.01336  0.37886  0.49486  1.0000
  H   H86       1.0  0.07480  0.22777  0.43038  1.0000
  H   H87       1.0  0.02558  0.43257  0.39075  1.0000
  H   H88       1.0  0.11137  0.14792  0.63410  1.0000
  H   H89       1.0  0.04935  0.21478  0.60300  1.0000
  C   C108      1.0  0.07524  0.35688  0.39024  1.0000
  C   C109      1.0  0.07393  0.37406  0.39835  1.0000
  C   C110      1.0  0.07420  0.37454  0.41788  1.0000
  C   C111      1.0  0.07601  0.35777  0.42951  1.0000
  C   C112      1.0  0.07694  0.34059  0.42143  1.0000
  C   C113      1.0  0.07640  0.34014  0.40195  1.0000
  H   H90       1.0  0.07299  0.38710  0.38942  1.0000
  H   H91       1.0  0.07350  0.38784  0.42386  1.0000
  H   H92       1.0  0.07824  0.32755  0.43029  1.0000
  H   H93       1.0  0.07713  0.32684  0.39595  1.0000
  C   C114      1.0  0.08675  0.35915  0.60282  1.0000
  C   C115      1.0  0.08265  0.34266  0.59596  1.0000
  C   C116      1.0  0.07888  0.34278  0.57712  1.0000
  C   C117      1.0  0.07879  0.35940  0.56501  1.0000
  C   C118      1.0  0.08332  0.37583  0.57172  1.0000
  C   C119      1.0  0.08736  0.37567  0.59053  1.0000
  H   H94       1.0  0.08233  0.32982  0.60518  1.0000
  H   H95       1.0  0.07588  0.32995  0.57191  1.0000
  H   H96       1.0  0.08353  0.38862  0.56246  1.0000
  H   H97       1.0  0.09072  0.38844  0.59566  1.0000
  C   C120      1.0  0.04906  0.30608  0.55304  1.0000
  H   H98       1.0  0.15486  0.21555  0.40822  1.0000
  H   H99       1.0  0.05787  0.27414  0.39126  1.0000
  C   C121      1.0  0.11182  0.18431  0.46403  1.0000
  C   C122      1.0  0.12432  0.22600  0.62102  1.0000
  C   C123      1.0  0.11896  0.24504  0.61560  1.0000
  C   C124      1.0  0.10922  0.25702  0.62852  1.0000
  H   H100      1.0  0.22721  0.13648  0.41833  1.0000
  H   H101      1.0  0.12244  0.25063  0.60129  1.0000
  H   H102      1.0  0.10526  0.27160  0.62407  1.0000
  C   C125      1.0  0.06113  0.11128  0.60066  1.0000
  C   C126      1.0  0.06895  0.12592  0.60788  1.0000
  C   C127      1.0  0.08790  0.12923  0.60310  1.0000
  C   C128      1.0  0.09941  0.11749  0.59149  1.0000
  C   C129      1.0  0.09149  0.10316  0.58389  1.0000
  C   C130      1.0  0.07239  0.10020  0.58825  1.0000
  H   H103      1.0  0.06042  0.13440  0.61767  1.0000
  H   H104      1.0  0.09376  0.14033  0.60899  1.0000
  H   H105      1.0  0.10026  0.09403  0.57485  1.0000
  H   H106      1.0  0.06661  0.08885  0.58264  1.0000
  C   C131      1.0  0.12010  0.21896  0.37670  1.0000
  C   C132      1.0  0.13505  0.22261  0.36327  1.0000
  C   C133      1.0  0.13355  0.23860  0.35020  1.0000
  C   C134      1.0  0.11718  0.25116  0.35044  1.0000
  C   C135      1.0  0.10217  0.24737  0.36375  1.0000
  C   C136      1.0  0.10361  0.23132  0.37671  1.0000
  H   H107      1.0  0.14787  0.21332  0.36313  1.0000
  H   H108      1.0  0.14525  0.24137  0.33994  1.0000
  H   H109      1.0  0.09191  0.22852  0.38690  1.0000
  C   C137      1.0  0.15807  0.15414  0.48647  1.0000
  C   C138      1.0  0.17481  0.16284  0.48408  1.0000
  C   C139      1.0  0.18352  0.16647  0.49987  1.0000
  C   C140      1.0  0.17547  0.16167  0.51814  1.0000
  C   C141      1.0  0.15863  0.15321  0.52048  1.0000
  C   C142      1.0  0.14999  0.14948  0.50474  1.0000
  H   H110      1.0  0.18110  0.16663  0.47009  1.0000
  H   H111      1.0  0.19656  0.17302  0.49792  1.0000
  H   H112      1.0  0.15253  0.14911  0.53446  1.0000
  H   H113      1.0  0.13709  0.14269  0.50674  1.0000
  C   C143      1.0  0.09697  0.10840  0.40248  1.0000
  C   C144      1.0  0.08619  0.12376  0.40980  1.0000
  C   C145      1.0  0.06654  0.12366  0.41330  1.0000
  C   C146      1.0  0.05733  0.10825  0.40953  1.0000
  C   C147      1.0  0.06811  0.09280  0.40234  1.0000
  C   C148      1.0  0.08780  0.09291  0.39882  1.0000
  H   H114      1.0  0.09297  0.13579  0.41264  1.0000
  H   H115      1.0  0.05840  0.13565  0.41894  1.0000
  H   H116      1.0  0.06126  0.08088  0.39929  1.0000
  H   H117      1.0  0.09597  0.08097  0.39311  1.0000
  C   C149      1.0  0.22354  0.10763  0.37655  1.0000
  C   C150      1.0  0.22678  0.12658  0.37624  1.0000
  H   H118      1.0  0.20988  0.10327  0.38182  1.0000
  H   H119      1.0  0.09860  0.19286  0.36091  1.0000
  H   H120      1.0  0.05724  0.17363  0.45212  1.0000
  H   H121      1.0  0.04081  0.24705  0.37520  1.0000
  S   S50       1.0  0.05627  0.33811  0.32399  1.0000
  C   C151      1.0  0.04083  0.16839  0.63050  1.0000
  C   C152      1.0  0.08390  0.16762  0.36432  1.0000
  C   C153      1.0  0.00785  0.35276  0.45367  1.0000
  C   C154      1.0  0.08610  0.46453  0.49130  1.0000
  H   H122      1.0  0.08370  0.20356  0.63598  1.0000
  H   H123      1.0  0.05835  0.45627  0.49013  1.0000
  H   H124      1.0  0.10998  0.31652  0.40292  1.0000
  H   H125      1.0  0.12899  0.17690  0.35007  1.0000
  C   C155      1.0  0.04323  0.16700  0.36469  1.0000
  C   C156      1.0  0.22410  0.12474  0.63165  1.0000
  C   C157      1.0  0.05054  0.02050  0.41768  1.0000
  C   C158      1.0  0.07526  0.17621  0.42640  1.0000
  C   C159      1.0  0.02646  0.38659  0.36833  1.0000
  C   C160      1.0  0.00282  0.00312  0.58245  1.0000
  C   C161      1.0  0.13881  0.22063  0.55167  1.0000
  C   C162      1.0  0.15666  0.21544  0.54319  1.0000
  C   C163      1.0  0.15855  0.20669  0.52656  1.0000
  C   C164      1.0  0.14264  0.20276  0.51856  1.0000
  C   C165      1.0  0.12459  0.20819  0.52682  1.0000
  C   C166      1.0  0.12284  0.21702  0.54356  1.0000
  P   P4        1.0  0.10405  0.20237  0.51683  1.0000
  C   C167      1.0  0.10987  0.20121  0.49187  1.0000
  C   C168      1.0  0.09731  0.17998  0.52773  1.0000
  C   C169      1.0  0.11051  0.16697  0.53615  1.0000
  C   C170      1.0  0.10535  0.14951  0.54429  1.0000
  C   C171      1.0  0.08692  0.14498  0.54420  1.0000
  C   C172      1.0  0.07370  0.15783  0.53574  1.0000
  C   C173      1.0  0.07887  0.17526  0.52747  1.0000
  C   C174      1.0  0.10659  0.18536  0.48317  1.0000
  C   C175      1.0  0.08493  0.22023  0.52144  1.0000
  C   C176      1.0  0.08007  0.23469  0.50766  1.0000
  C   C177      1.0  0.06590  0.24889  0.51188  1.0000
  C   C178      1.0  0.05652  0.24881  0.52987  1.0000
  C   C179      1.0  0.06112  0.23438  0.54358  1.0000
  C   C180      1.0  0.07505  0.22001  0.53932  1.0000
  H   H126      1.0  0.13741  0.22721  0.56471  1.0000
  H   H127      1.0  0.16904  0.21789  0.54969  1.0000
  H   H128      1.0  0.17243  0.20244  0.52016  1.0000
  H   H129      1.0  0.14454  0.19518  0.50612  1.0000
  H   H130      1.0  0.10927  0.22102  0.55058  1.0000
  H   H131      1.0  0.12479  0.17029  0.53647  1.0000
  H   H132      1.0  0.11565  0.13952  0.55078  1.0000
  H   H133      1.0  0.08294  0.13148  0.55064  1.0000
  H   H134      1.0  0.05949  0.15419  0.53545  1.0000
  H   H135      1.0  0.06853  0.18494  0.52075  1.0000
  H   H136      1.0  0.10057  0.17348  0.49111  1.0000
  H   H137      1.0  0.08715  0.23520  0.49369  1.0000
  H   H138      1.0  0.06234  0.26008  0.50122  1.0000
  H   H139      1.0  0.04577  0.25997  0.53321  1.0000
  H   H140      1.0  0.05412  0.23447  0.55761  1.0000
  H   H141      1.0  0.07843  0.20893  0.55011  1.0000
  H   H142      1.0  0.13247  0.14233  0.34830  1.0000
  C   C181      1.0  0.10361  0.13898  0.35799  1.0000
  C   C182      1.0  0.03932  0.36162  0.59886  1.0000
  C   C183      1.0  0.02960  0.16651  0.61605  1.0000
  H   H143      1.0  0.04707  0.37449  0.62238  1.0000
  C   C184      1.0  0.12382  0.21475  0.46197  1.0000
  H   H144      1.0  0.08697  0.28846  0.39403  1.0000
  C   C185      1.0  0.03968  0.36355  0.61790  1.0000
  H   H145      1.0  0.10541  0.12379  0.35819  1.0000
  H   H146      1.0  0.05159  0.27237  0.64123  1.0000
  C   C186      1.0  0.20654  0.13586  0.44219  1.0000
  H   H147      1.0  0.00562  0.11091  0.48755  1.0000
  C   C187      1.0  0.02069  0.32854  0.37199  1.0000
  C   C188      1.0  0.02741  0.33905  0.38469  1.0000
  C   C189      1.0  0.00168  0.30323  0.32747  1.0000
  H   H148      1.0  0.07404  0.19876  0.33604  1.0000
  C   C190      1.0  0.01514  0.14118  0.63535  1.0000
  C   C191      1.0  0.00145  0.32702  0.37230  1.0000
  H   H149      1.0  0.00766  0.15121  0.60785  1.0000
  H   H150      1.0  0.12977  0.24061  0.40183  1.0000
  C   C192      1.0  0.05241  0.48048  0.59748  1.0000
  H   H151      1.0  0.05159  0.24378  0.40944  1.0000
  H   H152      1.0  0.04662  0.02084  0.40347  1.0000
  H   H153      1.0  0.08215  0.22296  0.59823  1.0000
  C   C193      1.0  0.09268  0.19748  0.58590  1.0000
  C   C194      1.0  0.05933  0.20373  0.36314  1.0000
  C   C195      1.0  0.02762  0.43441  0.40511  1.0000
  C   C196      1.0  0.03834  0.27438  0.63494  1.0000
  H   H154      1.0  0.10384  0.24211  0.43362  1.0000
  H   H155      1.0  0.00538  0.40447  0.60997  1.0000
  C   C197      1.0  0.07735  0.24118  0.42272  1.0000
  C   C198      1.0  0.05434  0.01261  0.60956  1.0000
  C   C199      1.0  0.01489  0.34819  0.39767  1.0000
  C   C200      1.0  0.13942  0.24241  0.41193  1.0000
  C   C201      1.0  0.02244  0.33612  0.62557  1.0000
  H   H156      1.0  0.03042  0.32146  0.36193  1.0000
  H   H157      1.0  0.04233  0.34016  0.38439  1.0000
  H   H158      1.0  0.04399  0.02433  0.60648  1.0000
  H   H159      1.0  0.20872  0.09418  0.61497  1.0000
  C   C202      1.0  0.23582  0.06285  0.60914  1.0000
  C   C203      1.0  0.09657  0.47968  0.49310  1.0000
  H   H160      1.0  0.04410  0.14486  0.38750  1.0000
  C   C204      1.0  0.15041  0.26079  0.43427  1.0000
  C   C205      1.0  0.03104  0.34665  0.59313  1.0000
  C   C206      1.0  0.08833  0.18026  0.58092  1.0000
  H   H161      1.0  0.18588  0.13099  0.46538  1.0000
  C   C207      1.0  0.06687  0.20913  0.34484  1.0000
  C   C208      1.0  0.04339  0.47849  0.61563  1.0000
  C   C209      1.0  0.04086  0.47365  0.54283  1.0000
  C   C210      1.0  0.06538  0.22804  0.33778  1.0000
  C   C211      1.0  0.11467  0.29234  0.43510  1.0000
  C   C212      1.0  0.06659  0.46774  0.49160  1.0000
  C   C213      1.0  0.03488  0.17350  0.34815  1.0000
  H   H162      1.0  0.02848  0.21859  0.57318  1.0000
  C   C214      1.0  0.03098  0.40936  0.56749  1.0000
  H   H163      1.0  0.06390  0.30731  0.54917  1.0000
  C   C215      1.0  0.03620  0.45650  0.53766  1.0000
  H   H164      1.0  0.03351  0.38786  0.43360  1.0000
  C   C216      1.0  0.99183  0.01823  0.46274  1.0000
  H   H165      1.0  0.03390  0.35074  0.53648  1.0000
  H   H166      1.0  0.03694  0.35787  0.45317  1.0000
  H   H167      1.0  0.06380  0.99644  0.53438  1.0000
  H   H168      1.0  0.05478  0.25634  0.34322  1.0000
  C   C217      1.0  0.09776  0.26624  0.41385  1.0000
  C   C218      1.0  0.07554  0.45416  0.55845  1.0000
  C   C219      1.0  0.10274  0.42323  0.55672  1.0000
  C   C220      1.0  0.09511  0.43144  0.54044  1.0000
  C   C221      1.0  0.08164  0.44689  0.54126  1.0000
  C   C222      1.0  0.08661  0.18949  0.64265  1.0000
  H   H169      1.0  0.18330  0.07787  0.56794  1.0000
  P   P5        1.0  0.01212  0.31414  0.59924  1.0000
  C   C223      1.0  0.99514  0.40423  0.49085  1.0000
  C   C224      1.0  0.23117  0.04699  0.56452  1.0000
  H   H170      1.0  0.14948  0.27327  0.44167  1.0000
  H   H171      1.0  0.12368  0.36968  0.64294  1.0000
  C   C225      1.0  0.03379  0.41152  0.60562  1.0000
  H   H172      1.0  0.11313  0.41121  0.55600  1.0000
  H   H173      1.0  0.09972  0.42588  0.52711  1.0000
  H   H174      1.0  0.07606  0.45316  0.52845  1.0000
  C   C226      1.0  0.02345  0.39486  0.38529  1.0000
  H   H175      1.0  0.04350  0.30016  0.52552  1.0000
  H   H176      1.0  0.23373  0.15404  0.53860  1.0000
  C   C227      1.0  0.09393  0.24926  0.42435  1.0000
  C   C228      1.0  0.19938  0.10488  0.45613  1.0000
  C   C229      1.0  0.99006  0.08952  0.47916  1.0000
  P   P6        1.0  0.18546  0.09050  0.47304  1.0000
  C   C230      1.0  0.18662  0.05133  0.47767  1.0000
  C   C231      1.0  0.18306  0.09894  0.49610  1.0000
  C   C232      1.0  0.21630  0.06447  0.47810  1.0000
  C   C233      1.0  0.02201  0.30871  0.57609  1.0000
  Fe  Fe25      1.0  0.08353  0.33701  0.65004  1.0000
  C   C234      1.0  0.16695  0.09930  0.52750  1.0000
  C   C235      1.0  0.16899  0.09277  0.50966  1.0000
  H   H177      1.0  0.00628  0.24698  0.57643  1.0000
  C   C236      1.0  0.23624  0.10640  0.54751  1.0000
  H   H178      1.0  0.13674  0.31972  0.34693  1.0000
  C   C237      1.0  0.16327  0.09059  0.46331  1.0000
  C   C238      1.0  0.16240  0.08134  0.44717  1.0000
  C   C239      1.0  0.14569  0.08269  0.43851  1.0000
  C   C240      1.0  0.12980  0.09339  0.44579  1.0000
  C   C241      1.0  0.13060  0.10274  0.46174  1.0000
  C   C242      1.0  0.14726  0.10139  0.47045  1.0000
  C   C243      1.0  0.19660  0.09109  0.60843  1.0000
  H   H179      1.0  0.04185  0.47792  0.45851  1.0000
  S   S51       1.0  0.00729  0.02235  0.39493  1.0000
  H   H180      1.0  0.03005  0.40883  0.55261  1.0000
  H   H181      1.0  0.99589  0.30230  0.56666  1.0000
  C   C244      1.0  0.22236  0.13923  0.56398  1.0000
  C   C245      1.0  0.02576  0.01336  0.50786  1.0000
  H   H182      1.0  0.15564  0.09509  0.53769  1.0000
  H   H183      1.0  0.15935  0.08323  0.50630  1.0000
  H   H184      1.0  0.13906  0.30751  0.42617  1.0000
  H   H185      1.0  0.17744  0.09929  0.63175  1.0000
  H   H186      1.0  0.22211  0.01667  0.48343  1.0000
  C   C246      1.0  0.16628  0.23017  0.42856  1.0000
  H   H187      1.0  0.14520  0.07619  0.42562  1.0000
  H   H188      1.0  0.11708  0.09500  0.43864  1.0000
  H   H189      1.0  0.11855  0.11172  0.46688  1.0000
  H   H190      1.0  0.14777  0.10958  0.48217  1.0000
  C   C247      1.0  0.03099  0.35100  0.63122  1.0000
  C   C248      1.0  0.01805  0.14906  0.54601  1.0000
  C   C249      1.0  0.10441  0.25006  0.64707  1.0000
  C   C250      1.0  0.01798  0.42423  0.42009  1.0000
  C   C251      1.0  0.10192  0.10405  0.64556  1.0000
  C   C252      1.0  0.04363  0.01256  0.45112  1.0000
  C   C253      1.0  0.03911  0.01247  0.43260  1.0000
  C   C254      1.0  0.02280  0.33359  0.60646  1.0000
  C   C255      1.0  0.06653  0.02867  0.42107  1.0000
  C   C256      1.0  0.07129  0.02858  0.43942  1.0000
  C   C257      1.0  0.05994  0.02050  0.45440  1.0000
  C   C258      1.0  0.19568  0.11091  0.50103  1.0000
  C   C259      1.0  0.02657  0.01995  0.48875  1.0000
  P   P7        1.0  0.05790  0.47397  0.55959  1.0000
  C   C260      1.0  0.02529  0.02593  0.52158  1.0000
  C   C261      1.0  0.02566  0.04516  0.51636  1.0000
  C   C262      1.0  0.02640  0.05183  0.49742  1.0000
  C   C263      1.0  0.02668  0.03935  0.48368  1.0000
  C   C264      1.0  0.19363  0.11734  0.51889  1.0000
  H   H191      1.0  0.04057  0.14273  0.58558  1.0000
  H   H192      1.0  0.07504  0.03534  0.40947  1.0000
  H   H193      1.0  0.08354  0.03521  0.44201  1.0000
  H   H194      1.0  0.06359  0.02093  0.46856  1.0000
  H   H195      1.0  0.98912  0.35778  0.49164  1.0000
  C   C265      1.0  0.10739  0.31750  0.46295  1.0000
  C   C266      1.0  0.01710  0.40684  0.59963  1.0000
  H   H196      1.0  0.02504  0.05496  0.52699  1.0000
  C   C267      1.0  0.09527  0.30367  0.46205  1.0000
  H   H197      1.0  0.02690  0.04493  0.46910  1.0000
  H   H198      1.0  0.02813  0.17457  0.43608  1.0000
  C   C268      1.0  0.04155  0.17564  0.42791  1.0000
  H   H199      1.0  0.13233  0.32975  0.45057  1.0000
  C   C269      1.0  0.04253  0.17712  0.40831  1.0000
  C   C270      1.0  0.15366  0.22816  0.41556  1.0000
  C   C271      1.0  0.07629  0.17750  0.40684  1.0000
  C   C272      1.0  0.21951  0.12768  0.42892  1.0000
  H   H200      1.0  0.21691  0.15198  0.57034  1.0000
  C   C273      1.0  0.02032  0.42755  0.43856  1.0000
  C   C274      1.0  0.02435  0.14037  0.36850  1.0000
  C   C275      1.0  0.19694  0.06706  0.47623  1.0000
  C   C276      1.0  0.01708  0.29329  0.61481  1.0000
  C   C277      1.0  0.01844  0.30049  0.54479  1.0000
  C   C278      1.0  0.01287  0.47290  0.51845  1.0000
  C   C279      1.0  0.04818  0.23641  0.36685  1.0000
  H   H201      1.0  0.08802  0.17577  0.43326  1.0000
  H   H202      1.0  0.02046  0.12740  0.37635  1.0000
  C   C280      1.0  0.05998  0.17762  0.39765  1.0000
  H   H203      1.0  0.20696  0.11556  0.49110  1.0000
  C   C281      1.0  0.02509  0.26131  0.63948  1.0000
  H   H204      1.0  0.20284  0.12726  0.52239  1.0000
  Fe  Fe26      1.0  0.00384  0.05462  0.58267  1.0000
  C   C282      1.0  0.04920  0.41465  0.59263  1.0000
  H   H205      1.0  0.09942  0.17025  0.57568  1.0000
  H   H206      1.0  0.11000  0.17169  0.45760  1.0000
  C   C283      1.0  0.12321  0.31873  0.45007  1.0000
  C   C284      1.0  0.02086  0.46020  0.60480  1.0000
  H   H207      1.0  0.07951  0.45156  0.58810  1.0000
  C   C285      1.0  0.13599  0.28218  0.37975  1.0000
  C   C286      1.0  0.19570  0.03322  0.48028  1.0000
  H   H208      1.0  0.09268  0.48357  0.53711  1.0000
  C   C287      1.0  0.03777  0.15037  0.37483  1.0000
  H   H209      1.0  0.04610  0.37137  0.58855  1.0000
  H   H210      1.0  0.12467  0.19795  0.43860  1.0000
  C   C288      1.0  0.02985  0.46214  0.58665  1.0000
  H   H211      1.0  0.04324  0.44335  0.54300  1.0000
  C   C289      1.0  0.01620  0.14687  0.35198  1.0000
  C   C290      1.0  0.22909  0.11419  0.64832  1.0000
  C   C291      1.0  0.11875  0.21581  0.48114  1.0000
  H   H212      1.0  0.12201  0.22788  0.48768  1.0000
  H   H213      1.0  0.02652  0.00676  0.42951  1.0000
  H   H214      1.0  0.02464  0.45531  0.57575  1.0000
  C   C292      1.0  0.09958  0.17791  0.35956  1.0000
  C   C293      1.0  0.19859  0.08509  0.59029  1.0000
  H   H215      1.0  0.00344  0.17493  0.53547  1.0000
  H   H216      1.0  0.05252  0.45966  0.42978  1.0000
  C   C294      1.0  0.04771  0.41379  0.57356  1.0000
  H   H217      1.0  0.02644  0.06678  0.49339  1.0000
  H   H218      1.0  0.15059  0.34779  0.63229  1.0000
  H   H219      1.0  0.11722  0.33479  0.37276  1.0000
  H   H220      1.0  0.99266  0.47692  0.41539  1.0000
  H   H221      1.0  0.23143  0.10195  0.41784  1.0000
  H   H222      1.0  0.02917  0.37508  0.55834  1.0000
  H   H223      1.0  0.10712  0.20093  0.58422  1.0000
  C   C295      1.0  0.04138  0.30899  0.57126  1.0000
  C   C296      1.0  0.08357  0.44605  0.57471  1.0000
  H   H224      1.0  0.02291  0.98796  0.56391  1.0000
  H   H225      1.0  0.20402  0.15102  0.44175  1.0000
  C   C297      1.0  0.13371  0.31171  0.36028  1.0000
  C   C298      1.0  0.02139  0.16348  0.34187  1.0000
  P   P8        1.0  0.00135  0.40827  0.41603  1.0000
  C   C299      1.0  0.12035  0.19901  0.45339  1.0000
  C   C300      1.0  0.01121  0.38281  0.35921  1.0000
  C   C301      1.0  0.09702  0.43057  0.57384  1.0000
  H   H226      1.0  0.05090  0.17878  0.62888  1.0000
  H   H227      1.0  0.01596  0.32639  0.63613  1.0000
  C   C302      1.0  0.07854  0.20992  0.59371  1.0000
  C   C303      1.0  0.09887  0.29110  0.44820  1.0000
  C   C304      1.0  0.11892  0.14942  0.35258  1.0000
  H   H228      1.0  0.03142  0.34515  0.57834  1.0000
  C   C305      1.0  0.19635  0.12451  0.45560  1.0000
  C   C306      1.0  0.02760  0.46838  0.61929  1.0000
  C   C307      1.0  0.05769  0.48583  0.49387  1.0000
  H   H229      1.0  0.10139  0.08404  0.62527  1.0000
  C   C308      1.0  0.09333  0.09167  0.63611  1.0000
  H   H230      1.0  0.20667  0.08344  0.54103  1.0000
  H   H231      1.0  0.10309  0.42424  0.58642  1.0000
  C   C309      1.0  0.05793  0.17510  0.43695  1.0000
  H   H232      1.0  0.02022  0.35632  0.40750  1.0000
  H   H233      1.0  0.00008  0.37082  0.60480  1.0000
  H   H234      1.0  0.13082  0.22593  0.45381  1.0000
  C   C310      1.0  0.11978  0.21910  0.63963  1.0000
  H   H235      1.0  0.22442  0.07648  0.47740  1.0000
  C   C311      1.0  0.03929  0.15661  0.64717  1.0000
  C   C312      1.0  0.02651  0.14295  0.64956  1.0000
  H   H236      1.0  0.03494  0.41232  0.62041  1.0000
  H   H237      1.0  0.04385  0.21377  0.38816  1.0000
  H   H238      1.0  0.18772  0.02111  0.48107  1.0000
  C   C313      1.0  0.00807  0.26390  0.63134  1.0000
  H   H239      1.0  0.00946  0.33954  0.46225  1.0000
  H   H240      1.0  0.03314  0.12519  0.56006  1.0000
  C   C314      1.0  0.04010  0.44710  0.40862  1.0000
  C   C315      1.0  0.06976  0.17569  0.58311  1.0000
  C   C316      1.0  0.05995  0.20527  0.59623  1.0000
  Fe  Fe27      1.0  0.05139  0.30767  0.33043  1.0000
  H   H241      1.0  0.04486  0.30017  0.61909  1.0000
  C   C317      1.0  0.22197  0.10816  0.42874  1.0000
  C   C318      1.0  0.00522  0.00263  0.46277  1.0000
  C   C319      1.0  0.01711  0.21846  0.58423  1.0000
  C   C320      1.0  0.02244  0.45616  0.52538  1.0000
  C   C321      1.0  0.04990  0.21753  0.37408  1.0000
  C   C322      1.0  0.06431  0.25016  0.41086  1.0000
  H   H242      1.0  0.00955  0.29715  0.53453  1.0000
  C   C323      1.0  0.05531  0.18831  0.59043  1.0000
  H   H243      1.0  0.05048  0.31201  0.58147  1.0000
  H   H244      1.0  0.05965  0.41620  0.56345  1.0000
  P   P9        1.0  0.22159  0.08256  0.57744  1.0000
  C   C324      1.0  0.06785  0.26722  0.40062  1.0000
  H   H245      1.0  0.01452  0.14115  0.53498  1.0000
  C   C325      1.0  0.21181  0.09677  0.44218  1.0000
  H   H246      1.0  0.01938  0.44288  0.52104  1.0000
  H   H247      1.0  0.01362  0.37598  0.34630  1.0000
  C   C326      1.0  0.99811  0.09873  0.49219  1.0000
  S   S52       1.0  0.99832  0.07047  0.60867  1.0000
  H   H248      1.0  0.07473  0.13947  0.36836  1.0000
  C   C327      1.0  0.03277  0.15007  0.57459  1.0000
  H   H249      1.0  0.11663  0.10580  0.64177  1.0000
  H   H250      1.0  0.06687  0.16212  0.57941  1.0000
  H   H251      1.0  0.02971  0.17749  0.40153  1.0000
  C   C328      1.0  0.03441  0.29022  0.62253  1.0000
  C   C329      1.0  0.08617  0.14800  0.36383  1.0000
  C   C330      1.0  0.14614  0.34787  0.64712  1.0000
  H   H252      1.0  0.22267  0.05648  0.61144  1.0000
  H   H253      1.0  0.02438  0.02087  0.53634  1.0000
  C   C331      1.0  0.03755  0.30205  0.53973  1.0000
  P   P10       1.0  0.03151  0.18167  0.59449  1.0000
  C   C332      1.0  0.01496  0.20225  0.59660  1.0000
  C   C333      1.0  0.08447  0.27529  0.40216  1.0000
  P   P11       1.0  0.06146  0.17927  0.37236  1.0000
  P   P12       1.0  0.11892  0.27699  0.41641  1.0000
  H   H254      1.0  0.12390  0.20459  0.64413  1.0000
  H   H255      1.0  0.21347  0.08173  0.44137  1.0000
  C   C334      1.0  0.99902  0.38018  0.55657  1.0000
  H   H256      1.0  0.04067  0.38255  0.36255  1.0000
  S   S53       1.0  0.06446  0.31465  0.64743  1.0000
  C   C335      1.0  0.98984  0.39558  0.38401  1.0000
  C   C336      1.0  0.02649  0.16918  0.57516  1.0000
  C   C337      1.0  0.17918  0.11170  0.53205  1.0000
  C   C338      1.0  0.01600  0.17815  0.56082  1.0000
  S   S54       1.0  0.99561  0.10915  0.58033  1.0000
  H   H257      1.0  0.00881  0.45210  0.60768  1.0000
  H   H258      1.0  0.08990  0.17810  0.39898  1.0000
  H   H259      1.0  0.03889  0.18615  0.33994  1.0000
  C   C339      1.0  0.11863  0.30972  0.39193  1.0000
  P   P13       1.0  0.02804  0.00390  0.47068  1.0000
  H   H260      1.0  0.10424  0.32764  0.47329  1.0000
  S   S55       1.0  0.10117  0.32555  0.32597  1.0000
  C   C340      1.0  0.00450  0.23450  0.58596  1.0000
  H   H261      1.0  0.17452  0.24806  0.44796  1.0000
  H   H262      1.0  0.17733  0.11722  0.54566  1.0000
  C   C341      1.0  0.01070  0.30360  0.56298  1.0000
  H   H263      1.0  0.17160  0.05301  0.47672  1.0000
  H   H264      1.0  0.99656  0.31838  0.36267  1.0000
  H   H265      1.0  0.17480  0.07369  0.44085  1.0000
  C   C342      1.0  0.12690  0.30617  0.43624  1.0000
  C   C343      1.0  0.99558  0.34705  0.39776  1.0000
  C   C344      1.0  0.21506  0.03072  0.48166  1.0000
  C   C345      1.0  0.12278  0.32018  0.37483  1.0000
  C   C346      1.0  0.01581  0.40503  0.58055  1.0000
  H   H266      1.0  0.02504  0.99867  0.51234  1.0000
  H   H267      1.0  0.00594  0.13895  0.34702  1.0000
  H   H268      1.0  0.03547  0.39683  0.39257  1.0000
  C   C347      1.0  0.01709  0.37138  0.55225  1.0000
  C   C348      1.0  0.99654  0.09208  0.51118  1.0000
  C   C349      1.0  0.16463  0.08507  0.59165  1.0000
  C   C350      1.0  0.06842  0.01447  0.62107  1.0000
  C   C351      1.0  0.22222  0.06511  0.56087  1.0000
  Fe  Fe28      1.0  0.99592  0.05099  0.40481  1.0000
  C   C352      1.0  0.10243  0.15816  0.64175  1.0000
  H   H269      1.0  0.06231  0.41761  0.59739  1.0000
  C   C353      1.0  0.12528  0.29064  0.39459  1.0000
  H   H270      1.0  0.15213  0.08337  0.58498  1.0000
  C   C354      1.0  0.99592  0.00124  0.39914  1.0000
  H   H271      1.0  0.23514  0.13663  0.60466  1.0000
  S   S56       1.0  0.99874  0.07924  0.38785  1.0000
  C   C355      1.0  0.02858  0.14007  0.56012  1.0000
  C   C356      1.0  0.04265  0.45004  0.42706  1.0000
  C   C357      1.0  0.21360  0.05609  0.53143  1.0000
  H   H272      1.0  0.14899  0.09406  0.61679  1.0000
  H   H273      1.0  0.01071  0.19276  0.56087  1.0000
  H   H274      1.0  0.02074  0.46670  0.63340  1.0000
  C   C358      1.0  0.16467  0.24649  0.43792  1.0000
  C   C359      1.0  0.01182  0.16810  0.54632  1.0000
  C   C360      1.0  0.03256  0.44045  0.44201  1.0000
  C   C361      1.0  0.00511  0.39990  0.39301  1.0000
  S   S57       1.0  0.00639  0.10377  0.52744  1.0000
  H   H275      1.0  0.03440  0.44274  0.45635  1.0000
  Fe  Fe29      1.0  0.00149  0.09058  0.55694  1.0000
  H   H276      1.0  0.02802  0.24925  0.64940  1.0000
  C   C362      1.0  0.01987  0.35731  0.53990  1.0000
  C   C363      1.0  0.00471  0.35191  0.53173  1.0000
  H   H277      1.0  0.21237  0.12119  0.58756  1.0000
  H   H278      1.0  0.08910  0.28075  0.44754  1.0000
  C   C364      1.0  0.00359  0.38730  0.43192  1.0000
  C   C365      1.0  0.23132  0.03356  0.55168  1.0000
  H   H279      1.0  0.14818  0.28601  0.35119  1.0000
  C   C366      1.0  0.21956  0.12171  0.57358  1.0000
  H   H280      1.0  0.11169  0.47733  0.49282  1.0000
  C   C367      1.0  0.02330  0.36313  0.44865  1.0000
  C   C368      1.0  0.04553  0.47257  0.58277  1.0000
  H   H281      1.0  0.99146  0.09458  0.46451  1.0000
  S   S58       1.0  0.02325  0.29499  0.33690  1.0000
  H   H282      1.0  0.17731  0.21908  0.43134  1.0000
  H   H283      1.0  0.00238  0.47259  0.50874  1.0000
  C   C369      1.0  0.07411  0.08989  0.63987  1.0000
  C   C370      1.0  0.18241  0.08208  0.58198  1.0000
  C   C371      1.0  0.05599  0.24167  0.34875  1.0000
  C   C372      1.0  0.02123  0.38029  0.43771  1.0000
  H   H284      1.0  0.99477  0.03112  0.46795  1.0000
  C   C373      1.0  0.11694  0.16887  0.35350  1.0000
  H   H285      1.0  0.14073  0.26738  0.38097  1.0000
  C   C374      1.0  0.16282  0.09109  0.60965  1.0000
  H   H286      1.0  0.99010  0.33771  0.57227  1.0000
  H   H287      1.0  0.06901  0.02768  0.62696  1.0000
  H   H288      1.0  0.04788  0.45460  0.39704  1.0000
  H   H289      1.0  0.00698  0.34131  0.52183  1.0000
  H   H290      1.0  0.20667  0.05965  0.51870  1.0000
  H   H291      1.0  0.01272  0.42014  0.45036  1.0000
  C   C375      1.0  0.99978  0.20224  0.61053  1.0000
  C   C376      1.0  0.17881  0.09401  0.61805  1.0000
  H   H292      1.0  0.10446  0.17986  0.61899  1.0000
  H   H293      1.0  0.06732  0.08081  0.63204  1.0000
  C   C377      1.0  0.98870  0.33642  0.38505  1.0000
  C   C378      1.0  0.05348  0.99562  0.60196  1.0000
  C   C379      1.0  0.21355  0.06955  0.54417  1.0000
  H   H294      1.0  0.22256  0.02766  0.52529  1.0000
  H   H295      1.0  0.01512  0.16847  0.32901  1.0000
  H   H296      1.0  0.00547  0.13034  0.63699  1.0000
  H   H297      1.0  0.04246  0.99455  0.59305  1.0000
  H   H298      1.0  0.99754  0.18990  0.62012  1.0000
  H   H299      1.0  0.07212  0.98995  0.56689  1.0000
  H   H300      1.0  0.99462  0.41203  0.53255  1.0000
  C   C380      1.0  0.99290  0.38726  0.36706  1.0000
  H   H301      1.0  0.23510  0.07976  0.37010  1.0000
  H   H302      1.0  0.04880  0.48461  0.62691  1.0000
  H   H303      1.0  0.03136  0.35257  0.64597  1.0000
  C   C381      1.0  0.00414  0.27972  0.61885  1.0000
  H   H304      1.0  0.09255  0.00075  0.63392  1.0000
  H   H305      1.0  0.23826  0.01961  0.55459  1.0000
  H   H306      1.0  0.07160  0.23220  0.32382  1.0000
  H   H307      1.0  0.99092  0.28145  0.61265  1.0000
  P   P14       1.0  0.99462  0.39840  0.57256  1.0000
  C   C382      1.0  0.23794  0.09428  0.36986  1.0000
  C   C383      1.0  0.99027  0.35963  0.44790  1.0000
  C   C384      1.0  0.22596  0.10515  0.56521  1.0000
  H   H308      1.0  0.00826  0.47841  0.47040  1.0000
  H   H309      1.0  0.99777  0.25381  0.63497  1.0000
  C   C385      1.0  0.22250  0.03809  0.53517  1.0000
  C   C386      1.0  0.23194  0.14038  0.54610  1.0000
  H   H310      1.0  0.23805  0.04316  0.57722  1.0000
  C   C387      1.0  0.98951  0.23439  0.59993  1.0000
  Fe  Fe30      1.0  0.17336  0.38055  0.83321  1.0000
  S   S59       1.0  0.14661  0.36695  0.83118  1.0000
  S   S60       1.0  0.19764  0.35857  0.84124  1.0000
  Fe  Fe31      1.0  0.15370  0.42026  0.82506  1.0000
  S   S61       1.0  0.12621  0.40862  0.82269  1.0000
  S   S62       1.0  0.14814  0.45232  0.82430  1.0000
  Fe  Fe32      1.0  0.13269  0.38992  0.84851  1.0000
  S   S63       1.0  0.11004  0.38521  0.87276  1.0000
  Fe  Fe33      1.0  0.14220  0.38680  0.80524  1.0000
  S   S64       1.0  0.13242  0.38298  0.77587  1.0000
  S   S65       1.0  0.15934  0.40238  0.85185  1.0000
  S   S66       1.0  0.16975  0.39945  0.80625  1.0000
  Fe  Fe34      1.0  0.08469  0.41357  0.97699  1.0000
  H   H311      1.0  0.18974  0.48627  0.74615  1.0000
  S   S67       1.0  0.10429  0.42130  0.95089  1.0000
  Fe  Fe35      1.0  0.08589  0.32734  0.69292  1.0000
  S   S68       1.0  0.06680  0.30409  0.69280  1.0000
  S   S69       1.0  0.09595  0.33210  0.72186  1.0000
  C   C388      1.0  0.11876  0.43164  0.76322  1.0000
  Fe  Fe36      1.0  0.04902  0.32399  0.67420  1.0000
  S   S70       1.0  0.01744  0.33300  0.67857  1.0000
  Fe  Fe37      1.0  0.08364  0.29600  0.66594  1.0000
  C   C389      1.0  0.01479  0.44837  0.92903  1.0000
  S   S71       1.0  0.06702  0.34764  0.67577  1.0000
  C   C390      1.0  0.15423  0.28441  0.97295  1.0000
  C   C391      1.0  0.12886  0.47276  0.94318  1.0000
  H   H312      1.0  0.18784  0.45904  0.81467  1.0000
  P   P15       1.0  0.10224  0.13053  0.67151  1.0000
  H   H313      1.0  0.98952  0.40700  0.93884  1.0000
  C   C392      1.0  0.09593  0.14087  0.72670  1.0000
  H   H314      1.0  0.12511  0.47017  0.85397  1.0000
  S   S72       1.0  0.10387  0.31793  0.66711  1.0000
  H   H315      1.0  0.18055  0.28036  0.69801  1.0000
  H   H316      1.0  0.13348  0.15484  0.66297  1.0000
  C   C393      1.0  0.12530  0.46063  0.78416  1.0000
  C   C394      1.0  0.16083  0.32695  0.71830  1.0000
  C   C395      1.0  0.12172  0.36867  0.76139  1.0000
  C   C396      1.0  0.11712  0.35037  0.76739  1.0000
  C   C397      1.0  0.10932  0.33953  0.75518  1.0000
  C   C398      1.0  0.10575  0.34671  0.73676  1.0000
  C   C399      1.0  0.11022  0.36507  0.73082  1.0000
  C   C400      1.0  0.11817  0.37584  0.74296  1.0000
  H   H317      1.0  0.11972  0.34447  0.78140  1.0000
  H   H318      1.0  0.10599  0.32543  0.76009  1.0000
  H   H319      1.0  0.10752  0.37103  0.71686  1.0000
  H   H320      1.0  0.12165  0.38987  0.73798  1.0000
  C   C401      1.0  0.10572  0.41093  0.92939  1.0000
  C   C402      1.0  0.12013  0.41530  0.91539  1.0000
  C   C403      1.0  0.12154  0.40774  0.89792  1.0000
  C   C404      1.0  0.10854  0.39563  0.89428  1.0000
  C   C405      1.0  0.09406  0.39139  0.90825  1.0000
  C   C406      1.0  0.09271  0.39886  0.92576  1.0000
  H   H321      1.0  0.13026  0.42462  0.91803  1.0000
  H   H322      1.0  0.13262  0.41133  0.88726  1.0000
  H   H323      1.0  0.08387  0.38216  0.90552  1.0000
  H   H324      1.0  0.08158  0.39535  0.93642  1.0000
  H   H325      1.0  0.22978  0.32511  0.89825  1.0000
  C   C407      1.0  0.16025  0.47293  0.82032  1.0000
  H   H326      1.0  0.03834  0.46192  0.97344  1.0000
  C   C408      1.0  0.18965  0.29056  0.69107  1.0000
  H   H327      1.0  0.06196  0.47822  0.91775  1.0000
  C   C409      1.0  0.09441  0.43920  0.87332  1.0000
  C   C410      1.0  0.16339  0.34113  0.75283  1.0000
  C   C411      1.0  0.07194  0.11313  0.66234  1.0000
  H   H328      1.0  0.07402  0.10064  0.73143  1.0000
  C   C412      1.0  0.11732  0.28383  0.71414  1.0000
  H   H329      1.0  0.04813  0.15795  0.65817  1.0000
  H   H330      1.0  0.16640  0.32528  0.65519  1.0000
  C   C413      1.0  0.21010  0.45034  0.77371  1.0000
  H   H331      1.0  0.07021  0.19526  0.66848  1.0000
  H   H332      1.0  0.21263  0.34973  0.95470  1.0000
  C   C414      1.0  0.11543  0.46351  0.86445  1.0000
  H   H333      1.0  0.23051  0.35404  0.91369  1.0000
  C   C415      1.0  0.99855  0.30351  0.66978  1.0000
  H   H334      1.0  0.23468  0.29279  0.67172  1.0000
  C   C416      1.0  0.22875  0.37268  0.85365  1.0000
  C   C417      1.0  0.08616  0.12600  0.73536  1.0000
  H   H335      1.0  0.07746  0.16355  0.68404  1.0000
  C   C418      1.0  0.10070  0.14219  0.70732  1.0000
  H   H336      1.0  0.01272  0.44400  0.98307  1.0000
  H   H337      1.0  0.13217  0.26473  0.67328  1.0000
  C   C419      1.0  0.14900  0.33500  0.67935  1.0000
  C   C420      1.0  0.20594  0.40304  0.93901  1.0000
  H   H338      1.0  0.15483  0.28862  0.67171  1.0000
  H   H339      1.0  0.22218  0.38658  0.84990  1.0000
  C   C421      1.0  0.08607  0.11362  0.70527  1.0000
  C   C422      1.0  0.22670  0.37473  0.94536  1.0000
  C   C423      1.0  0.16112  0.34634  0.71933  1.0000
  H   H340      1.0  0.08266  0.10259  0.69737  1.0000
  C   C424      1.0  0.99777  0.32257  0.67257  1.0000
  C   C425      1.0  0.22032  0.29749  0.67640  1.0000
  C   C426      1.0  0.18305  0.30961  0.68822  1.0000
  H   H341      1.0  0.17491  0.45536  0.69481  1.0000
  H   H342      1.0  0.12751  0.45933  0.91817  1.0000
  C   C427      1.0  0.08132  0.11234  0.72466  1.0000
  C   C428      1.0  0.99682  0.30932  0.74384  1.0000
  C   C429      1.0  0.12748  0.12573  0.66941  1.0000
  H   H343      1.0  0.03697  0.45078  0.90658  1.0000
  H   H344      1.0  0.15846  0.27028  0.97873  1.0000
  C   C430      1.0  0.12453  0.35979  0.67211  1.0000
  C   C431      1.0  0.05115  0.46799  0.94544  1.0000
  C   C432      1.0  0.10700  0.44801  0.86007  1.0000
  H   H345      1.0  0.10855  0.15364  0.70085  1.0000
  H   H346      1.0  0.22843  0.36239  0.98274  1.0000
  C   C433      1.0  0.07913  0.18482  0.66101  1.0000
  C   C434      1.0  0.15874  0.13642  0.66406  1.0000
  C   C435      1.0  0.10969  0.43290  0.78120  1.0000
  C   C436      1.0  0.15632  0.48080  0.69261  1.0000
  C   C437      1.0  0.13449  0.45946  0.76611  1.0000
  C   C438      1.0  0.19543  0.32262  0.67992  1.0000
  C   C439      1.0  0.03518  0.41483  0.94097  1.0000
  C   C440      1.0  0.04189  0.42561  0.92495  1.0000
  C   C441      1.0  0.03171  0.44240  0.91899  1.0000
  H   H347      1.0  0.00133  0.31131  0.71368  1.0000
  H   H348      1.0  0.19072  0.33745  0.67812  1.0000
  C   C442      1.0  0.01835  0.42079  0.95101  1.0000
  H   H349      1.0  0.16368  0.34673  0.76624  1.0000
  H   H350      1.0  0.23600  0.40208  0.93552  1.0000
  C   C443      1.0  0.09553  0.15354  0.66038  1.0000
  H   H351      1.0  0.12791  0.34642  0.69970  1.0000
  C   C444      1.0  0.21970  0.35691  0.85105  1.0000
  C   C445      1.0  0.10973  0.23099  0.65247  1.0000
  C   C446      1.0  0.16263  0.31468  0.73462  1.0000
  H   H352      1.0  0.10641  0.44807  0.80584  1.0000
  C   C447      1.0  0.11170  0.47005  0.88229  1.0000
  S   S73       1.0  0.09117  0.26414  0.66384  1.0000
  C   C448      1.0  0.16227  0.35338  0.73656  1.0000
  H   H353      1.0  0.07381  0.46003  0.98401  1.0000
  H   H354      1.0  0.22342  0.32663  0.66741  1.0000
  H   H355      1.0  0.22178  0.32663  0.85409  1.0000
  C   C449      1.0  0.19076  0.47403  0.75620  1.0000
  H   H356      1.0  0.16177  0.36839  0.73750  1.0000
  H   H357      1.0  0.16289  0.29964  0.73409  1.0000
  C   C450      1.0  0.11824  0.27193  0.69982  1.0000
  C   C451      1.0  0.14482  0.28702  0.68392  1.0000
  H   H358      1.0  0.04300  0.40179  0.94574  1.0000
  H   H359      1.0  0.05497  0.42088  0.91724  1.0000
  C   C452      1.0  0.98973  0.38209  0.97917  1.0000
  H   H360      1.0  0.17626  0.39989  0.94341  1.0000
  H   H361      1.0  0.01322  0.41209  0.96322  1.0000
  H   H362      1.0  0.00724  0.46139  0.92416  1.0000
  C   C453      1.0  0.09542  0.12882  0.69640  1.0000
  H   H363      1.0  0.12217  0.30800  0.94558  1.0000
  C   C454      1.0  0.16494  0.46440  0.72199  1.0000
  H   H364      1.0  0.01095  0.30313  0.74580  1.0000
  C   C455      1.0  0.14423  0.29878  0.69847  1.0000
  C   C456      1.0  0.13199  0.27351  0.68472  1.0000
  C   C457      1.0  0.00789  0.43750  0.94510  1.0000
  H   H365      1.0  0.12825  0.47130  0.79281  1.0000
  C   C458      1.0  0.03935  0.47216  0.96138  1.0000
  H   H366      1.0  0.05913  0.45434  0.94509  1.0000
  C   C459      1.0  0.21397  0.31655  0.67393  1.0000
  C   C460      1.0  0.16369  0.32178  0.75184  1.0000
  C   C461      1.0  0.13812  0.39295  0.97380  1.0000
  C   C462      1.0  0.19403  0.44208  0.78163  1.0000
  C   C463      1.0  0.21090  0.36465  0.95042  1.0000
  H   H367      1.0  0.16784  0.14765  0.66030  1.0000
  C   C464      1.0  0.15507  0.10339  0.67196  1.0000
  H   H368      1.0  0.19527  0.42980  0.79162  1.0000
  P   P16       1.0  0.15177  0.47554  0.75733  1.0000
  C   C465      1.0  0.15741  0.47324  0.87312  1.0000
  C   C466      1.0  0.09854  0.46152  0.89533  1.0000
  H   H369      1.0  0.18374  0.46042  0.86125  1.0000
  C   C467      1.0  0.99142  0.31397  0.72574  1.0000
  S   S74       1.0  0.05399  0.42306  0.97954  1.0000
  C   C468      1.0  0.16625  0.46587  0.70240  1.0000
  H   H370      1.0  0.15174  0.45984  0.87697  1.0000
  H   H371      1.0  0.08070  0.43890  0.90132  1.0000
  H   H372      1.0  0.09507  0.46651  0.90905  1.0000
  H   H373      1.0  0.12673  0.09587  0.67702  1.0000
  H   H374      1.0  0.13836  0.44320  0.74195  1.0000
  P   P17       1.0  0.15928  0.31766  0.69614  1.0000
  H   H375      1.0  0.17258  0.45261  0.72936  1.0000
  C   C469      1.0  0.13891  0.38007  0.96033  1.0000
  C   C470      1.0  0.13707  0.36099  0.96588  1.0000
  H   H376      1.0  0.20398  0.41788  0.93438  1.0000
  P   P18       1.0  0.13613  0.34466  0.94855  1.0000
  C   C471      1.0  0.11222  0.34613  0.94236  1.0000
  C   C472      1.0  0.15190  0.35068  0.92807  1.0000
  C   C473      1.0  0.14584  0.36453  0.91430  1.0000
  C   C474      1.0  0.15743  0.36873  0.89795  1.0000
  C   C475      1.0  0.17536  0.35940  0.89532  1.0000
  C   C476      1.0  0.18172  0.34584  0.90912  1.0000
  C   C477      1.0  0.17003  0.34142  0.92541  1.0000
  C   C478      1.0  0.10844  0.34161  0.92466  1.0000
  C   C479      1.0  0.08995  0.34290  0.91989  1.0000
  C   C480      1.0  0.07508  0.34857  0.93278  1.0000
  C   C481      1.0  0.07870  0.35287  0.95049  1.0000
  C   C482      1.0  0.09717  0.35160  0.95529  1.0000
  C   C483      1.0  0.14314  0.32105  0.95811  1.0000
  C   C484      1.0  0.15822  0.31770  0.96936  1.0000
  H   H377      1.0  0.01169  0.29479  0.67052  1.0000
  C   C485      1.0  0.16370  0.29945  0.97676  1.0000
  C   C486      1.0  0.12743  0.47267  0.92397  1.0000
  C   C487      1.0  0.13377  0.30585  0.95427  1.0000
  H   H378      1.0  0.15732  0.48191  0.67742  1.0000
  C   C488      1.0  0.08349  0.16687  0.66987  1.0000
  C   C489      1.0  0.16666  0.11796  0.66726  1.0000
  H   H379      1.0  0.14027  0.38522  0.94566  1.0000
  H   H380      1.0  0.21316  0.26978  0.68710  1.0000
  H   H381      1.0  0.13196  0.37184  0.91604  1.0000
  H   H382      1.0  0.15230  0.37897  0.88714  1.0000
  H   H383      1.0  0.18422  0.36252  0.88246  1.0000
  H   H384      1.0  0.19558  0.33854  0.90695  1.0000
  H   H385      1.0  0.17519  0.33064  0.93567  1.0000
  H   H386      1.0  0.11975  0.33728  0.91442  1.0000
  H   H387      1.0  0.08718  0.33986  0.90604  1.0000
  H   H388      1.0  0.06077  0.34977  0.92903  1.0000
  H   H389      1.0  0.06716  0.35735  0.96049  1.0000
  H   H390      1.0  0.09961  0.35498  0.96908  1.0000
  H   H391      1.0  0.16573  0.32920  0.97241  1.0000
  H   H392      1.0  0.11225  0.36880  0.67668  1.0000
  H   H393      1.0  0.18066  0.36592  0.95374  1.0000
  C   C490      1.0  0.20819  0.28453  0.68503  1.0000
  C   C491      1.0  0.13930  0.28762  0.96169  1.0000
  H   H394      1.0  0.09994  0.15132  0.73503  1.0000
  C   C492      1.0  0.13554  0.10727  0.67321  1.0000
  C   C493      1.0  0.13113  0.44484  0.75566  1.0000
  C   C494      1.0  0.17627  0.44994  0.77713  1.0000
  H   H395      1.0  0.11058  0.44260  0.84650  1.0000
  H   H396      1.0  0.99482  0.38096  0.96465  1.0000
  H   H397      1.0  0.21826  0.11126  0.65948  1.0000
  H   H398      1.0  0.12936  0.45963  0.95207  1.0000
  H   H399      1.0  0.08252  0.12496  0.75039  1.0000
  H   H400      1.0  0.11667  0.41996  0.75545  1.0000
  C   C495      1.0  0.17961  0.47241  0.81552  1.0000
  C   C496      1.0  0.20847  0.46632  0.76100  1.0000
  H   H401      1.0  0.16127  0.08910  0.67459  1.0000
  H   H402      1.0  0.10068  0.42220  0.78725  1.0000
  H   H403      1.0  0.12872  0.30680  0.72431  1.0000
  H   H404      1.0  0.13195  0.27596  0.95874  1.0000
  H   H405      1.0  0.10616  0.28322  0.72544  1.0000
  C   C497      1.0  0.13091  0.36021  0.65310  1.0000
  C   C498      1.0  0.19031  0.39291  0.94406  1.0000
  C   C499      1.0  0.13023  0.29723  0.71346  1.0000
  H   H406      1.0  0.08840  0.42677  0.87009  1.0000
  C   C500      1.0  0.11290  0.44745  0.79163  1.0000
  C   C501      1.0  0.22409  0.39402  0.93967  1.0000
  H   H407      1.0  0.16026  0.35612  0.70694  1.0000
  H   H408      1.0  0.10790  0.26190  0.70008  1.0000
  H   H409      1.0  0.10613  0.22539  0.66675  1.0000
  C   C502      1.0  0.17569  0.47348  0.86444  1.0000
  H   H410      1.0  0.16447  0.31233  0.76450  1.0000
  C   C503      1.0  0.13923  0.14038  0.66535  1.0000
  C   C504      1.0  0.13346  0.34714  0.68514  1.0000
  C   C505      1.0  0.09008  0.44604  0.89090  1.0000
  C   C506      1.0  0.15372  0.47793  0.73198  1.0000
  C   C507      1.0  0.15510  0.33521  0.66017  1.0000
  C   C508      1.0  0.17449  0.46604  0.76440  1.0000
  C   C509      1.0  0.19279  0.37374  0.94984  1.0000
  H   H411      1.0  0.16404  0.44344  0.78377  1.0000
  C   C510      1.0  0.22861  0.33895  0.85602  1.0000
  H   H412      1.0  0.18181  0.11501  0.66600  1.0000
  H   H413      1.0  0.13893  0.40775  0.96942  1.0000
  C   C511      1.0  0.23821  0.32498  0.90989  1.0000
  H   H414      1.0  0.06338  0.12174  0.67204  1.0000
  H   H415      1.0  0.22094  0.47275  0.75491  1.0000
  H   H416      1.0  0.22380  0.44439  0.77752  1.0000
  C   C512      1.0  0.05282  0.48147  0.93011  1.0000
  C   C513      1.0  0.09138  0.11443  0.65921  1.0000
  H   H417      1.0  0.02546  0.13364  0.66234  1.0000
  H   H418      1.0  0.09243  0.48446  0.96718  1.0000
  C   C514      1.0  0.06338  0.10081  0.65276  1.0000
  H   H419      1.0  0.04832  0.10006  0.65482  1.0000
  Fe  Fe38      1.0  0.09389  0.64049  0.30613  1.0000
  S   S75       1.0  0.08595  0.67186  0.30432  1.0000
  S   S76       1.0  0.10123  0.62140  0.28141  1.0000
  C   C515      1.0  0.03980  0.54022  0.05192  1.0000
  C   C516      1.0  0.09947  0.51139  0.05069  1.0000
  C   C517      1.0  0.10478  0.86439  0.30942  1.0000
  H   H420      1.0  0.22427  0.54511  0.99555  1.0000
  C   C518      1.0  0.02744  0.52154  0.07938  1.0000
  C   C519      1.0  0.08810  0.50528  0.09172  1.0000
  Fe  Fe39      1.0  0.14455  0.57742  0.13618  1.0000
  S   S77       1.0  0.17440  0.56672  0.12827  1.0000
  S   S78       1.0  0.12101  0.57342  0.11812  1.0000
  Fe  Fe40      1.0  0.15337  0.58924  0.17491  1.0000
  S   S79       1.0  0.18391  0.57837  0.16921  1.0000
  S   S80       1.0  0.14438  0.60786  0.19967  1.0000
  Fe  Fe41      1.0  0.18271  0.59235  0.13985  1.0000
  S   S81       1.0  0.20182  0.61363  0.12388  1.0000
  Fe  Fe42      1.0  0.17315  0.55351  0.15803  1.0000
  S   S82       1.0  0.18670  0.52349  0.16279  1.0000
  S   S83       1.0  0.15260  0.60418  0.14576  1.0000
  S   S84       1.0  0.14284  0.56319  0.16573  1.0000
  Fe  Fe43      1.0  0.10295  0.57844  0.00907  1.0000
  S   S85       1.0  0.08055  0.55844  0.01319  1.0000
  S   S86       1.0  0.12528  0.58211  0.02860  1.0000
  H   H421      1.0  0.10035  0.51403  0.14139  1.0000
  C   C520      1.0  0.09665  0.51157  0.12767  1.0000
  C   C521      1.0  0.15581  0.63032  0.30473  1.0000
  C   C522      1.0  0.99483  0.58023  0.01261  1.0000
  C   C523      1.0  0.16865  0.51605  0.11427  1.0000
  C   C524      1.0  0.12269  0.57505  0.09322  1.0000
  C   C525      1.0  0.10703  0.57188  0.08413  1.0000
  C   C526      1.0  0.10764  0.57358  0.06437  1.0000
  C   C527      1.0  0.12387  0.57881  0.05351  1.0000
  C   C528      1.0  0.13962  0.58164  0.06261  1.0000
  C   C529      1.0  0.13911  0.57963  0.08233  1.0000
  H   H422      1.0  0.09424  0.56840  0.09240  1.0000
  H   H423      1.0  0.09543  0.57129  0.05757  1.0000
  H   H424      1.0  0.15228  0.58555  0.05435  1.0000
  H   H425      1.0  0.15133  0.58189  0.08910  1.0000
  H   H426      1.0  0.06823  0.53243  0.04173  1.0000
  C   C530      1.0  0.17414  0.50353  0.16186  1.0000
  C   C531      1.0  0.15478  0.50530  0.16036  1.0000
  H   H427      1.0  0.12633  0.52980  0.09795  1.0000
  H   H428      1.0  0.14716  0.51909  0.15958  1.0000
  H   H429      1.0  0.08063  0.53537  0.08844  1.0000
  C   C532      1.0  0.14095  0.65920  0.29003  1.0000
  C   C533      1.0  0.15911  0.66033  0.31632  1.0000
  C   C534      1.0  0.14838  0.66955  0.30243  1.0000
  C   C535      1.0  0.05646  0.49669  0.00903  1.0000
  C   C536      1.0  0.11338  0.51322  0.01840  1.0000
  C   C537      1.0  0.11295  0.61821  0.25839  1.0000
  C   C538      1.0  0.12261  0.63218  0.24759  1.0000
  C   C539      1.0  0.13195  0.62877  0.22976  1.0000
  C   C540      1.0  0.13174  0.61143  0.22218  1.0000
  C   C541      1.0  0.12185  0.59755  0.23284  1.0000
  C   C542      1.0  0.11266  0.60090  0.25076  1.0000
  H   H430      1.0  0.12289  0.64566  0.25297  1.0000
  H   H431      1.0  0.13940  0.63972  0.22176  1.0000
  H   H432      1.0  0.12148  0.58411  0.22740  1.0000
  H   H433      1.0  0.10529  0.58992  0.25882  1.0000
  S   S87       1.0  0.08411  0.60245  0.99655  1.0000
  C   C543      1.0  0.04478  0.51084  0.08002  1.0000
  C   C544      1.0  0.01573  0.64680  0.27814  1.0000
  Fe  Fe44      1.0  0.06211  0.58169  0.99891  1.0000
  C   C545      1.0  0.05699  0.52922  0.05226  1.0000
  H   H434      1.0  0.01597  0.51857  0.08988  1.0000
  C   C546      1.0  0.03490  0.64347  0.28032  1.0000
  C   C547      1.0  0.00825  0.64043  0.26293  1.0000
  H   H435      1.0  0.17556  0.63385  0.19697  1.0000
  C   C548      1.0  0.12495  0.52649  0.02237  1.0000
  C   C549      1.0  0.00701  0.53368  0.01248  1.0000
  H   H436      1.0  0.21880  0.60921  0.15910  1.0000
  C   C550      1.0  0.01169  0.58336  0.00154  1.0000
  H   H437      1.0  0.11401  0.50895  0.00433  1.0000
  H   H438      1.0  0.18481  0.48979  0.11069  1.0000
  C   C551      1.0  0.12421  0.53185  0.04055  1.0000
  H   H439      1.0  0.13166  0.49805  0.08654  1.0000
  H   H440      1.0  0.22577  0.55324  0.10453  1.0000
  H   H441      1.0  0.14520  0.68467  0.30178  1.0000
  H   H442      1.0  0.06559  0.52458  0.00400  1.0000
  H   H443      1.0  0.22027  0.88463  0.22040  1.0000
  C   C552      1.0  0.11149  0.52443  0.05466  1.0000
  H   H444      1.0  0.11059  0.83514  0.30387  1.0000
  H   H445      1.0  0.01166  0.54481  0.06500  1.0000
  H   H446      1.0  0.04631  0.50011  0.02062  1.0000
  P   P19       1.0  0.08249  0.50185  0.06846  1.0000
  H   H447      1.0  0.03452  0.54333  0.01153  1.0000
  C   C553      1.0  0.09011  0.52663  0.11552  1.0000
  C   C554      1.0  0.14213  0.50299  0.09417  1.0000
  H   H448      1.0  0.13324  0.54213  0.04359  1.0000
  C   C555      1.0  0.02027  0.63036  0.25005  1.0000
  C   C556      1.0  0.10116  0.88282  0.30123  1.0000
  C   C557      1.0  0.15879  0.49165  0.09737  1.0000
  H   H449      1.0  0.18460  0.64052  0.09399  1.0000
  H   H450      1.0  0.18641  0.62338  0.16560  1.0000
  C   C558      1.0  0.10677  0.85295  0.27858  1.0000
  C   C559      1.0  0.10301  0.87131  0.27054  1.0000
  C   C560      1.0  0.10024  0.88624  0.28186  1.0000
  H   H451      1.0  0.09148  0.49577  0.02894  1.0000
  H   H452      1.0  0.04875  0.61920  0.24239  1.0000
  H   H453      1.0  0.11100  0.52921  0.06844  1.0000
  C   C561      1.0  0.23327  0.55645  0.99473  1.0000
  H   H454      1.0  0.99469  0.57879  0.02772  1.0000
  C   C562      1.0  0.21445  0.61410  0.17275  1.0000
  H   H455      1.0  0.13193  0.66626  0.27981  1.0000
  C   C563      1.0  0.03948  0.62694  0.25232  1.0000
  H   H456      1.0  0.00373  0.53513  0.02731  1.0000
  H   H457      1.0  0.17869  0.52099  0.12245  1.0000
  C   C564      1.0  0.05967  0.51455  0.06638  1.0000
  H   H458      1.0  0.01490  0.62511  0.23830  1.0000
  H   H459      1.0  0.12299  0.59264  0.30076  1.0000
  C   C565      1.0  0.10768  0.84947  0.29795  1.0000
  H   H460      1.0  0.10889  0.84136  0.26981  1.0000
  H   H461      1.0  0.10221  0.87396  0.25554  1.0000
  H   H462      1.0  0.09730  0.90048  0.27564  1.0000
  H   H463      1.0  0.09899  0.89454  0.30984  1.0000
  C   C566      1.0  0.08567  0.52349  0.09770  1.0000
  C   C567      1.0  0.22648  0.61474  0.11858  1.0000
  C   C568      1.0  0.99382  0.52751  0.00210  1.0000
  C   C569      1.0  0.09839  0.60143  0.15594  1.0000
  C   C570      1.0  0.10474  0.60978  0.17054  1.0000
  C   C571      1.0  0.11072  0.62781  0.16731  1.0000
  C   C572      1.0  0.11050  0.63746  0.14945  1.0000
  C   C573      1.0  0.10387  0.62929  0.13476  1.0000
  C   C574      1.0  0.09795  0.61113  0.13812  1.0000
  P   P20       1.0  0.10557  0.64122  0.11143  1.0000
  C   C575      1.0  0.13042  0.64151  0.10485  1.0000
  C   C576      1.0  0.09457  0.62965  0.09484  1.0000
  C   C577      1.0  0.10385  0.62642  0.07715  1.0000
  C   C578      1.0  0.09469  0.61865  0.06396  1.0000
  C   C579      1.0  0.07627  0.61396  0.06831  1.0000
  C   C580      1.0  0.06687  0.61732  0.08579  1.0000
  C   C581      1.0  0.07590  0.62532  0.09893  1.0000
  C   C582      1.0  0.13925  0.65821  0.10369  1.0000
  C   C583      1.0  0.15871  0.65788  0.09952  1.0000
  C   C584      1.0  0.16946  0.64089  0.09671  1.0000
  C   C585      1.0  0.16077  0.62422  0.09808  1.0000
  C   C586      1.0  0.14134  0.62450  0.10224  1.0000
  C   C587      1.0  0.09374  0.66462  0.11089  1.0000
  C   C588      1.0  0.09524  0.67658  0.09425  1.0000
  C   C589      1.0  0.08592  0.69466  0.09340  1.0000
  C   C590      1.0  0.07487  0.70084  0.10911  1.0000
  C   C591      1.0  0.07302  0.68889  0.12562  1.0000
  C   C592      1.0  0.08230  0.67078  0.12649  1.0000
  H   H464      1.0  0.09442  0.58717  0.15823  1.0000
  H   H465      1.0  0.10559  0.60209  0.18424  1.0000
  H   H466      1.0  0.11621  0.63397  0.17853  1.0000
  H   H467      1.0  0.11593  0.65110  0.14700  1.0000
  H   H468      1.0  0.09370  0.60406  0.12689  1.0000
  H   H469      1.0  0.11808  0.62996  0.07334  1.0000
  H   H470      1.0  0.10198  0.61598  0.05040  1.0000
  H   H471      1.0  0.06934  0.60770  0.05811  1.0000
  H   H472      1.0  0.05255  0.61378  0.08908  1.0000
  H   H473      1.0  0.06833  0.62815  0.11230  1.0000
  H   H474      1.0  0.13130  0.67141  0.10639  1.0000
  H   H475      1.0  0.16556  0.67071  0.09885  1.0000
  C   C593      1.0  0.12379  0.59268  0.31567  1.0000
  H   H476      1.0  0.03805  0.55198  0.04136  1.0000
  H   H477      1.0  0.13484  0.61141  0.10387  1.0000
  H   H478      1.0  0.10361  0.67187  0.08191  1.0000
  H   H479      1.0  0.08718  0.70383  0.08053  1.0000
  H   H480      1.0  0.06762  0.71485  0.10844  1.0000
  H   H481      1.0  0.06428  0.69361  0.13773  1.0000
  H   H482      1.0  0.08031  0.66165  0.13929  1.0000
  C   C594      1.0  0.19606  0.62211  0.17641  1.0000
  C   C595      1.0  0.15214  0.52730  0.11081  1.0000
  S   S88       1.0  0.03219  0.58543  0.01279  1.0000
  C   C596      1.0  0.02435  0.53830  0.00364  1.0000
  C   C597      1.0  0.18998  0.62807  0.19407  1.0000
  H   H483      1.0  0.04053  0.64866  0.29203  1.0000
  C   C598      1.0  0.09856  0.49335  0.12208  1.0000
  C   C599      1.0  0.20242  0.62633  0.20798  1.0000
  H   H484      1.0  0.15190  0.56844  0.29588  1.0000
  H   H485      1.0  0.22045  0.54529  0.16960  1.0000
  H   H486      1.0  0.04665  0.49974  0.09121  1.0000
  C   C600      1.0  0.14517  0.48919  0.16009  1.0000
  H   H487      1.0  0.23477  0.58661  0.12985  1.0000
  C   C601      1.0  0.13899  0.52086  0.10064  1.0000
  C   C602      1.0  0.02498  0.53629  0.06537  1.0000
  H   H488      1.0  0.19764  0.63097  0.22166  1.0000
  C   C603      1.0  0.21453  0.60031  0.31776  1.0000
  C   C604      1.0  0.22090  0.61849  0.20430  1.0000
  C   C605      1.0  0.10062  0.50576  0.03244  1.0000
  H   H489      1.0  0.00669  0.65441  0.28829  1.0000
  C   C606      1.0  0.22704  0.61223  0.18662  1.0000
  C   C607      1.0  0.06731  0.51054  0.99961  1.0000
  H   H490      1.0  0.15108  0.60246  0.99732  1.0000
  H   H491      1.0  0.08879  0.54080  0.11981  1.0000
  H   H492      1.0  0.18577  0.59894  0.99082  1.0000
  H   H493      1.0  0.13017  0.49075  0.15918  1.0000
  H   H494      1.0  0.13434  0.53279  0.01131  1.0000
  H   H495      1.0  0.16921  0.61098  0.09653  1.0000
  C   C608      1.0  0.04680  0.63353  0.26744  1.0000
  H   H496      1.0  0.22205  0.57446  0.18445  1.0000
  C   C609      1.0  0.16069  0.59549  0.28428  1.0000
  C   C610      1.0  0.16693  0.60606  0.26774  1.0000
  C   C611      1.0  0.16771  0.59866  0.25040  1.0000
  C   C612      1.0  0.16266  0.58054  0.24947  1.0000
  C   C613      1.0  0.15706  0.56969  0.26591  1.0000
  C   C614      1.0  0.15624  0.57705  0.28328  1.0000
  C   C615      1.0  0.14455  0.63966  0.29127  1.0000
  H   H497      1.0  0.15844  0.50088  0.02455  1.0000
  H   H498      1.0  0.99203  0.61825  0.29280  1.0000
  C   C616      1.0  0.17201  0.49829  0.10758  1.0000
  H   H499      1.0  0.23020  0.61720  0.21533  1.0000
  H   H500      1.0  0.22669  0.60809  0.31378  1.0000
  H   H501      1.0  0.19639  0.61952  0.30141  1.0000
  H   H502      1.0  0.14943  0.54097  0.11616  1.0000
  C   C617      1.0  0.09435  0.49014  0.10414  1.0000
  H   H503      1.0  0.22310  0.64326  0.10599  1.0000
  H   H504      1.0  0.17097  0.62011  0.26812  1.0000
  H   H505      1.0  0.17174  0.60711  0.23757  1.0000
  H   H506      1.0  0.16280  0.57508  0.23594  1.0000
  H   H507      1.0  0.15310  0.55565  0.26514  1.0000
  H   H508      1.0  0.06168  0.63093  0.26921  1.0000
  H   H509      1.0  0.13820  0.63179  0.28200  1.0000
  C   C618      1.0  0.23360  0.88262  0.22644  1.0000
  C   C619      1.0  0.23277  0.55306  0.16649  1.0000
  H   H510      1.0  0.15560  0.49985  0.05884  1.0000
  C   C620      1.0  0.23307  0.63143  0.10947  1.0000
  H   H511      1.0  0.99185  0.69319  0.31688  1.0000
  H   H512      1.0  0.23126  0.66538  0.99009  1.0000
  H   H513      1.0  0.23239  0.85282  0.23316  1.0000
  H   H514      1.0  0.05153  0.50039  0.22833  1.0000
  C   C621      1.0  0.18144  0.59700  0.31625  1.0000
  H   H515      1.0  0.07721  0.48882  0.24830  1.0000
  H   H516      1.0  0.00007  0.68075  0.25940  1.0000
  C   C622      1.0  0.23366  0.56971  0.17474  1.0000
  H   H517      1.0  0.13861  0.87611  0.31262  1.0000
  P   P21       1.0  0.15950  0.60500  0.30675  1.0000
  C   C623      1.0  0.19732  0.60682  0.31089  1.0000
  C   C624      1.0  0.16274  0.64076  0.31756  1.0000
  C   C625      1.0  0.16255  0.48792  0.03277  1.0000
  C   C626      1.0  0.16089  0.48722  0.05235  1.0000
  Fe  Fe45      1.0  0.09996  0.67215  0.33121  1.0000
  C   C627      1.0  0.02404  0.82509  0.53303  1.0000
  H   H518      1.0  0.02325  0.63988  0.32828  1.0000
  Fe  Fe46      1.0  0.09414  0.65315  0.63547  1.0000
  S   S89       1.0  0.09840  0.64851  0.60423  1.0000
  S   S90       1.0  0.07720  0.68065  0.64047  1.0000
  Fe  Fe47      1.0  0.08211  0.63694  0.34961  1.0000
  S   S91       1.0  0.07338  0.66791  0.34979  1.0000
  S   S92       1.0  0.07426  0.61651  0.37530  1.0000
  Fe  Fe48      1.0  0.08016  0.57958  0.52705  1.0000
  S   S93       1.0  0.05288  0.56693  0.52722  1.0000
  S   S94       1.0  0.08801  0.57990  0.55711  1.0000
  Fe  Fe49      1.0  0.08325  0.58655  0.48382  1.0000
  S   S95       1.0  0.05591  0.57492  0.48152  1.0000
  S   S96       1.0  0.10083  0.59847  0.45792  1.0000
  Fe  Fe50      1.0  0.04561  0.59088  0.50625  1.0000
  S   S97       1.0  0.01748  0.60743  0.50934  1.0000
  Fe  Fe51      1.0  0.06565  0.55160  0.50265  1.0000
  S   S98       1.0  0.05544  0.52279  0.50079  1.0000
  S   S99       1.0  0.07203  0.60458  0.50724  1.0000
  S   S100      1.0  0.09394  0.56219  0.50379  1.0000
  Fe  Fe52      1.0  0.14631  0.78595  0.39106  1.0000
  S   S101      1.0  0.14835  0.81551  0.37714  1.0000
  S   S102      1.0  0.12825  0.76435  0.38119  1.0000
  Fe  Fe53      1.0  0.16151  0.79694  0.42692  1.0000
  S   S103      1.0  0.16422  0.82667  0.41524  1.0000
  S   S104      1.0  0.16554  0.78569  0.45726  1.0000
  Fe  Fe54      1.0  0.13597  0.82564  0.40470  1.0000
  S   S105      1.0  0.11495  0.85084  0.41107  1.0000
  Fe  Fe55      1.0  0.17687  0.81483  0.38842  1.0000
  S   S106      1.0  0.19953  0.83211  0.37084  1.0000
  S   S107      1.0  0.13255  0.79658  0.41808  1.0000
  S   S108      1.0  0.17560  0.78440  0.40076  1.0000
  Fe  Fe56      1.0  0.18627  0.82278  0.59683  1.0000
  S   S109      1.0  0.18403  0.80071  0.57684  1.0000
  S   S110      1.0  0.21227  0.82154  0.61386  1.0000
  Fe  Fe57      1.0  0.14659  0.84127  0.58965  1.0000
  S   S111      1.0  0.14171  0.82060  0.56976  1.0000
  S   S112      1.0  0.12648  0.86774  0.59197  1.0000
  Fe  Fe58      1.0  0.15449  0.79858  0.59051  1.0000
  S   S113      1.0  0.14182  0.77032  0.59278  1.0000
  Fe  Fe59      1.0  0.17116  0.82403  0.55748  1.0000
  S   S114      1.0  0.17721  0.83168  0.52595  1.0000
  S   S115      1.0  0.15721  0.81913  0.61166  1.0000
  S   S116      1.0  0.17562  0.84612  0.57636  1.0000
  Fe  Fe60      1.0  0.00520  0.88089  0.40103  1.0000
  S   S117      1.0  0.00283  0.90055  0.42383  1.0000
  S   S118      1.0  0.03145  0.86554  0.38699  1.0000
  H   H519      1.0  0.18727  0.87629  0.51668  1.0000
  C   C628      1.0  0.05090  0.95027  0.56333  1.0000
  H   H520      1.0  0.06131  0.91800  0.60577  1.0000
  C   C629      1.0  0.09948  0.94199  0.57933  1.0000
  S   S119      1.0  0.12196  0.69224  0.33606  1.0000
  H   H521      1.0  0.15941  0.71952  0.56847  1.0000
  Fe  Fe61      1.0  0.01657  0.88289  0.59256  1.0000
  S   S120      1.0  0.02048  0.91147  0.57791  1.0000
  S   S121      1.0  0.03826  0.86368  0.60783  1.0000
  C   C630      1.0  0.06088  0.51219  0.56213  1.0000
  Fe  Fe62      1.0  0.00971  0.90025  0.55363  1.0000
  S   S122      1.0  0.02441  0.90589  0.52483  1.0000
  H   H522      1.0  0.09585  0.78317  0.35733  1.0000
  S   S123      1.0  0.00776  0.87128  0.56758  1.0000
  H   H523      1.0  0.05425  0.63808  0.59487  1.0000
  C   C631      1.0  0.23043  0.85501  0.61086  1.0000
  C   C632      1.0  0.03223  0.65824  0.58514  1.0000
  H   H524      1.0  0.03587  0.90110  0.62281  1.0000
  C   C633      1.0  0.02758  0.52309  0.44319  1.0000
  H   H525      1.0  0.15206  0.60325  0.34763  1.0000
  C   C634      1.0  0.00578  0.89285  0.47709  1.0000
  C   C635      1.0  0.01543  0.90100  0.48973  1.0000
  C   C636      1.0  0.01387  0.89454  0.50875  1.0000
  H   H526      1.0  0.10718  0.79506  0.59603  1.0000
  C   C637      1.0  0.23143  0.78243  0.43064  1.0000
  H   H527      1.0  0.00640  0.89833  0.46259  1.0000
  H   H528      1.0  0.02362  0.91261  0.48484  1.0000
  C   C638      1.0  0.02406  0.56521  0.43645  1.0000
  H   H529      1.0  0.07479  0.94867  0.47921  1.0000
  C   C639      1.0  0.06268  0.86483  0.60228  1.0000
  C   C640      1.0  0.07510  0.84977  0.60872  1.0000
  C   C641      1.0  0.09463  0.85036  0.60510  1.0000
  C   C642      1.0  0.10196  0.86622  0.59545  1.0000
  C   C643      1.0  0.08957  0.88133  0.58895  1.0000
  C   C644      1.0  0.06999  0.88051  0.59206  1.0000
  H   H530      1.0  0.06958  0.83766  0.61670  1.0000
  H   H531      1.0  0.10409  0.83882  0.61027  1.0000
  H   H532      1.0  0.09512  0.89361  0.58132  1.0000
  H   H533      1.0  0.06055  0.89204  0.58677  1.0000
  C   C645      1.0  0.22409  0.83599  0.36609  1.0000
  H   H534      1.0  0.13353  0.91756  0.49042  1.0000
  C   C646      1.0  0.22029  0.79449  0.41897  1.0000
  C   C647      1.0  0.16750  0.79924  0.47619  1.0000
  C   C648      1.0  0.16450  0.79099  0.49470  1.0000
  C   C649      1.0  0.16672  0.80095  0.51014  1.0000
  C   C650      1.0  0.17232  0.81917  0.50720  1.0000
  C   C651      1.0  0.17485  0.82759  0.48873  1.0000
  C   C652      1.0  0.17249  0.81770  0.47329  1.0000
  H   H535      1.0  0.16062  0.77672  0.49709  1.0000
  H   H536      1.0  0.16449  0.79441  0.52427  1.0000
  H   H537      1.0  0.17886  0.84179  0.48637  1.0000
  H   H538      1.0  0.17483  0.82422  0.45914  1.0000
  C   C653      1.0  0.05380  0.86038  0.39572  1.0000
  C   C654      1.0  0.06031  0.87153  0.40807  1.0000
  C   C655      1.0  0.07895  0.86819  0.41296  1.0000
  C   C656      1.0  0.09120  0.85355  0.40570  1.0000
  C   C657      1.0  0.08447  0.84197  0.39392  1.0000
  C   C658      1.0  0.06589  0.84547  0.38892  1.0000
  H   H539      1.0  0.05123  0.88322  0.41313  1.0000
  H   H540      1.0  0.08400  0.87722  0.42211  1.0000
  H   H541      1.0  0.09367  0.83060  0.38829  1.0000
  H   H542      1.0  0.06081  0.83664  0.37963  1.0000
  H   H543      1.0  0.18904  0.84919  0.64031  1.0000
  H   H544      1.0  0.17905  0.86992  0.35314  1.0000
  H   H545      1.0  0.12495  0.67892  0.59841  1.0000
  H   H546      1.0  0.17192  0.69473  0.62343  1.0000
  H   H547      1.0  0.09571  0.50927  0.49726  1.0000
  C   C659      1.0  0.99997  0.59186  0.51251  1.0000
  C   C660      1.0  0.00470  0.57247  0.51246  1.0000
  H   H548      1.0  0.12598  0.95196  0.48716  1.0000
  H   H549      1.0  0.01920  0.56693  0.51050  1.0000
  C   C661      1.0  0.12322  0.71220  0.34893  1.0000
  C   C662      1.0  0.10756  0.72100  0.35889  1.0000
  C   C663      1.0  0.10941  0.73681  0.36866  1.0000
  C   C664      1.0  0.12691  0.74411  0.36873  1.0000
  C   C665      1.0  0.14257  0.73522  0.35888  1.0000
  C   C666      1.0  0.14071  0.71946  0.34907  1.0000
  H   H550      1.0  0.09402  0.71566  0.35899  1.0000
  H   H551      1.0  0.09717  0.74347  0.37619  1.0000
  H   H552      1.0  0.15613  0.74054  0.35872  1.0000
  C   C667      1.0  0.08148  0.61327  0.39845  1.0000
  C   C668      1.0  0.06911  0.60588  0.41312  1.0000
  C   C669      1.0  0.07456  0.60183  0.43149  1.0000
  C   C670      1.0  0.09268  0.60474  0.43535  1.0000
  C   C671      1.0  0.10496  0.61240  0.42073  1.0000
  C   C672      1.0  0.09940  0.61669  0.40242  1.0000
  H   H553      1.0  0.05525  0.60312  0.41023  1.0000
  H   H554      1.0  0.06492  0.59596  0.44251  1.0000
  H   H555      1.0  0.11898  0.61478  0.42355  1.0000
  H   H556      1.0  0.10917  0.62214  0.39128  1.0000
  C   C673      1.0  0.11778  0.73036  0.64155  1.0000
  C   C674      1.0  0.21036  0.72760  0.53914  1.0000
  C   C675      1.0  0.13088  0.76018  0.63050  1.0000
  C   C676      1.0  0.13190  0.75576  0.61192  1.0000
  C   C677      1.0  0.12525  0.73889  0.60825  1.0000
  C   C678      1.0  0.11839  0.72618  0.62295  1.0000
  H   H557      1.0  0.99953  0.54849  0.37493  1.0000
  H   H558      1.0  0.13588  0.77312  0.63356  1.0000
  H   H559      1.0  0.12553  0.73556  0.59392  1.0000
  H   H560      1.0  0.11354  0.71317  0.61989  1.0000
  H   H561      1.0  0.07633  0.72260  0.62533  1.0000
  C   C679      1.0  0.09385  0.62955  0.59168  1.0000
  C   C680      1.0  0.09387  0.63241  0.57203  1.0000
  C   C681      1.0  0.09130  0.61761  0.56131  1.0000
  C   C682      1.0  0.08909  0.59958  0.57009  1.0000
  C   C683      1.0  0.08869  0.59681  0.58977  1.0000
  C   C684      1.0  0.09081  0.61173  0.60054  1.0000
  H   H562      1.0  0.09620  0.64612  0.56500  1.0000
  H   H563      1.0  0.09177  0.61996  0.54620  1.0000
  H   H564      1.0  0.08699  0.58294  0.59672  1.0000
  H   H565      1.0  0.09064  0.60928  0.61562  1.0000
  H   H566      1.0  0.04266  0.48820  0.49378  1.0000
  C   C685      1.0  0.07850  0.79327  0.60827  1.0000
  C   C686      1.0  0.06917  0.49556  0.55481  1.0000
  H   H567      1.0  0.03504  0.68101  0.63123  1.0000
  C   C687      1.0  0.06051  0.95454  0.48262  1.0000
  C   C688      1.0  0.99508  0.87786  0.48338  1.0000
  C   C689      1.0  0.15160  0.86179  0.36338  1.0000
  C   C690      1.0  0.13358  0.85954  0.35877  1.0000
  C   C691      1.0  0.22077  0.84332  0.49217  1.0000
  H   H568      1.0  0.12525  0.61505  0.61960  1.0000
  H   H569      1.0  0.15543  0.85738  0.37743  1.0000
  H   H570      1.0  0.12364  0.85341  0.36940  1.0000
  H   H571      1.0  0.18690  0.88257  0.54995  1.0000
  S   S124      1.0  0.10949  0.64090  0.33202  1.0000
  C   C692      1.0  0.01557  0.54600  0.39893  1.0000
  C   C693      1.0  0.02285  0.58100  0.42325  1.0000
  P   P22       1.0  0.03645  0.54346  0.42976  1.0000
  C   C694      1.0  0.06062  0.54572  0.43303  1.0000
  C   C695      1.0  0.07178  0.55601  0.41936  1.0000
  C   C696      1.0  0.08999  0.55920  0.42261  1.0000
  C   C697      1.0  0.09704  0.55250  0.43966  1.0000
  C   C698      1.0  0.08596  0.54239  0.45338  1.0000
  C   C699      1.0  0.06778  0.53914  0.45015  1.0000
  C   C700      1.0  0.03306  0.54041  0.40583  1.0000
  C   C701      1.0  0.04688  0.94579  0.60848  1.0000
  C   C702      1.0  0.10842  0.58922  0.34718  1.0000
  H   H572      1.0  0.04764  0.97338  0.52006  1.0000
  Fe  Fe63      1.0  0.98999  0.91859  0.58708  1.0000
  C   C703      1.0  0.04751  0.53170  0.39419  1.0000
  H   H573      1.0  0.01384  0.61048  0.41843  1.0000
  H   H574      1.0  0.02864  0.58006  0.40885  1.0000
  H   H575      1.0  0.99374  0.50433  0.39148  1.0000
  H   H576      1.0  0.06624  0.56218  0.40647  1.0000
  H   H577      1.0  0.09832  0.56769  0.41229  1.0000
  H   H578      1.0  0.11082  0.55573  0.44248  1.0000
  H   H579      1.0  0.09121  0.53756  0.46679  1.0000
  H   H580      1.0  0.05914  0.53205  0.46129  1.0000
  H   H581      1.0  0.06662  0.87055  0.32721  1.0000
  H   H582      1.0  0.12759  0.79302  0.34793  1.0000
  H   H583      1.0  0.21307  0.78885  0.40862  1.0000
  H   H584      1.0  0.05606  0.52291  0.36661  1.0000
  H   H585      1.0  0.22167  0.65668  0.60036  1.0000
  C   C704      1.0  0.18912  0.75508  0.54533  1.0000
  H   H586      1.0  0.17037  0.87967  0.32091  1.0000
  C   C705      1.0  0.19430  0.73023  0.57029  1.0000
  C   C706      1.0  0.18534  0.74762  0.56385  1.0000
  P   P23       1.0  0.18886  0.72063  0.59419  1.0000
  C   C707      1.0  0.18692  0.73943  0.60945  1.0000
  C   C708      1.0  0.19826  0.75443  0.60515  1.0000
  H   H587      1.0  0.03153  0.65170  0.57236  1.0000
  H   H588      1.0  0.02199  0.74114  0.60305  1.0000
  C   C709      1.0  0.12439  0.59430  0.35424  1.0000
  C   C710      1.0  0.17491  0.73888  0.62609  1.0000
  C   C711      1.0  0.20757  0.70345  0.60131  1.0000
  H   H589      1.0  0.13242  0.90855  0.59565  1.0000
  C   C712      1.0  0.17264  0.87007  0.43438  1.0000
  C   C713      1.0  0.98848  0.68207  0.54632  1.0000
  H   H590      1.0  0.18235  0.76865  0.54059  1.0000
  C   C714      1.0  0.99823  0.96674  0.40167  1.0000
  H   H591      1.0  0.17545  0.75549  0.57317  1.0000
  H   H592      1.0  0.09390  0.54176  0.54490  1.0000
  C   C715      1.0  0.00695  0.68300  0.53824  1.0000
  C   C716      1.0  0.02497  0.81243  0.51939  1.0000
  C   C717      1.0  0.13108  0.84905  0.47761  1.0000
  H   H593      1.0  0.16564  0.72787  0.62960  1.0000
  H   H594      1.0  0.09545  0.58534  0.32234  1.0000
  H   H595      1.0  0.21356  0.70658  0.56220  1.0000
  C   C718      1.0  0.01639  0.71850  0.62461  1.0000
  H   H596      1.0  0.05177  0.79265  0.62514  1.0000
  H   H597      1.0  0.00859  0.50596  0.60445  1.0000
  C   C719      1.0  0.01463  0.59834  0.42866  1.0000
  C   C720      1.0  0.00403  0.59825  0.59555  1.0000
  H   H598      1.0  0.20779  0.75519  0.59250  1.0000
  H   H599      1.0  0.18431  0.87244  0.38727  1.0000
  C   C721      1.0  0.00133  0.98645  0.45495  1.0000
  H   H600      1.0  0.04632  0.75824  0.42574  1.0000
  H   H601      1.0  0.23252  0.76742  0.42954  1.0000
  H   H602      1.0  0.04659  0.85999  0.50807  1.0000
  H   H603      1.0  0.21001  0.82287  0.41107  1.0000
  H   H604      1.0  0.99956  0.93946  0.47643  1.0000
  C   C722      1.0  0.04203  0.83388  0.49717  1.0000
  H   H605      1.0  0.10777  0.77114  0.57310  1.0000
  P   P24       1.0  0.05417  0.83884  0.47417  1.0000
  C   C723      1.0  0.07722  0.82611  0.47305  1.0000
  C   C724      1.0  0.04051  0.83163  0.45685  1.0000
  C   C725      1.0  0.04916  0.82570  0.43976  1.0000
  C   C726      1.0  0.03826  0.82131  0.42607  1.0000
  C   C727      1.0  0.01871  0.82282  0.42928  1.0000
  C   C728      1.0  0.01002  0.82869  0.44622  1.0000
  C   C729      1.0  0.02083  0.83327  0.45986  1.0000
  C   C730      1.0  0.08169  0.81104  0.48638  1.0000
  C   C731      1.0  0.09918  0.80057  0.48464  1.0000
  C   C732      1.0  0.11225  0.80493  0.46953  1.0000
  C   C733      1.0  0.10796  0.81996  0.45636  1.0000
  C   C734      1.0  0.09069  0.83074  0.45826  1.0000
  C   C735      1.0  0.05665  0.86370  0.46907  1.0000
  C   C736      1.0  0.04642  0.87452  0.45551  1.0000
  C   C737      1.0  0.04818  0.89378  0.45190  1.0000
  C   C738      1.0  0.05975  0.90251  0.46208  1.0000
  C   C739      1.0  0.06986  0.89190  0.47567  1.0000
  C   C740      1.0  0.06876  0.87247  0.47881  1.0000
  H   H606      1.0  0.03465  0.80678  0.49112  1.0000
  C   C741      1.0  0.01742  0.72067  0.57449  1.0000
  H   H607      1.0  0.06420  0.82493  0.43659  1.0000
  H   H608      1.0  0.04495  0.81733  0.41269  1.0000
  H   H609      1.0  0.01028  0.82003  0.41838  1.0000
  C   C742      1.0  0.04475  0.52936  0.37564  1.0000
  H   H610      1.0  0.01373  0.83866  0.47250  1.0000
  H   H611      1.0  0.07172  0.80712  0.49801  1.0000
  H   H612      1.0  0.05553  0.65258  0.62434  1.0000
  H   H613      1.0  0.12568  0.79659  0.46791  1.0000
  H   H614      1.0  0.11803  0.82324  0.44456  1.0000
  H   H615      1.0  0.08770  0.84236  0.44784  1.0000
  H   H616      1.0  0.03694  0.86829  0.44767  1.0000
  H   H617      1.0  0.04022  0.90198  0.44142  1.0000
  H   H618      1.0  0.06068  0.91751  0.45953  1.0000
  H   H619      1.0  0.07842  0.89877  0.48387  1.0000
  H   H620      1.0  0.07697  0.86435  0.48913  1.0000
  C   C743      1.0  0.08198  0.81106  0.35215  1.0000
  C   C744      1.0  0.08735  0.87555  0.34555  1.0000
  H   H621      1.0  0.98978  0.66780  0.61902  1.0000
  H   H622      1.0  0.18724  0.88389  0.63978  1.0000
  H   H623      1.0  0.11854  0.80467  0.62416  1.0000
  C   C745      1.0  0.99918  0.58638  0.58278  1.0000
  C   C746      1.0  0.00913  0.58649  0.56493  1.0000
  C   C747      1.0  0.02419  0.59750  0.56035  1.0000
  C   C748      1.0  0.02949  0.60849  0.57347  1.0000
  C   C749      1.0  0.99645  0.53426  0.59787  1.0000
  S   S125      1.0  0.06720  0.63403  0.32408  1.0000
  C   C750      1.0  0.10809  0.58850  0.32790  1.0000
  C   C751      1.0  0.17435  0.75302  0.63824  1.0000
  H   H624      1.0  0.00488  0.58627  0.47515  1.0000
  C   C752      1.0  0.12388  0.74752  0.64523  1.0000
  C   C753      1.0  0.01003  0.64816  0.32651  1.0000
  C   C754      1.0  0.14797  0.68569  0.61269  1.0000
  H   H625      1.0  0.00928  0.97519  0.49484  1.0000
  C   C755      1.0  0.01923  0.60908  0.59098  1.0000
  H   H626      1.0  0.99568  0.53756  0.61224  1.0000
  H   H627      1.0  0.00541  0.57804  0.55448  1.0000
  C   C756      1.0  0.11797  0.82225  0.34186  1.0000
  H   H628      1.0  0.03254  0.66720  0.52823  1.0000
  C   C757      1.0  0.02045  0.67438  0.58893  1.0000
  C   C758      1.0  0.03620  0.98053  0.47999  1.0000
  C   C759      1.0  0.02996  0.95554  0.61512  1.0000
  C   C760      1.0  0.05472  0.97292  0.47568  1.0000
  C   C761      1.0  0.00300  0.96966  0.57821  1.0000
  C   C762      1.0  0.01455  0.73055  0.55712  1.0000
  C   C763      1.0  0.08917  0.81135  0.53773  1.0000
  C   C764      1.0  0.10733  0.80261  0.53458  1.0000
  H   H629      1.0  0.08412  0.82270  0.52789  1.0000
  H   H630      1.0  0.11642  0.80718  0.52236  1.0000
  C   C765      1.0  0.04415  0.72928  0.43633  1.0000
  C   C766      1.0  0.04977  0.74366  0.42303  1.0000
  C   C767      1.0  0.05987  0.73924  0.40618  1.0000
  C   C768      1.0  0.06437  0.72046  0.40263  1.0000
  C   C769      1.0  0.05899  0.70590  0.41602  1.0000
  C   C770      1.0  0.04872  0.71045  0.43286  1.0000
  P   P25       1.0  0.06505  0.68170  0.41118  1.0000
  C   C771      1.0  0.04950  0.67507  0.39522  1.0000
  C   C772      1.0  0.08915  0.67907  0.40107  1.0000
  C   C773      1.0  0.09521  0.66467  0.38947  1.0000
  C   C774      1.0  0.11352  0.66328  0.38077  1.0000
  C   C775      1.0  0.12603  0.67605  0.38388  1.0000
  C   C776      1.0  0.12036  0.68999  0.39599  1.0000
  C   C777      1.0  0.10206  0.69141  0.40471  1.0000
  C   C778      1.0  0.04689  0.65603  0.39463  1.0000
  C   C779      1.0  0.03486  0.65066  0.38246  1.0000
  C   C780      1.0  0.02529  0.66426  0.37081  1.0000
  C   C781      1.0  0.02785  0.68322  0.37119  1.0000
  C   C782      1.0  0.03987  0.68866  0.38336  1.0000
  C   C783      1.0  0.06256  0.66596  0.43233  1.0000
  C   C784      1.0  0.04465  0.66102  0.43963  1.0000
  C   C785      1.0  0.04266  0.64780  0.45517  1.0000
  C   C786      1.0  0.05849  0.63953  0.46361  1.0000
  C   C787      1.0  0.07629  0.64463  0.45667  1.0000
  C   C788      1.0  0.07838  0.65772  0.44104  1.0000
  C   C789      1.0  0.01136  0.64906  0.53964  1.0000
  C   C790      1.0  0.05105  0.97055  0.53438  1.0000
  H   H631      1.0  0.06431  0.75036  0.39586  1.0000
  H   H632      1.0  0.07216  0.71728  0.38945  1.0000
  H   H633      1.0  0.04431  0.69955  0.44337  1.0000
  H   H634      1.0  0.08575  0.65467  0.38682  1.0000
  H   H635      1.0  0.11786  0.65262  0.37120  1.0000
  H   H636      1.0  0.13997  0.67542  0.37654  1.0000
  H   H637      1.0  0.12999  0.70008  0.39814  1.0000
  H   H638      1.0  0.09800  0.70236  0.41398  1.0000
  H   H639      1.0  0.05442  0.64523  0.40330  1.0000
  H   H640      1.0  0.03342  0.63590  0.38168  1.0000
  H   H641      1.0  0.01622  0.66009  0.36117  1.0000
  H   H642      1.0  0.02086  0.69362  0.36162  1.0000
  H   H643      1.0  0.04177  0.70339  0.38314  1.0000
  H   H644      1.0  0.03228  0.66707  0.43301  1.0000
  H   H645      1.0  0.02890  0.64366  0.46051  1.0000
  H   H646      1.0  0.05699  0.62894  0.47534  1.0000
  H   H647      1.0  0.08859  0.63794  0.46306  1.0000
  H   H648      1.0  0.09238  0.66098  0.43559  1.0000
  C   C791      1.0  0.22822  0.82134  0.43353  1.0000
  C   C792      1.0  0.17408  0.88019  0.52465  1.0000
  C   C793      1.0  0.15681  0.88793  0.55391  1.0000
  C   C794      1.0  0.13993  0.88863  0.54569  1.0000
  C   C795      1.0  0.14001  0.88492  0.52691  1.0000
  P   P26       1.0  0.11825  0.88752  0.51614  1.0000
  C   C796      1.0  0.10049  0.87530  0.53068  1.0000
  C   C797      1.0  0.07277  0.85708  0.55385  1.0000
  C   C798      1.0  0.06760  0.87162  0.54046  1.0000
  C   C799      1.0  0.08137  0.88048  0.52869  1.0000
  C   C800      1.0  0.11227  0.91262  0.51346  1.0000
  C   C801      1.0  0.09903  0.92134  0.52634  1.0000
  C   C802      1.0  0.09512  0.94086  0.52467  1.0000
  C   C803      1.0  0.10455  0.95188  0.51036  1.0000
  C   C804      1.0  0.11827  0.94339  0.49795  1.0000
  C   C805      1.0  0.12235  0.92387  0.49969  1.0000
  H   H649      1.0  0.01046  0.67997  0.57908  1.0000
  H   H650      1.0  0.15659  0.89009  0.56862  1.0000
  H   H651      1.0  0.12682  0.89173  0.55412  1.0000
  H   H652      1.0  0.06210  0.85055  0.56332  1.0000
  H   H653      1.0  0.05290  0.87632  0.53945  1.0000
  H   H654      1.0  0.07702  0.89171  0.51844  1.0000
  H   H655      1.0  0.09199  0.91322  0.53797  1.0000
  H   H656      1.0  0.08499  0.94744  0.53469  1.0000
  H   H657      1.0  0.10149  0.96703  0.50915  1.0000
  H   H658      1.0  0.09582  0.84019  0.56593  1.0000
  C   C806      1.0  0.06033  0.98346  0.54241  1.0000
  C   C807      1.0  0.00376  0.51623  0.59351  1.0000
  C   C808      1.0  0.02282  0.73590  0.61755  1.0000
  C   C809      1.0  0.08755  0.49780  0.49560  1.0000
  H   H659      1.0  0.02645  0.73346  0.54713  1.0000
  C   C810      1.0  0.16334  0.69629  0.61180  1.0000
  H   H660      1.0  0.21432  0.85794  0.39771  1.0000
  C   C811      1.0  0.19740  0.76869  0.61715  1.0000
  C   C812      1.0  0.07771  0.80590  0.55388  1.0000
  C   C813      1.0  0.11388  0.78806  0.54732  1.0000
  H   H661      1.0  0.06386  0.81315  0.55615  1.0000
  H   H662      1.0  0.12805  0.78138  0.54505  1.0000
  H   H663      1.0  0.06356  0.54159  0.56432  1.0000
  H   H664      1.0  0.02007  0.63625  0.53668  1.0000
  H   H665      1.0  0.19628  0.61613  0.63535  1.0000
  H   H666      1.0  0.99483  0.83047  0.44851  1.0000
  C   C814      1.0  0.04634  0.95394  0.54482  1.0000
  H   H667      1.0  0.00408  0.55228  0.40785  1.0000
  C   C815      1.0  0.03413  0.67503  0.61821  1.0000
  H   H668      1.0  0.06092  0.52677  0.39941  1.0000
  C   C816      1.0  0.20670  0.72015  0.55774  1.0000
  H   H669      1.0  0.07208  0.83995  0.34633  1.0000
  H   H670      1.0  0.13205  0.82622  0.33785  1.0000
  C   C817      1.0  0.13539  0.61849  0.62859  1.0000
  P   P27       1.0  0.00616  0.70405  0.60991  1.0000
  C   C818      1.0  0.20769  0.68466  0.59735  1.0000
  C   C819      1.0  0.09757  0.79779  0.35270  1.0000
  H   H671      1.0  0.00609  0.91863  0.63425  1.0000
  C   C820      1.0  0.09246  0.93334  0.61253  1.0000
  H   H672      1.0  0.00929  0.95736  0.57164  1.0000
  C   C821      1.0  0.00861  0.80976  0.58566  1.0000
  C   C822      1.0  0.08433  0.79147  0.56692  1.0000
  C   C823      1.0  0.10237  0.78235  0.56329  1.0000
  C   C824      1.0  0.03247  0.49048  0.45586  1.0000
  H   H673      1.0  0.03192  0.59736  0.54663  1.0000
  C   C825      1.0  0.01834  0.66651  0.53479  1.0000
  C   C826      1.0  0.14866  0.63096  0.62161  1.0000
  C   C827      1.0  0.16487  0.86891  0.34971  1.0000
  H   H674      1.0  0.99628  0.59922  0.60909  1.0000
  H   H675      1.0  0.09623  0.95004  0.56638  1.0000
  C   C828      1.0  0.07345  0.71967  0.59629  1.0000
  C   C829      1.0  0.06988  0.52874  0.55868  1.0000
  H   H676      1.0  0.09608  0.58639  0.35660  1.0000
  C   C830      1.0  0.03433  0.91633  0.62087  1.0000
  H   H677      1.0  0.06492  0.48794  0.59502  1.0000
  C   C831      1.0  0.02236  0.82086  0.58950  1.0000
  H   H678      1.0  0.06931  0.75587  0.56224  1.0000
  C   C832      1.0  0.10242  0.83577  0.34169  1.0000
  H   H679      1.0  0.21836  0.86195  0.34898  1.0000
  H   H680      1.0  0.01176  0.69957  0.64967  1.0000
  C   C833      1.0  0.08749  0.94371  0.59587  1.0000
  C   C834      1.0  0.99018  0.54766  0.58375  1.0000
  H   H681      1.0  0.12470  0.92783  0.56643  1.0000
  C   C835      1.0  0.01353  0.79102  0.58216  1.0000
  C   C836      1.0  0.01289  0.54372  0.38035  1.0000
  C   C837      1.0  0.07601  0.89689  0.36925  1.0000
  H   H682      1.0  0.03912  0.94386  0.53866  1.0000
  C   C838      1.0  0.04101  0.81327  0.58992  1.0000
  H   H683      1.0  0.05141  0.82215  0.59306  1.0000
  C   C839      1.0  0.08436  0.82996  0.34655  1.0000
  C   C840      1.0  0.14192  0.87220  0.32688  1.0000
  C   C841      1.0  0.03026  0.74697  0.62938  1.0000
  H   H684      1.0  0.12021  0.85583  0.54554  1.0000
  H   H685      1.0  0.07110  0.72113  0.56661  1.0000
  C   C842      1.0  0.04607  0.79437  0.58665  1.0000
  C   C843      1.0  0.03219  0.78331  0.58265  1.0000
  C   C844      1.0  0.99324  0.63931  0.32805  1.0000
  C   C845      1.0  0.09176  0.85133  0.55540  1.0000
  H   H686      1.0  0.01030  0.49747  0.57171  1.0000
  C   C846      1.0  0.00793  0.60016  0.44735  1.0000
  C   C847      1.0  0.01777  0.56728  0.45529  1.0000
  C   C848      1.0  0.20641  0.62309  0.64165  1.0000
  C   C849      1.0  0.07066  0.74875  0.57610  1.0000
  H   H687      1.0  0.03563  0.76875  0.58009  1.0000
  H   H688      1.0  0.13197  0.84961  0.50724  1.0000
  H   H689      1.0  0.04744  0.51247  0.57038  1.0000
  C   C850      1.0  0.03221  0.84200  0.52886  1.0000
  H   H690      1.0  0.11200  0.91217  0.62510  1.0000
  H   H691      1.0  0.16401  0.66842  0.32647  1.0000
  H   H692      1.0  0.01953  0.94277  0.50672  1.0000
  C   C851      1.0  0.00209  0.71697  0.58759  1.0000
  C   C852      1.0  0.09513  0.51256  0.53997  1.0000
  C   C853      1.0  0.19714  0.85567  0.64939  1.0000
  P   P28       1.0  0.07011  0.78453  0.58824  1.0000
  C   C854      1.0  0.07158  0.72910  0.57853  1.0000
  C   C855      1.0  0.00959  0.58467  0.46063  1.0000
  H   H693      1.0  0.23244  0.88440  0.41738  1.0000
  C   C856      1.0  0.03164  0.74063  0.64823  1.0000
  H   H694      1.0  0.09123  0.97071  0.62054  1.0000
  H   H695      1.0  0.04741  0.93730  0.57117  1.0000
  C   C857      1.0  0.07164  0.75912  0.59145  1.0000
  H   H696      1.0  0.05217  0.92937  0.49909  1.0000
  C   C858      1.0  0.12859  0.86470  0.34048  1.0000
  H   H697      1.0  0.99901  0.53568  0.44716  1.0000
  C   C859      1.0  0.99138  0.54269  0.56523  1.0000
  H   H698      1.0  0.19693  0.68044  0.58956  1.0000
  H   H699      1.0  0.11104  0.90117  0.47681  1.0000
  C   C860      1.0  0.16774  0.70860  0.59590  1.0000
  C   C861      1.0  0.00676  0.98379  0.39870  1.0000
  C   C862      1.0  0.10559  0.86037  0.54387  1.0000
  C   C863      1.0  0.00850  0.52321  0.44971  1.0000
  H   H700      1.0  0.03119  0.85193  0.53933  1.0000
  Fe  Fe64      1.0  0.06000  0.66508  0.32341  1.0000
  C   C864      1.0  0.17067  0.87404  0.41524  1.0000
  C   C865      1.0  0.09046  0.88509  0.36091  1.0000
  C   C866      1.0  0.14115  0.69937  0.58178  1.0000
  H   H701      1.0  0.04163  0.61641  0.57003  1.0000
  H   H702      1.0  0.99933  0.52111  0.54661  1.0000
  C   C867      1.0  0.10863  0.92074  0.61240  1.0000
  C   C868      1.0  0.01070  0.98701  0.57389  1.0000
  C   C869      1.0  0.00477  0.51143  0.57507  1.0000
  C   C870      1.0  0.10394  0.80212  0.62432  1.0000
  C   C871      1.0  0.20161  0.74509  0.53296  1.0000
  H   H703      1.0  0.07432  0.70443  0.59821  1.0000
  C   C872      1.0  0.11687  0.88671  0.47733  1.0000
  C   C873      1.0  0.07389  0.74949  0.60918  1.0000
  C   C874      1.0  0.18582  0.86977  0.40213  1.0000
  H   H704      1.0  0.01239  0.69652  0.53443  1.0000
  H   H705      1.0  0.10254  0.78884  0.49479  1.0000
  C   C875      1.0  0.11572  0.92947  0.57929  1.0000
  C   C876      1.0  0.04106  0.84648  0.51101  1.0000
  C   C877      1.0  0.04782  0.94365  0.49376  1.0000
  C   C878      1.0  0.12144  0.87669  0.49430  1.0000
  C   C879      1.0  0.05829  0.89906  0.36255  1.0000
  C   C880      1.0  0.07457  0.72988  0.61158  1.0000
  C   C881      1.0  0.15724  0.88097  0.51634  1.0000
  H   H706      1.0  0.11596  0.88562  0.44753  1.0000
  H   H707      1.0  0.13643  0.83439  0.47770  1.0000
  C   C882      1.0  0.08702  0.52889  0.54766  1.0000
  C   C883      1.0  0.11958  0.87797  0.46063  1.0000
  C   C884      1.0  0.18543  0.76800  0.63367  1.0000
  H   H708      1.0  0.22942  0.57872  0.33504  1.0000
  H   H709      1.0  0.07525  0.75693  0.62123  1.0000
  C   C885      1.0  0.20494  0.85734  0.42732  1.0000
  H   H710      1.0  0.12930  0.85262  0.44772  1.0000
  C   C886      1.0  0.12838  0.85770  0.49433  1.0000
  H   H711      1.0  0.15781  0.87822  0.50179  1.0000
  C   C887      1.0  0.12690  0.85923  0.46075  1.0000
  C   C888      1.0  0.20287  0.86147  0.40812  1.0000
  H   H712      1.0  0.01959  0.55564  0.46596  1.0000
  C   C889      1.0  0.09738  0.79665  0.60827  1.0000
  H   H713      1.0  0.04110  0.89081  0.34263  1.0000
  C   C890      1.0  0.04498  0.65052  0.59782  1.0000
  H   H714      1.0  0.02547  0.53387  0.35423  1.0000
  H   H715      1.0  0.01851  0.83535  0.59242  1.0000
  C   C891      1.0  0.06673  0.98027  0.60574  1.0000
  H   H716      1.0  0.03628  0.73273  0.44936  1.0000
  H   H717      1.0  0.00675  0.95345  0.40147  1.0000
  C   C892      1.0  0.04882  0.92605  0.61127  1.0000
  H   H718      1.0  0.06462  0.98104  0.46682  1.0000
  C   C893      1.0  0.11553  0.80337  0.34741  1.0000
  H   H719      1.0  0.07835  0.90384  0.38136  1.0000
  C   C894      1.0  0.06950  0.87794  0.33884  1.0000
  C   C895      1.0  0.01717  0.71263  0.64373  1.0000
  H   H720      1.0  0.16088  0.87322  0.44454  1.0000
  C   C896      1.0  0.01544  0.94575  0.62454  1.0000
  C   C897      1.0  0.15647  0.71011  0.58088  1.0000
  C   C898      1.0  0.14008  0.59864  0.34201  1.0000
  C   C899      1.0  0.04577  0.65877  0.61443  1.0000
  H   H721      1.0  0.12431  0.59544  0.36914  1.0000
  C   C900      1.0  0.17387  0.88368  0.54340  1.0000
  C   C901      1.0  0.03402  0.81674  0.50156  1.0000
  H   H722      1.0  0.21232  0.82821  0.47070  1.0000
  H   H723      1.0  0.01176  0.97456  0.45378  1.0000
  C   C902      1.0  0.07292  0.80108  0.64061  1.0000
  H   H724      1.0  0.00280  0.78245  0.57924  1.0000
  H   H725      1.0  0.13245  0.70062  0.57020  1.0000
  H   H726      1.0  0.01670  0.82201  0.54671  1.0000
  H   H727      1.0  0.20444  0.75090  0.51856  1.0000
  H   H728      1.0  0.00179  0.61363  0.45165  1.0000
  C   C903      1.0  0.02163  0.68321  0.60529  1.0000
  H   H729      1.0  0.15731  0.88003  0.41053  1.0000
  C   C904      1.0  0.21862  0.81386  0.42041  1.0000
  H   H730      1.0  0.00221  0.95333  0.62910  1.0000
  P   P29       1.0  0.22706  0.84643  0.43479  1.0000
  H   H731      1.0  0.04687  0.90756  0.36953  1.0000
  C   C905      1.0  0.06634  0.79540  0.62465  1.0000
  C   C906      1.0  0.99301  0.64805  0.54792  1.0000
  C   C907      1.0  0.18966  0.86169  0.44043  1.0000
  C   C908      1.0  0.02938  0.95118  0.49807  1.0000
  H   H732      1.0  0.14455  0.67645  0.62510  1.0000
  C   C909      1.0  0.13692  0.68714  0.59766  1.0000
  H   H733      1.0  0.03500  0.50396  0.53880  1.0000
  C   C910      1.0  0.23021  0.83612  0.61799  1.0000
  C   C911      1.0  0.09173  0.80442  0.64045  1.0000
  H   H734      1.0  0.02320  0.61772  0.60116  1.0000
  C   C912      1.0  0.02750  0.53547  0.36868  1.0000
  H   H735      1.0  0.21960  0.86127  0.60219  1.0000
  C   C913      1.0  0.12018  0.91871  0.59578  1.0000
  C   C914      1.0  0.02361  0.96953  0.49130  1.0000
  H   H736      1.0  0.23509  0.81099  0.38182  1.0000
  C   C915      1.0  0.18323  0.58008  0.32779  1.0000
  H   H737      1.0  0.10384  0.88341  0.36671  1.0000
  C   C916      1.0  0.01759  0.92617  0.62739  1.0000
  H   H738      1.0  0.19072  0.85850  0.45529  1.0000
  C   C917      1.0  0.00157  0.50716  0.45957  1.0000
  H   H739      1.0  0.21996  0.71983  0.52949  1.0000
  H   H740      1.0  0.20592  0.78041  0.61357  1.0000
  P   P30       1.0  0.06548  0.95840  0.59565  1.0000
  C   C918      1.0  0.20046  0.57359  0.33463  1.0000
  C   C919      1.0  0.22923  0.85218  0.35468  1.0000
  C   C920      1.0  0.06798  0.50086  0.49629  1.0000
  H   H741      1.0  0.01044  0.50312  0.51764  1.0000
  C   C921      1.0  0.05983  0.96332  0.57166  1.0000
  H   H742      1.0  0.08349  0.93450  0.62548  1.0000
  H   H743      1.0  0.99372  0.62422  0.33105  1.0000
  C   C922      1.0  0.23038  0.85815  0.49621  1.0000
  C   C923      1.0  0.00326  0.87950  0.51498  1.0000
  H   H744      1.0  0.03504  0.76044  0.62392  1.0000
  H   H745      1.0  0.03161  0.71595  0.57782  1.0000
  C   C924      1.0  0.15999  0.87426  0.33151  1.0000
  C   C925      1.0  0.99861  0.52469  0.56095  1.0000
  H   H746      1.0  0.99775  0.56734  0.62475  1.0000
  H   H747      1.0  0.10819  0.51284  0.53106  1.0000
  C   C926      1.0  0.99414  0.87098  0.50227  1.0000
  P   P31       1.0  0.10575  0.86015  0.33446  1.0000
  C   C927      1.0  0.22866  0.85099  0.45880  1.0000
  H   H748      1.0  0.14863  0.63718  0.60725  1.0000
  H   H749      1.0  0.06804  0.80673  0.35625  1.0000
  H   H750      1.0  0.15296  0.71287  0.34147  1.0000
  H   H751      1.0  0.05414  0.50588  0.44079  1.0000
  C   C928      1.0  0.05504  0.88958  0.34737  1.0000
  H   H752      1.0  0.01845  0.79941  0.52254  1.0000
  C   C929      1.0  0.99633  0.73666  0.55263  1.0000
  H   H753      1.0  0.02761  0.97064  0.61270  1.0000
  C   C930      1.0  0.03944  0.50648  0.44603  1.0000
  C   C931      1.0  0.16146  0.63583  0.63330  1.0000
  C   C932      1.0  0.23583  0.67628  0.61332  1.0000
  H   H754      1.0  0.00169  0.87458  0.52962  1.0000
  C   C933      1.0  0.22524  0.62113  0.63439  1.0000
  C   C934      1.0  0.13480  0.61099  0.64729  1.0000
  H   H755      1.0  0.21388  0.83460  0.50347  1.0000
  C   C935      1.0  0.22171  0.67114  0.60342  1.0000
  C   C936      1.0  0.00969  0.66763  0.32231  1.0000
  H   H756      1.0  0.22235  0.72288  0.61426  1.0000
  C   C937      1.0  0.06486  0.97981  0.56094  1.0000
  C   C938      1.0  0.21992  0.83973  0.47356  1.0000
  H   H757      1.0  0.99413  0.81578  0.58544  1.0000
  H   H758      1.0  0.23101  0.86085  0.51067  1.0000
  C   C939      1.0  0.13997  0.59764  0.32262  1.0000
  C   C940      1.0  0.08085  0.98225  0.61733  1.0000
  H   H759      1.0  0.17133  0.64590  0.62783  1.0000
  C   C941      1.0  0.22191  0.70851  0.61115  1.0000
  C   C942      1.0  0.23596  0.69496  0.61713  1.0000
  C   C943      1.0  0.23830  0.86589  0.46296  1.0000
  S   S126      1.0  0.03061  0.67928  0.31909  1.0000
  C   C944      1.0  0.19626  0.87522  0.64899  1.0000
  H   H760      1.0  0.22938  0.61298  0.62252  1.0000
  H   H761      1.0  0.99434  0.54522  0.51392  1.0000
  H   H762      1.0  0.17134  0.57187  0.33148  1.0000
  C   C945      1.0  0.03136  0.49046  0.53560  1.0000
  H   H763      1.0  0.99408  0.74437  0.53918  1.0000
  C   C946      1.0  0.99059  0.56017  0.51420  1.0000
  C   C947      1.0  0.08626  0.49595  0.54349  1.0000
  H   H764      1.0  0.17056  0.63382  0.32878  1.0000
  H   H765      1.0  0.20171  0.56062  0.34371  1.0000
  H   H766      1.0  0.18465  0.77923  0.64281  1.0000
  H   H767      1.0  0.02186  0.98348  0.39607  1.0000
  C   C948      1.0  0.01728  0.49005  0.52361  1.0000
  C   C949      1.0  0.01356  0.49082  0.46267  1.0000
  C   C950      1.0  0.21608  0.58375  0.32971  1.0000
  C   C951      1.0  0.99231  0.67813  0.32008  1.0000
  H   H768      1.0  0.16488  0.75263  0.65094  1.0000
  Fe  Fe65      1.0  0.06379  0.66473  0.66590  1.0000
  H   H769      1.0  0.21311  0.91928  0.69475  1.0000
  S   S127      1.0  0.03274  0.67225  0.67422  1.0000
  Fe  Fe66      1.0  0.10155  0.64510  0.67742  1.0000
  S   S128      1.0  0.11487  0.62293  0.69917  1.0000
  S   S129      1.0  0.08480  0.67195  0.68459  1.0000
  Fe  Fe67      1.0  0.16034  0.59644  0.80311  1.0000
  S   S130      1.0  0.19027  0.58303  0.80400  1.0000
  S   S131      1.0  0.15063  0.61779  0.77867  1.0000
  Fe  Fe68      1.0  0.14882  0.57821  0.84264  1.0000
  S   S132      1.0  0.17746  0.56367  0.84540  1.0000
  S   S133      1.0  0.12739  0.56969  0.86665  1.0000
  Fe  Fe69      1.0  0.18869  0.59103  0.83380  1.0000
  S   S134      1.0  0.21235  0.59579  0.85178  1.0000
  Fe  Fe70      1.0  0.17689  0.55673  0.81597  1.0000
  S   S135      1.0  0.18957  0.52766  0.80856  1.0000
  S   S136      1.0  0.15960  0.60612  0.83249  1.0000
  S   S137      1.0  0.14727  0.56955  0.81351  1.0000
  Fe  Fe71      1.0  0.09380  0.59124  0.96855  1.0000
  H   H770      1.0  0.20646  0.89870  0.65971  1.0000
  S   S138      1.0  0.10447  0.60868  0.94218  1.0000
  S   S139      1.0  0.11403  0.56884  0.98085  1.0000
  H   H771      1.0  0.21700  0.57828  0.93118  1.0000
  H   H772      1.0  0.14517  0.60808  0.93834  1.0000
  H   H773      1.0  0.16269  0.53595  0.78057  1.0000
  H   H774      1.0  0.10541  0.52839  0.77374  1.0000
  C   C952      1.0  0.15128  0.66360  0.68079  1.0000
  H   H775      1.0  0.14802  0.66115  0.87395  1.0000
  H   H776      1.0  0.99308  0.68031  0.68208  1.0000
  S   S140      1.0  0.09445  0.52294  0.97281  1.0000
  C   C953      1.0  0.10823  0.51024  0.87980  1.0000
  C   C954      1.0  0.12010  0.52316  0.77283  1.0000
  C   C955      1.0  0.17798  0.50679  0.81363  1.0000
  H   H777      1.0  0.20556  0.63597  0.90901  1.0000
  C   C956      1.0  0.20095  0.63349  0.65713  1.0000
  C   C957      1.0  0.16862  0.65967  0.67048  1.0000
  H   H778      1.0  0.15491  0.57663  0.92920  1.0000
  C   C958      1.0  0.12367  0.58021  0.88813  1.0000
  C   C959      1.0  0.11626  0.56975  0.90425  1.0000
  C   C960      1.0  0.11151  0.57808  0.92120  1.0000
  C   C961      1.0  0.11310  0.59721  0.92191  1.0000
  C   C962      1.0  0.12107  0.60756  0.90598  1.0000
  C   C963      1.0  0.12658  0.59903  0.88922  1.0000
  H   H779      1.0  0.11399  0.55520  0.90355  1.0000
  H   H780      1.0  0.10589  0.56993  0.93356  1.0000
  H   H781      1.0  0.12262  0.62231  0.90647  1.0000
  H   H782      1.0  0.13229  0.60723  0.87692  1.0000
  H   H783      1.0  0.07781  0.55552  0.86315  1.0000
  C   C964      1.0  0.17777  0.61925  0.72344  1.0000
  H   H784      1.0  0.15083  0.54747  0.91576  1.0000
  H   H785      1.0  0.15053  0.52064  0.82039  1.0000
  H   H786      1.0  0.21865  0.63469  0.83674  1.0000
  C   C965      1.0  0.12444  0.62194  0.72147  1.0000
  C   C966      1.0  0.12870  0.60428  0.73135  1.0000
  C   C967      1.0  0.13643  0.60267  0.74886  1.0000
  C   C968      1.0  0.14025  0.61874  0.75680  1.0000
  C   C969      1.0  0.13603  0.63639  0.74689  1.0000
  C   C970      1.0  0.12811  0.63803  0.72949  1.0000
  H   H787      1.0  0.12604  0.59169  0.72537  1.0000
  H   H788      1.0  0.13963  0.58897  0.75610  1.0000
  H   H789      1.0  0.13912  0.64890  0.75270  1.0000
  H   H790      1.0  0.12504  0.65173  0.72219  1.0000
  C   C971      1.0  0.01368  0.65972  0.67033  1.0000
  C   C972      1.0  0.17717  0.62162  0.68957  1.0000
  C   C973      1.0  0.04312  0.49929  0.93098  1.0000
  C   C974      1.0  0.15378  0.69698  0.67377  1.0000
  S   S141      1.0  0.07006  0.57296  0.96993  1.0000
  H   H791      1.0  0.12835  0.51987  0.94561  1.0000
  C   C975      1.0  0.99530  0.66709  0.67583  1.0000
  H   H792      1.0  0.20185  0.55274  0.87989  1.0000
  C   C976      1.0  0.21469  0.64136  0.66560  1.0000
  C   C977      1.0  0.16567  0.57136  0.91896  1.0000
  C   C978      1.0  0.15237  0.52746  0.77656  1.0000
  H   H793      1.0  0.10360  0.54195  0.84166  1.0000
  C   C979      1.0  0.15870  0.50728  0.81896  1.0000
  C   C980      1.0  0.00001  0.52400  0.91983  1.0000
  H   H794      1.0  0.19131  0.92814  0.72179  1.0000
  H   H795      1.0  0.00738  0.60293  0.90234  1.0000
  C   C981      1.0  0.08590  0.54259  0.86763  1.0000
  H   H796      1.0  0.01774  0.65095  0.72578  1.0000
  H   H797      1.0  0.18136  0.57582  0.70781  1.0000
  H   H798      1.0  0.17548  0.64534  0.70636  1.0000
  C   C982      1.0  0.99481  0.58460  0.97371  1.0000
  C   C983      1.0  0.18149  0.58114  0.91296  1.0000
  H   H799      1.0  0.22087  0.57175  0.97111  1.0000
  C   C984      1.0  0.14987  0.49046  0.82198  1.0000
  H   H800      1.0  0.17420  0.53527  0.89117  1.0000
  C   C985      1.0  0.18334  0.49057  0.85926  1.0000
  H   H801      1.0  0.14649  0.66411  0.90814  1.0000
  H   H802      1.0  0.17708  0.62590  0.73641  1.0000
  C   C986      1.0  0.14388  0.68218  0.68236  1.0000
  C   C987      1.0  0.16323  0.55473  0.91130  1.0000
  S   S142      1.0  0.11751  0.65934  0.65208  1.0000
  C   C988      1.0  0.17279  0.50744  0.86293  1.0000
  C   C989      1.0  0.17934  0.59968  0.72397  1.0000
  C   C990      1.0  0.19283  0.90026  0.73606  1.0000
  H   H803      1.0  0.01733  0.56668  0.93272  1.0000
  C   C991      1.0  0.99246  0.60240  0.90161  1.0000
  S   S143      1.0  0.10968  0.71457  0.66058  1.0000
  H   H804      1.0  0.04050  0.58823  0.91854  1.0000
  C   C992      1.0  0.15424  0.60601  0.94963  1.0000
  C   C993      1.0  0.21811  0.89014  0.70562  1.0000
  C   C994      1.0  0.15487  0.65022  0.88306  1.0000
  H   H805      1.0  0.21880  0.86206  0.71973  1.0000
  C   C995      1.0  0.16465  0.63449  0.87553  1.0000
  H   H806      1.0  0.18013  0.59501  0.67739  1.0000
  C   C996      1.0  0.12919  0.48978  0.95096  1.0000
  C   C997      1.0  0.17639  0.54787  0.89741  1.0000
  H   H807      1.0  0.14634  0.61038  0.67361  1.0000
  H   H808      1.0  0.23524  0.67126  0.95544  1.0000
  H   H809      1.0  0.17861  0.52068  0.85847  1.0000
  C   C998      1.0  0.09953  0.63507  0.80168  1.0000
  C   C999      1.0  0.10347  0.61675  0.79656  1.0000
  C   C1000     1.0  0.09785  0.61206  0.77976  1.0000
  C   C1001     1.0  0.08851  0.62571  0.76791  1.0000
  C   C1002     1.0  0.08451  0.64421  0.77291  1.0000
  C   C1003     1.0  0.09004  0.64874  0.78996  1.0000
  P   P32       1.0  0.07316  0.66246  0.75754  1.0000
  C   C1004     1.0  0.06125  0.65270  0.74033  1.0000
  C   C1005     1.0  0.05626  0.67645  0.77190  1.0000
  C   C1006     1.0  0.05388  0.69609  0.76836  1.0000
  C   C1007     1.0  0.22877  0.61177  0.85576  1.0000
  C   C1008     1.0  0.02507  0.72347  0.65539  1.0000
  C   C1009     1.0  0.03182  0.67823  0.79776  1.0000
  C   C1010     1.0  0.04508  0.66759  0.78664  1.0000
  C   C1011     1.0  0.07184  0.64318  0.72613  1.0000
  C   C1012     1.0  0.06298  0.63589  0.71244  1.0000
  C   C1013     1.0  0.04349  0.63869  0.71234  1.0000
  C   C1014     1.0  0.03282  0.64847  0.72618  1.0000
  C   C1015     1.0  0.04161  0.65537  0.74022  1.0000
  C   C1016     1.0  0.09025  0.67707  0.74501  1.0000
  C   C1017     1.0  0.10762  0.67824  0.75193  1.0000
  C   C1018     1.0  0.12065  0.68967  0.74209  1.0000
  C   C1019     1.0  0.11640  0.70011  0.72537  1.0000
  C   C1020     1.0  0.09911  0.69913  0.71845  1.0000
  C   C1021     1.0  0.08606  0.68769  0.72824  1.0000
  H   H810      1.0  0.10423  0.63872  0.81456  1.0000
  H   H811      1.0  0.11136  0.60632  0.80536  1.0000
  H   H812      1.0  0.10133  0.59795  0.77560  1.0000
  H   H813      1.0  0.08475  0.62167  0.75485  1.0000
  H   H814      1.0  0.08737  0.66294  0.79404  1.0000
  H   H815      1.0  0.06219  0.70330  0.75702  1.0000
  H   H816      1.0  0.02606  0.71843  0.67001  1.0000
  H   H817      1.0  0.00296  0.61955  0.65399  1.0000
  C   C1022     1.0  0.12560  0.48967  0.91254  1.0000
  H   H818      1.0  0.04658  0.65243  0.78947  1.0000
  H   H819      1.0  0.08700  0.64149  0.72558  1.0000
  H   H820      1.0  0.07132  0.62838  0.70170  1.0000
  H   H821      1.0  0.03668  0.63363  0.70130  1.0000
  H   H822      1.0  0.19727  0.49079  0.85196  1.0000
  H   H823      1.0  0.03301  0.66304  0.75063  1.0000
  H   H824      1.0  0.11133  0.67019  0.76474  1.0000
  H   H825      1.0  0.13413  0.69028  0.74740  1.0000
  H   H826      1.0  0.12653  0.70888  0.71769  1.0000
  H   H827      1.0  0.09588  0.70709  0.70535  1.0000
  H   H828      1.0  0.07270  0.68712  0.72267  1.0000
  C   C1023     1.0  0.04517  0.57413  0.92403  1.0000
  C   C1024     1.0  0.06435  0.56841  0.92341  1.0000
  C   C1025     1.0  0.07052  0.55057  0.93136  1.0000
  C   C1026     1.0  0.05751  0.53837  0.93970  1.0000
  C   C1027     1.0  0.03818  0.54367  0.93955  1.0000
  C   C1028     1.0  0.03210  0.56185  0.93212  1.0000
  P   P33       1.0  0.02131  0.52757  0.94944  1.0000
  C   C1029     1.0  0.00091  0.53249  0.93640  1.0000
  C   C1030     1.0  0.02957  0.69778  0.79421  1.0000
  H   H829      1.0  0.04506  0.50977  0.91923  1.0000
  C   C1031     1.0  0.20872  0.60683  0.92048  1.0000
  C   C1032     1.0  0.20996  0.90871  0.70614  1.0000
  H   H830      1.0  0.11521  0.49696  0.76313  1.0000
  C   C1033     1.0  0.18013  0.59101  0.70735  1.0000
  C   C1034     1.0  0.08206  0.53375  0.88561  1.0000
  C   C1035     1.0  0.13344  0.53426  0.77760  1.0000
  H   H831      1.0  0.21084  0.64888  0.67795  1.0000
  H   H832      1.0  0.02132  0.49292  0.97528  1.0000
  C   C1036     1.0  0.15454  0.50726  0.87171  1.0000
  C   C1037     1.0  0.14475  0.49833  0.76586  1.0000
  C   C1038     1.0  0.03170  0.50378  0.94727  1.0000
  C   C1039     1.0  0.22883  0.62993  0.84666  1.0000
  H   H833      1.0  0.12578  0.51990  0.91170  1.0000
  H   H834      1.0  0.16233  0.63949  0.92886  1.0000
  H   H835      1.0  0.12916  0.54807  0.78227  1.0000
  C   C1040     1.0  0.22168  0.59192  0.92625  1.0000
  H   H836      1.0  0.07440  0.57807  0.91729  1.0000
  H   H837      1.0  0.08539  0.54631  0.93160  1.0000
  H   H838      1.0  0.06264  0.52492  0.94645  1.0000
  H   H839      1.0  0.04214  0.54043  0.97799  1.0000
  C   C1041     1.0  0.19747  0.91376  0.72140  1.0000
  P   P34       1.0  0.18404  0.60343  0.92164  1.0000
  C   C1042     1.0  0.10043  0.53494  0.85550  1.0000
  H   H840      1.0  0.01926  0.70602  0.80281  1.0000
  H   H841      1.0  0.20629  0.58202  0.89310  1.0000
  H   H842      1.0  0.99481  0.58672  0.95863  1.0000
  H   H843      1.0  0.13475  0.50333  0.72929  1.0000
  H   H844      1.0  0.14323  0.65227  0.68724  1.0000
  C   C1043     1.0  0.15748  0.60294  0.98297  1.0000
  H   H845      1.0  0.01093  0.51358  0.91519  1.0000
  H   H846      1.0  0.19681  0.87114  0.74666  1.0000
  C   C1044     1.0  0.23350  0.63938  0.65831  1.0000
  H   H847      1.0  0.07070  0.53965  0.89490  1.0000
  H   H848      1.0  0.16556  0.63326  0.86059  1.0000
  C   C1045     1.0  0.01167  0.58524  0.98199  1.0000
  C   C1046     1.0  0.18516  0.60128  0.96074  1.0000
  C   C1047     1.0  0.15403  0.65189  0.90230  1.0000
  C   C1048     1.0  0.15802  0.50952  0.77091  1.0000
  H   H849      1.0  0.17977  0.59128  0.73735  1.0000
  C   C1049     1.0  0.16290  0.63777  0.91405  1.0000
  H   H850      1.0  0.12261  0.51298  0.85183  1.0000
  C   C1050     1.0  0.17238  0.62168  0.90664  1.0000
  H   H851      1.0  0.12976  0.48994  0.96592  1.0000
  C   C1051     1.0  0.17336  0.62026  0.88725  1.0000
  H   H852      1.0  0.18091  0.60825  0.88103  1.0000
  C   C1052     1.0  0.17668  0.63021  0.70634  1.0000
  C   C1053     1.0  0.19451  0.57425  0.89878  1.0000
  C   C1054     1.0  0.19201  0.55764  0.89116  1.0000
  H   H853      1.0  0.18311  0.90419  0.74784  1.0000
  C   C1055     1.0  0.20886  0.84442  0.66115  1.0000
  C   C1056     1.0  0.17381  0.60361  0.94572  1.0000
  C   C1057     1.0  0.17927  0.60193  0.69017  1.0000
  C   C1058     1.0  0.18836  0.48927  0.81182  1.0000
  C   C1059     1.0  0.21308  0.87657  0.72019  1.0000
  H   H854      1.0  0.02452  0.58770  0.97331  1.0000
  H   H855      1.0  0.14664  0.52051  0.87452  1.0000
  H   H856      1.0  0.03879  0.72185  0.77671  1.0000
  H   H857      1.0  0.09013  0.51103  0.90576  1.0000
  C   C1060     1.0  0.21955  0.87232  0.67161  1.0000
  H   H858      1.0  0.12334  0.75098  0.65956  1.0000
  C   C1061     1.0  0.09315  0.51760  0.89170  1.0000
  C   C1062     1.0  0.11140  0.51867  0.86144  1.0000
  C   C1063     1.0  0.20728  0.88353  0.66019  1.0000
  C   C1064     1.0  0.12655  0.50665  0.92035  1.0000
  H   H859      1.0  0.13017  0.68509  0.68977  1.0000
  S   S144      1.0  0.07938  0.63684  0.66006  1.0000
  C   C1065     1.0  0.14614  0.60570  0.96814  1.0000
  C   C1066     1.0  0.99805  0.52592  0.98291  1.0000
  H   H860      1.0  0.22831  0.55582  0.85366  1.0000
  H   H861      1.0  0.03770  0.74903  0.65733  1.0000
  P   P35       1.0  0.17690  0.63556  0.66725  1.0000
  C   C1067     1.0  0.20057  0.88166  0.73541  1.0000
  C   C1068     1.0  0.17105  0.69320  0.66347  1.0000
  P   P36       1.0  0.23383  0.88329  0.68584  1.0000
  H   H862      1.0  0.20026  0.59986  0.95828  1.0000
  C   C1069     1.0  0.21991  0.85267  0.67236  1.0000
  C   C1070     1.0  0.12572  0.50531  0.76693  1.0000
  C   C1071     1.0  0.17700  0.60086  0.97927  1.0000
  C   C1072     1.0  0.01635  0.64264  0.66222  1.0000
  C   C1073     1.0  0.01539  0.53073  0.97393  1.0000
  C   C1074     1.0  0.12827  0.50668  0.93950  1.0000
  H   H863      1.0  0.13488  0.49106  0.82562  1.0000
  H   H864      1.0  0.02324  0.67131  0.80913  1.0000
  H   H865      1.0  0.13099  0.60750  0.97097  1.0000
  H   H866      1.0  0.20972  0.82927  0.66114  1.0000
  C   C1075     1.0  0.04058  0.70669  0.77951  1.0000
  Fe  Fe72      1.0  0.09943  0.68580  0.65842  1.0000
  P   P37       1.0  0.12302  0.48985  0.88787  1.0000
  H   H867      1.0  0.17269  0.50449  0.77088  1.0000
  C   C1076     1.0  0.21515  0.62432  0.91387  1.0000
  H   H868      1.0  0.22883  0.84364  0.68137  1.0000
  C   C1077     1.0  0.17834  0.67461  0.66154  1.0000
  Fe  Fe73      1.0  0.08982  0.55123  0.98392  1.0000
  C   C1078     1.0  0.00076  0.63289  0.66001  1.0000
  C   C1079     1.0  0.08258  0.48791  0.97896  1.0000
  C   C1080     1.0  0.02856  0.53686  0.98446  1.0000
  H   H869      1.0  0.14778  0.71137  0.67474  1.0000
  C   C1081     1.0  0.08037  0.50613  0.98457  1.0000
  C   C1082     1.0  0.02970  0.48995  0.96237  1.0000
  H   H870      1.0  0.99601  0.57781  0.88636  1.0000
  H   H871      1.0  0.13726  0.50578  0.69484  1.0000
  C   C1083     1.0  0.14365  0.49279  0.72203  1.0000
  C   C1084     1.0  0.14650  0.49016  0.87633  1.0000
  H   H872      1.0  0.03041  0.63682  0.65792  1.0000
  C   C1085     1.0  0.14758  0.61580  0.65900  1.0000
  C   C1086     1.0  0.14502  0.49424  0.70243  1.0000
  C   C1087     1.0  0.23133  0.57150  0.98098  1.0000
  H   H873      1.0  0.20329  0.48873  0.80777  1.0000
  C   C1088     1.0  0.23424  0.62684  0.91311  1.0000
  H   H874      1.0  0.06342  0.80294  0.65310  1.0000
  H   H875      1.0  0.09686  0.80885  0.65279  1.0000
  H   H876      1.0  0.12407  0.60185  0.65290  1.0000
  C   C1089     1.0  0.16120  0.62804  0.65202  1.0000
  H   H877      1.0  0.17858  0.70472  0.65667  1.0000
  H   H878      1.0  0.19135  0.67202  0.65287  1.0000
  H   H879      1.0  0.24685  0.38804  0.11290  1.0000
  C   C1090     1.0  0.46403  0.05867  0.07544  1.0000
  C   C1091     1.0  0.30499  0.29911  0.99369  1.0000
  S   S145      1.0  0.34051  0.10504  0.28388  1.0000
  Fe  Fe74      1.0  0.40250  0.12053  0.13666  1.0000
  S   S146      1.0  0.42128  0.11621  0.15996  1.0000
  S   S147      1.0  0.41003  0.10117  0.11312  1.0000
  Fe  Fe75      1.0  0.38435  0.15865  0.15003  1.0000
  S   S148      1.0  0.40236  0.15625  0.17449  1.0000
  S   S149      1.0  0.36129  0.18310  0.14478  1.0000
  Fe  Fe76      1.0  0.42641  0.14651  0.15384  1.0000
  S   S150      1.0  0.45591  0.15539  0.14445  1.0000
  Fe  Fe77      1.0  0.39579  0.12578  0.17887  1.0000
  S   S151      1.0  0.39154  0.10519  0.20537  1.0000
  S   S152      1.0  0.40862  0.15063  0.12946  1.0000
  S   S153      1.0  0.37657  0.12851  0.15559  1.0000
  Fe  Fe78      1.0  0.39839  0.00047  0.08385  1.0000
  S   S154      1.0  0.41248  0.00203  0.05432  1.0000
  S   S155      1.0  0.38053  0.02330  0.09923  1.0000
  H   H880      1.0  0.36678  0.20845  0.01799  1.0000
  Fe  Fe79      1.0  0.32877  0.32049  0.05878  1.0000
  S   S156      1.0  0.35481  0.31477  0.07399  1.0000
  S   S157      1.0  0.33465  0.32592  0.02696  1.0000
  Fe  Fe80      1.0  0.30380  0.32158  0.09571  1.0000
  S   S158      1.0  0.32857  0.31589  0.11323  1.0000
  S   S159      1.0  0.27324  0.32193  0.10868  1.0000
  Fe  Fe81      1.0  0.34216  0.33715  0.09215  1.0000
  S   S160      1.0  0.36239  0.35701  0.10018  1.0000
  Fe  Fe82      1.0  0.33962  0.29373  0.09377  1.0000
  S   S161      1.0  0.35835  0.26600  0.10060  1.0000
  S   S162      1.0  0.31674  0.34421  0.07610  1.0000
  S   S163      1.0  0.31416  0.29819  0.07717  1.0000
  C   C1092     1.0  0.33300  0.48531  0.08190  1.0000
  H   H881      1.0  0.44810  0.11366  0.12028  1.0000
  H   H882      1.0  0.45021  0.08732  0.10064  1.0000
  Fe  Fe83      1.0  0.39729  0.46123  0.07199  1.0000
  S   S164      1.0  0.37375  0.44240  0.07001  1.0000
  S   S165      1.0  0.42597  0.45868  0.05640  1.0000
  H   H883      1.0  0.38374  0.44964  0.98716  1.0000
  C   C1093     1.0  0.33113  0.23402  0.06445  1.0000
  C   C1094     1.0  0.38006  0.25006  0.05774  1.0000
  H   H884      1.0  0.25080  0.31677  0.18652  1.0000
  C   C1095     1.0  0.33265  0.32410  0.98938  1.0000
  H   H885      1.0  0.36928  0.01842  0.25559  1.0000
  H   H886      1.0  0.26981  0.10885  0.31764  1.0000
  C   C1096     1.0  0.25570  0.34036  0.11457  1.0000
  H   H887      1.0  0.34708  0.27479  0.03173  1.0000
  C   C1097     1.0  0.25869  0.35937  0.11081  1.0000
  H   H888      1.0  0.29049  0.03398  0.25765  1.0000
  H   H889      1.0  0.27203  0.36327  0.10403  1.0000
  C   C1098     1.0  0.32574  0.31747  0.00758  1.0000
  H   H890      1.0  0.30111  0.48037  0.01147  1.0000
  C   C1099     1.0  0.31191  0.30486  0.00968  1.0000
  C   C1100     1.0  0.31255  0.24761  0.00538  1.0000
  H   H891      1.0  0.30644  0.29965  0.02358  1.0000
  C   C1101     1.0  0.36567  0.38051  0.09091  1.0000
  C   C1102     1.0  0.38079  0.38917  0.09618  1.0000
  C   C1103     1.0  0.38369  0.40796  0.08969  1.0000
  C   C1104     1.0  0.37127  0.41844  0.07806  1.0000
  C   C1105     1.0  0.35615  0.40979  0.07273  1.0000
  C   C1106     1.0  0.35344  0.39089  0.07897  1.0000
  H   H892      1.0  0.39030  0.38131  0.10544  1.0000
  H   H893      1.0  0.39531  0.41442  0.09398  1.0000
  H   H894      1.0  0.34646  0.41774  0.06373  1.0000
  H   H895      1.0  0.34174  0.38446  0.07479  1.0000
  C   C1107     1.0  0.36986  0.20261  0.03189  1.0000
  C   C1108     1.0  0.45518  0.03452  0.11612  1.0000
  C   C1109     1.0  0.38027  0.18509  0.03399  1.0000
  C   C1110     1.0  0.26810  0.08594  0.30098  1.0000
  C   C1111     1.0  0.48504  0.47381  0.08614  1.0000
  H   H896      1.0  0.39588  0.03950  0.29196  1.0000
  C   C1112     1.0  0.36050  0.20591  0.13191  1.0000
  C   C1113     1.0  0.37504  0.21145  0.11872  1.0000
  C   C1114     1.0  0.37382  0.22968  0.10917  1.0000
  C   C1115     1.0  0.35819  0.24278  0.11253  1.0000
  C   C1116     1.0  0.34344  0.23711  0.12540  1.0000
  C   C1117     1.0  0.34459  0.21884  0.13496  1.0000
  H   H897      1.0  0.38723  0.20169  0.11589  1.0000
  H   H898      1.0  0.38507  0.23371  0.09903  1.0000
  H   H899      1.0  0.33124  0.24682  0.12814  1.0000
  H   H900      1.0  0.33314  0.21475  0.14496  1.0000
  C   C1118     1.0  0.32495  0.14401  0.31031  1.0000
  H   H901      1.0  0.39210  0.16337  0.05347  1.0000
  C   C1119     1.0  0.39393  0.19848  0.31290  1.0000
  H   H902      1.0  0.46349  0.15392  0.18402  1.0000
  H   H903      1.0  0.32633  0.04403  0.16250  1.0000
  C   C1120     1.0  0.40187  0.07920  0.11030  1.0000
  C   C1121     1.0  0.41235  0.06741  0.09783  1.0000
  C   C1122     1.0  0.40628  0.05003  0.09477  1.0000
  C   C1123     1.0  0.38932  0.04446  0.10376  1.0000
  C   C1124     1.0  0.37876  0.05627  0.11622  1.0000
  C   C1125     1.0  0.38507  0.07350  0.11956  1.0000
  H   H904      1.0  0.42514  0.07183  0.09029  1.0000
  H   H905      1.0  0.41444  0.04118  0.08504  1.0000
  H   H906      1.0  0.36552  0.05220  0.12311  1.0000
  H   H907      1.0  0.37669  0.08266  0.12882  1.0000
  C   C1126     1.0  0.35520  0.10486  0.26234  1.0000
  C   C1127     1.0  0.36792  0.08952  0.25793  1.0000
  C   C1128     1.0  0.37923  0.09018  0.24067  1.0000
  C   C1129     1.0  0.37782  0.10598  0.22745  1.0000
  C   C1130     1.0  0.36522  0.12139  0.23193  1.0000
  C   C1131     1.0  0.35399  0.12079  0.24925  1.0000
  H   H908      1.0  0.36906  0.07718  0.26779  1.0000
  H   H909      1.0  0.38918  0.07836  0.23748  1.0000
  H   H910      1.0  0.36393  0.13365  0.22197  1.0000
  H   H911      1.0  0.34421  0.13274  0.25245  1.0000
  C   C1132     1.0  0.31370  0.36207  0.12855  1.0000
  C   C1133     1.0  0.32830  0.36824  0.13702  1.0000
  C   C1134     1.0  0.33037  0.36288  0.15595  1.0000
  C   C1135     1.0  0.31774  0.35146  0.16649  1.0000
  C   C1136     1.0  0.30283  0.34547  0.15813  1.0000
  C   C1137     1.0  0.30109  0.35064  0.13903  1.0000
  P   P38       1.0  0.28660  0.33025  0.17109  1.0000
  C   C1138     1.0  0.29001  0.30854  0.16001  1.0000
  C   C1139     1.0  0.29112  0.32626  0.19545  1.0000
  C   C1140     1.0  0.29600  0.30813  0.20379  1.0000
  C   C1141     1.0  0.29891  0.30538  0.22283  1.0000
  C   C1142     1.0  0.29681  0.32066  0.23370  1.0000
  C   C1143     1.0  0.29171  0.33870  0.22556  1.0000
  C   C1144     1.0  0.28879  0.34149  0.20653  1.0000
  C   C1145     1.0  0.27521  0.30147  0.15247  1.0000
  C   C1146     1.0  0.31663  0.11684  0.21467  1.0000
  C   C1147     1.0  0.29627  0.27537  0.14181  1.0000
  C   C1148     1.0  0.31114  0.28243  0.14907  1.0000
  C   C1149     1.0  0.30805  0.29901  0.15805  1.0000
  H   H912      1.0  0.34775  0.48450  0.04340  1.0000
  C   C1150     1.0  0.26276  0.34107  0.17155  1.0000
  H   H913      1.0  0.46834  0.21110  0.18011  1.0000
  C   C1151     1.0  0.41345  0.00218  0.17181  1.0000
  C   C1152     1.0  0.32646  0.24932  0.07517  1.0000
  H   H914      1.0  0.26983  0.36804  0.15768  1.0000
  H   H915      1.0  0.31241  0.36584  0.11375  1.0000
  H   H916      1.0  0.33826  0.37684  0.12877  1.0000
  H   H917      1.0  0.34197  0.36738  0.16232  1.0000
  H   H918      1.0  0.31989  0.34719  0.18100  1.0000
  H   H919      1.0  0.29007  0.34562  0.13221  1.0000
  C   C1153     1.0  0.46718  0.21437  0.12613  1.0000
  H   H920      1.0  0.29501  0.34234  0.99251  1.0000
  H   H921      1.0  0.29897  0.31849  0.24847  1.0000
  H   H922      1.0  0.28987  0.35052  0.23402  1.0000
  C   C1154     1.0  0.47683  0.45572  0.03509  1.0000
  C   C1155     1.0  0.24433  0.37340  0.11581  1.0000
  H   H923      1.0  0.27115  0.34416  0.01970  1.0000
  H   H924      1.0  0.34224  0.11703  0.19623  1.0000
  H   H925      1.0  0.32517  0.27535  0.14727  1.0000
  H   H926      1.0  0.31981  0.30460  0.16316  1.0000
  C   C1156     1.0  0.27466  0.10272  0.30463  1.0000
  H   H927      1.0  0.46363  0.46386  0.00973  1.0000
  C   C1157     1.0  0.44132  0.06145  0.04561  1.0000
  H   H928      1.0  0.41556  0.45247  0.99554  1.0000
  C   C1158     1.0  0.30402  0.03554  0.26231  1.0000
  H   H929      1.0  0.44493  0.09102  0.04307  1.0000
  H   H930      1.0  0.35533  0.02534  0.17146  1.0000
  C   C1159     1.0  0.26703  0.34781  0.00561  1.0000
  H   H931      1.0  0.33465  0.06553  0.23033  1.0000
  H   H932      1.0  0.30932  0.26020  0.09863  1.0000
  C   C1160     1.0  0.33799  0.07061  0.16129  1.0000
  C   C1161     1.0  0.37911  0.10823  0.31244  1.0000
  C   C1162     1.0  0.47823  0.07634  0.10732  1.0000
  C   C1163     1.0  0.27489  0.07753  0.28461  1.0000
  H   H933      1.0  0.36992  0.22397  0.18527  1.0000
  C   C1164     1.0  0.46002  0.07607  0.06523  1.0000
  H   H934      1.0  0.36737  0.29985  0.03365  1.0000
  C   C1165     1.0  0.47676  0.15516  0.15584  1.0000
  H   H935      1.0  0.38928  0.99375  0.12805  1.0000
  C   C1166     1.0  0.48823  0.02536  0.11893  1.0000
  C   C1167     1.0  0.34948  0.46036  0.02788  1.0000
  H   H936      1.0  0.39448  0.00230  0.01106  1.0000
  P   P39       1.0  0.34962  0.23472  0.04553  1.0000
  C   C1168     1.0  0.34378  0.25047  0.99005  1.0000
  H   H937      1.0  0.36649  0.24365  0.00743  1.0000
  C   C1169     1.0  0.31460  0.47478  0.01609  1.0000
  S   S166      1.0  0.40787  0.47272  0.09660  1.0000
  H   H938      1.0  0.36297  0.45514  0.03270  1.0000
  H   H939      1.0  0.31065  0.23857  0.03469  1.0000
  S   S167      1.0  0.31168  0.06551  0.31365  1.0000
  C   C1170     1.0  0.34010  0.09036  0.21243  1.0000
  H   H940      1.0  0.44101  0.03140  0.05095  1.0000
  C   C1171     1.0  0.44604  0.04395  0.05509  1.0000
  H   H941      1.0  0.30567  0.10915  0.26625  1.0000
  C   C1172     1.0  0.46066  0.10390  0.11962  1.0000
  C   C1173     1.0  0.24803  0.33112  0.18057  1.0000
  C   C1174     1.0  0.39135  0.01128  0.30349  1.0000
  H   H942      1.0  0.38762  0.99990  0.20152  1.0000
  H   H943      1.0  0.38217  0.08431  0.29633  1.0000
  H   H944      1.0  0.38248  0.07654  0.16983  1.0000
  H   H945      1.0  0.44405  0.04365  0.11003  1.0000
  P   P40       1.0  0.47991  0.05641  0.09357  1.0000
  C   C1175     1.0  0.36413  0.25341  0.04767  1.0000
  H   H946      1.0  0.37052  0.05157  0.24257  1.0000
  H   H947      1.0  0.29871  0.26276  0.13450  1.0000
  C   C1176     1.0  0.35144  0.24428  0.00694  1.0000
  C   C1177     1.0  0.26967  0.05159  0.21377  1.0000
  H   H948      1.0  0.38513  0.17765  0.02177  1.0000
  C   C1178     1.0  0.32014  0.24145  0.02232  1.0000
  H   H949      1.0  0.43233  0.06252  0.03428  1.0000
  C   C1179     1.0  0.46808  0.21230  0.16502  1.0000
  C   C1180     1.0  0.26103  0.07680  0.24127  1.0000
  C   C1181     1.0  0.31257  0.24840  0.09022  1.0000
  C   C1182     1.0  0.45047  0.01989  0.12953  1.0000
  Fe  Fe84      1.0  0.33540  0.08427  0.31000  1.0000
  C   C1183     1.0  0.47650  0.45802  0.01561  1.0000
  C   C1184     1.0  0.39419  0.99363  0.99966  1.0000
  C   C1185     1.0  0.30763  0.21693  0.08388  1.0000
  H   H950      1.0  0.41065  0.05054  0.14293  1.0000
  H   H951      1.0  0.29252  0.11264  0.23430  1.0000
  C   C1186     1.0  0.29477  0.10279  0.27547  1.0000
  H   H952      1.0  0.26144  0.30908  0.15264  1.0000
  C   C1187     1.0  0.36337  0.21222  0.04767  1.0000
  H   H953      1.0  0.43584  0.01765  0.13338  1.0000
  C   C1188     1.0  0.44564  0.27984  0.10370  1.0000
  C   C1189     1.0  0.42860  0.28957  0.09916  1.0000
  C   C1190     1.0  0.41197  0.28085  0.10302  1.0000
  C   C1191     1.0  0.41234  0.26247  0.11149  1.0000
  C   C1192     1.0  0.42937  0.25262  0.11625  1.0000
  C   C1193     1.0  0.44606  0.26139  0.11216  1.0000
  P   P41       1.0  0.42955  0.22868  0.12685  1.0000
  C   C1194     1.0  0.42757  0.21302  0.10907  1.0000
  C   C1195     1.0  0.45120  0.22099  0.13735  1.0000
  H   H954      1.0  0.43307  0.10879  0.30217  1.0000
  H   H955      1.0  0.43702  0.07006  0.13498  1.0000
  H   H956      1.0  0.45371  0.08035  0.16009  1.0000
  C   C1196     1.0  0.24046  0.36835  0.16606  1.0000
  C   C1197     1.0  0.45187  0.22012  0.15687  1.0000
  C   C1198     1.0  0.43291  0.19373  0.11246  1.0000
  C   C1199     1.0  0.43230  0.18160  0.09857  1.0000
  C   C1200     1.0  0.42591  0.18850  0.08131  1.0000
  C   C1201     1.0  0.42057  0.20767  0.07775  1.0000
  C   C1202     1.0  0.42167  0.21993  0.09145  1.0000
  C   C1203     1.0  0.41046  0.22721  0.14523  1.0000
  C   C1204     1.0  0.40286  0.24333  0.15395  1.0000
  C   C1205     1.0  0.38823  0.24219  0.16825  1.0000
  C   C1206     1.0  0.38142  0.22490  0.17436  1.0000
  C   C1207     1.0  0.38939  0.20872  0.16633  1.0000
  C   C1208     1.0  0.40382  0.20981  0.15180  1.0000
  H   H957      1.0  0.45852  0.28665  0.10074  1.0000
  H   H958      1.0  0.42823  0.30391  0.09275  1.0000
  H   H959      1.0  0.39867  0.28833  0.09959  1.0000
  H   H960      1.0  0.39925  0.25605  0.11450  1.0000
  H   H961      1.0  0.45937  0.25410  0.11558  1.0000
  C   C1209     1.0  0.32331  0.48437  0.02825  1.0000
  C   C1210     1.0  0.41352  0.43246  0.01972  1.0000
  H   H962      1.0  0.38879  0.00661  0.29023  1.0000
  Fe  Fe85      1.0  0.43628  0.47262  0.07960  1.0000
  H   H963      1.0  0.43978  0.22494  0.16592  1.0000
  H   H964      1.0  0.43779  0.18804  0.12579  1.0000
  H   H965      1.0  0.43675  0.16677  0.10132  1.0000
  H   H966      1.0  0.42515  0.17898  0.07071  1.0000
  H   H967      1.0  0.41564  0.21303  0.06434  1.0000
  H   H968      1.0  0.41778  0.23471  0.08820  1.0000
  H   H969      1.0  0.40816  0.25683  0.14979  1.0000
  H   H970      1.0  0.38212  0.25474  0.17455  1.0000
  H   H971      1.0  0.29792  0.04952  0.22158  1.0000
  C   C1211     1.0  0.38879  0.44098  0.99912  1.0000
  H   H972      1.0  0.40953  0.19707  0.14567  1.0000
  C   C1212     1.0  0.34414  0.37495  0.02449  1.0000
  C   C1213     1.0  0.32604  0.37640  0.03357  1.0000
  C   C1214     1.0  0.39129  0.26458  0.05911  1.0000
  C   C1215     1.0  0.32452  0.41029  0.02775  1.0000
  C   C1216     1.0  0.34260  0.40893  0.01826  1.0000
  C   C1217     1.0  0.35240  0.39111  0.01683  1.0000
  P   P42       1.0  0.35263  0.42953  0.00650  1.0000
  C   C1218     1.0  0.37709  0.42906  0.01045  1.0000
  C   C1219     1.0  0.27938  0.06814  0.23847  1.0000
  C   C1220     1.0  0.33373  0.10884  0.20668  1.0000
  C   C1221     1.0  0.38384  0.41893  0.02651  1.0000
  C   C1222     1.0  0.40201  0.42056  0.03104  1.0000
  C   C1223     1.0  0.30590  0.10636  0.22845  1.0000
  H   H973      1.0  0.47049  0.42420  0.99542  1.0000
  H   H974      1.0  0.46099  0.99657  0.14793  1.0000
  C   C1224     1.0  0.34091  0.45067  0.01556  1.0000
  C   C1225     1.0  0.32338  0.45801  0.00972  1.0000
  H   H975      1.0  0.41664  0.08471  0.28956  1.0000
  C   C1226     1.0  0.47529  0.10606  0.13035  1.0000
  H   H976      1.0  0.35167  0.36119  0.02326  1.0000
  H   H977      1.0  0.31957  0.36378  0.03909  1.0000
  C   C1227     1.0  0.45740  0.04253  0.06989  1.0000
  H   H978      1.0  0.32524  0.07881  0.15745  1.0000
  H   H979      1.0  0.36633  0.38964  0.00962  1.0000
  C   C1228     1.0  0.38422  0.17704  0.05183  1.0000
  H   H980      1.0  0.47413  0.11760  0.13915  1.0000
  H   H981      1.0  0.37485  0.41051  0.03615  1.0000
  H   H982      1.0  0.40675  0.41328  0.04389  1.0000
  H   H983      1.0  0.33960  0.47118  0.08033  1.0000
  H   H984      1.0  0.32488  0.20585  0.06066  1.0000
  C   C1229     1.0  0.33967  0.23983  0.02326  1.0000
  H   H985      1.0  0.32902  0.99276  0.09194  1.0000
  H   H986      1.0  0.29747  0.24930  0.00480  1.0000
  C   C1230     1.0  0.46203  0.08902  0.10827  1.0000
  C   C1231     1.0  0.48346  0.01095  0.13260  1.0000
  H   H987      1.0  0.31666  0.42377  0.02924  1.0000
  H   H988      1.0  0.38067  0.18024  0.08150  1.0000
  C   C1232     1.0  0.31242  0.08792  0.23464  1.0000
  C   C1233     1.0  0.31106  0.05322  0.26100  1.0000
  H   H989      1.0  0.26698  0.27994  0.13710  1.0000
  C   C1234     1.0  0.25884  0.35984  0.16446  1.0000
  H   H990      1.0  0.46452  0.46002  0.04413  1.0000
  C   C1235     1.0  0.41797  0.10877  0.30485  1.0000
  C   C1236     1.0  0.38935  0.09488  0.30167  1.0000
  C   C1237     1.0  0.28817  0.08598  0.27163  1.0000
  H   H991      1.0  0.31174  0.13120  0.21021  1.0000
  C   C1238     1.0  0.32949  0.07988  0.22630  1.0000
  H   H992      1.0  0.38402  0.19534  0.17108  1.0000
  C   C1239     1.0  0.44840  0.07749  0.05060  1.0000
  H   H993      1.0  0.46111  0.02873  0.07680  1.0000
  C   C1240     1.0  0.37044  0.06915  0.16809  1.0000
  H   H994      1.0  0.30236  0.39508  0.04272  1.0000
  C   C1241     1.0  0.37105  0.28589  0.04023  1.0000
  C   C1242     1.0  0.30320  0.23220  0.09462  1.0000
  C   C1243     1.0  0.32151  0.21784  0.06880  1.0000
  H   H995      1.0  0.35347  0.08431  0.20632  1.0000
  H   H996      1.0  0.35091  0.04041  0.28288  1.0000
  C   C1244     1.0  0.32803  0.05490  0.26846  1.0000
  H   H997      1.0  0.44093  0.41300  0.98805  1.0000
  C   C1245     1.0  0.33139  0.02138  0.27718  1.0000
  H   H998      1.0  0.29260  0.23145  0.10643  1.0000
  C   C1246     1.0  0.47408  0.03717  0.11051  1.0000
  H   H999      1.0  0.27305  0.04196  0.20301  1.0000
  C   C1247     1.0  0.35957  0.27155  0.03914  1.0000
  H   H1000     1.0  0.33378  0.26184  0.07215  1.0000
  H   H1001     1.0  0.34332  0.33387  0.98757  1.0000
  C   C1248     1.0  0.35384  0.07965  0.16344  1.0000
  H   H1002     1.0  0.46896  0.99170  0.00932  1.0000
  C   C1249     1.0  0.31631  0.39406  0.03542  1.0000
  P   P43       1.0  0.29784  0.07403  0.25140  1.0000
  H   H1003     1.0  0.35333  0.09484  0.16136  1.0000
  H   H1004     1.0  0.36237  0.21103  0.07800  1.0000
  H   H1005     1.0  0.40319  0.26208  0.06738  1.0000
  C   C1250     1.0  0.40875  0.09514  0.29785  1.0000
  H   H1006     1.0  0.29352  0.12379  0.29500  1.0000
  H   H1007     1.0  0.44323  0.07165  0.19348  1.0000
  H   H1008     1.0  0.29732  0.29602  0.19580  1.0000
  C   C1251     1.0  0.31426  0.01966  0.27026  1.0000
  H   H1009     1.0  0.39529  0.29381  0.05164  1.0000
  H   H1010     1.0  0.38364  0.23644  0.06488  1.0000
  H   H1011     1.0  0.30264  0.29136  0.22920  1.0000
  H   H1012     1.0  0.46581  0.08853  0.06856  1.0000
  H   H1013     1.0  0.41684  0.05217  0.20178  1.0000
  C   C1252     1.0  0.47661  0.15471  0.17532  1.0000
  C   C1253     1.0  0.36738  0.20398  0.06556  1.0000
  H   H1014     1.0  0.33909  0.00909  0.28367  1.0000
  H   H1015     1.0  0.47197  0.41286  0.08341  1.0000
  H   H1016     1.0  0.28463  0.35553  0.20043  1.0000
  H   H1017     1.0  0.27015  0.06417  0.28234  1.0000
  C   C1254     1.0  0.33815  0.03901  0.27654  1.0000
  C   C1255     1.0  0.25133  0.05987  0.21698  1.0000
  C   C1256     1.0  0.33863  0.05103  0.16411  1.0000
  H   H1018     1.0  0.37991  0.02239  0.14393  1.0000
  H   H1019     1.0  0.33942  0.00609  0.05991  1.0000
  C   C1257     1.0  0.35515  0.04048  0.16897  1.0000
  H   H1020     1.0  0.32030  0.14287  0.29666  1.0000
  C   C1258     1.0  0.28050  0.34674  0.99028  1.0000
  H   H1021     1.0  0.42736  0.43424  0.02357  1.0000
  H   H1022     1.0  0.37778  0.99273  0.23492  1.0000
  C   C1259     1.0  0.37779  0.18650  0.06761  1.0000
  C   C1260     1.0  0.38683  0.28246  0.05030  1.0000
  H   H1023     1.0  0.33317  0.06858  0.26847  1.0000
  H   H1024     1.0  0.38132  0.05919  0.20920  1.0000
  C   C1261     1.0  0.39039  0.01217  0.14970  1.0000
  C   C1262     1.0  0.39870  0.01506  0.16588  1.0000
  H   H1025     1.0  0.39992  0.18801  0.28569  1.0000
  P   P44       1.0  0.39213  0.03586  0.17816  1.0000
  C   C1263     1.0  0.38611  0.03009  0.20294  1.0000
  C   C1264     1.0  0.41178  0.04983  0.17294  1.0000
  C   C1265     1.0  0.42119  0.05574  0.18716  1.0000
  C   C1266     1.0  0.43633  0.06665  0.18250  1.0000
  C   C1267     1.0  0.44224  0.07158  0.16370  1.0000
  C   C1268     1.0  0.43289  0.06576  0.14954  1.0000
  C   C1269     1.0  0.41780  0.05485  0.15411  1.0000
  C   C1270     1.0  0.38466  0.01136  0.21033  1.0000
  C   C1271     1.0  0.37881  0.00721  0.22929  1.0000
  C   C1272     1.0  0.37393  0.02169  0.24093  1.0000
  C   C1273     1.0  0.37477  0.04037  0.23361  1.0000
  C   C1274     1.0  0.38087  0.04459  0.21470  1.0000
  C   C1275     1.0  0.37131  0.04943  0.17056  1.0000
  H   H1026     1.0  0.31657  0.45081  0.00014  1.0000
  C   C1276     1.0  0.24829  0.35346  0.00275  1.0000
  C   C1277     1.0  0.40687  0.44270  0.00384  1.0000
  C   C1278     1.0  0.39494  0.18477  0.30027  1.0000
  H   H1027     1.0  0.35401  0.13932  0.30049  1.0000
  C   C1279     1.0  0.39531  0.02980  0.30447  1.0000
  C   C1280     1.0  0.24703  0.07253  0.23066  1.0000
  C   C1281     1.0  0.28798  0.11113  0.29188  1.0000
  C   C1282     1.0  0.28369  0.05583  0.22436  1.0000
  H   H1028     1.0  0.48406  0.41737  0.11338  1.0000
  H   H1029     1.0  0.42064  0.00459  0.18373  1.0000
  C   C1283     1.0  0.46462  0.00809  0.13777  1.0000
  S   S168      1.0  0.46520  0.46054  0.08808  1.0000
  C   C1284     1.0  0.27834  0.28491  0.14347  1.0000
  H   H1030     1.0  0.25747  0.08695  0.25151  1.0000
  H   H1031     1.0  0.25828  0.07914  0.31127  1.0000
  H   H1032     1.0  0.29419  0.28948  0.99543  1.0000
  C   C1285     1.0  0.39586  0.99600  0.14044  1.0000
  C   C1286     1.0  0.34077  0.47717  0.03407  1.0000
  S   S169      1.0  0.46624  0.99062  0.05716  1.0000
  H   H1033     1.0  0.30044  0.20432  0.08735  1.0000
  H   H1034     1.0  0.46694  0.21464  0.11110  1.0000
  H   H1035     1.0  0.30872  0.00606  0.27158  1.0000
  C   C1287     1.0  0.38937  0.16690  0.30636  1.0000
  C   C1288     1.0  0.34014  0.99099  0.06322  1.0000
  H   H1036     1.0  0.24046  0.05661  0.20876  1.0000
  H   H1037     1.0  0.30712  0.48008  0.07168  1.0000
  C   C1289     1.0  0.32435  0.25225  0.98929  1.0000
  H   H1038     1.0  0.38992  0.15655  0.29631  1.0000
  C   C1290     1.0  0.34414  0.14182  0.31259  1.0000
  H   H1039     1.0  0.39820  0.21233  0.30814  1.0000
  C   C1291     1.0  0.48334  0.20653  0.13436  1.0000
  C   C1292     1.0  0.48375  0.20539  0.15379  1.0000
  C   C1293     1.0  0.48688  0.41005  0.08492  1.0000
  C   C1294     1.0  0.40774  0.12231  0.31541  1.0000
  H   H1040     1.0  0.36419  0.10738  0.31568  1.0000
  H   H1041     1.0  0.47492  0.06319  0.50487  1.0000
  S   S170      1.0  0.37726  0.07415  0.62865  1.0000
  H   H1042     1.0  0.40949  0.06590  0.60333  1.0000
  H   H1043     1.0  0.42081  0.99037  0.60646  1.0000
  C   C1295     1.0  0.47568  0.01098  0.64320  1.0000
  S   S171      1.0  0.47861  0.07864  0.57252  1.0000
  S   S172      1.0  0.46088  0.09753  0.62289  1.0000
  C   C1296     1.0  0.48122  0.99346  0.45510  1.0000
  C   C1297     1.0  0.43702  0.98736  0.53312  1.0000
  Fe  Fe86      1.0  0.30460  0.07654  0.34225  1.0000
  S   S173      1.0  0.27344  0.08182  0.35431  1.0000
  Fe  Fe87      1.0  0.34685  0.07215  0.34968  1.0000
  S   S174      1.0  0.36624  0.07077  0.37324  1.0000
  H   H1044     1.0  0.46129  0.03362  0.48020  1.0000
  C   C1298     1.0  0.35043  0.14246  0.33032  1.0000
  S   S175      1.0  0.32744  0.09633  0.33802  1.0000
  S   S176      1.0  0.32348  0.05314  0.35605  1.0000
  Fe  Fe88      1.0  0.47288  0.08034  0.39579  1.0000
  S   S177      1.0  0.44897  0.09309  0.37830  1.0000
  S   S178      1.0  0.47315  0.05585  0.41775  1.0000
  C   C1299     1.0  0.31187  0.14721  0.32564  1.0000
  C   C1300     1.0  0.25591  0.09950  0.36280  1.0000
  H   H1045     1.0  0.46058  0.98996  0.35670  1.0000
  S   S179      1.0  0.34172  0.01300  0.32247  1.0000
  C   C1301     1.0  0.25920  0.11843  0.36261  1.0000
  C   C1302     1.0  0.37667  0.00246  0.60276  1.0000
  H   H1046     1.0  0.41652  0.99956  0.57309  1.0000
  H   H1047     1.0  0.27283  0.12280  0.35729  1.0000
  H   H1048     1.0  0.34080  0.02281  0.64118  1.0000
  C   C1303     1.0  0.47084  0.02066  0.52521  1.0000
  H   H1049     1.0  0.48652  0.07598  0.53164  1.0000
  H   H1050     1.0  0.44480  0.14827  0.43690  1.0000
  C   C1304     1.0  0.42736  0.08383  0.37584  1.0000
  C   C1305     1.0  0.41821  0.07283  0.39044  1.0000
  C   C1306     1.0  0.39979  0.06827  0.38905  1.0000
  C   C1307     1.0  0.39048  0.07416  0.37289  1.0000
  C   C1308     1.0  0.40008  0.08414  0.35785  1.0000
  C   C1309     1.0  0.41826  0.08923  0.35946  1.0000
  H   H1051     1.0  0.42499  0.06852  0.40310  1.0000
  H   H1052     1.0  0.39252  0.06053  0.40076  1.0000
  H   H1053     1.0  0.39309  0.08881  0.34541  1.0000
  H   H1054     1.0  0.42514  0.09781  0.34813  1.0000
  C   C1310     1.0  0.24928  0.05808  0.62197  1.0000
  C   C1311     1.0  0.39289  0.00489  0.33712  1.0000
  C   C1312     1.0  0.43212  0.19775  0.47090  1.0000
  C   C1313     1.0  0.46914  0.02794  0.49189  1.0000
  H   H1055     1.0  0.43493  0.13022  0.41283  1.0000
  H   H1056     1.0  0.24679  0.12492  0.52420  1.0000
  C   C1314     1.0  0.48836  0.02260  0.48871  1.0000
  C   C1315     1.0  0.42617  0.00316  0.59973  1.0000
  C   C1316     1.0  0.36870  0.99023  0.61715  1.0000
  H   H1057     1.0  0.34959  0.98878  0.64245  1.0000
  C   C1317     1.0  0.40072  0.07976  0.62839  1.0000
  C   C1318     1.0  0.48590  0.07256  0.50231  1.0000
  H   H1058     1.0  0.37617  0.17360  0.35225  1.0000
  C   C1319     1.0  0.43799  0.08997  0.62522  1.0000
  C   C1320     1.0  0.43236  0.07903  0.61219  1.0000
  C   C1321     1.0  0.41382  0.07398  0.61376  1.0000
  C   C1322     1.0  0.40649  0.09018  0.64184  1.0000
  H   H1059     1.0  0.42662  0.11860  0.49224  1.0000
  H   H1060     1.0  0.44215  0.07490  0.60060  1.0000
  H   H1061     1.0  0.48610  0.11718  0.44655  1.0000
  C   C1323     1.0  0.47517  0.00480  0.40796  1.0000
  H   H1062     1.0  0.35520  0.04426  0.61573  1.0000
  P   P45       1.0  0.45922  0.13654  0.47364  1.0000
  C   C1324     1.0  0.48411  0.13742  0.46721  1.0000
  H   H1063     1.0  0.47078  0.01908  0.41079  1.0000
  C   C1325     1.0  0.45432  0.12534  0.49708  1.0000
  C   C1326     1.0  0.35575  0.99781  0.63099  1.0000
  H   H1064     1.0  0.25946  0.09430  0.57935  1.0000
  P   P46       1.0  0.39169  0.98894  0.35820  1.0000
  C   C1327     1.0  0.25645  0.08400  0.59102  1.0000
  C   C1328     1.0  0.36891  0.02523  0.40629  1.0000
  Fe  Fe89      1.0  0.33189  0.04358  0.32743  1.0000
  C   C1329     1.0  0.38817  0.12232  0.31904  1.0000
  C   C1330     1.0  0.30996  0.99317  0.32441  1.0000
  C   C1331     1.0  0.46299  0.11645  0.52876  1.0000
  H   H1065     1.0  0.24756  0.14633  0.36890  1.0000
  C   C1332     1.0  0.37182  0.02186  0.60227  1.0000
  H   H1066     1.0  0.44569  0.04855  0.57492  1.0000
  C   C1333     1.0  0.44847  0.16046  0.47266  1.0000
  H   H1067     1.0  0.45061  0.03940  0.60781  1.0000
  C   C1334     1.0  0.24477  0.13179  0.36925  1.0000
  H   H1068     1.0  0.40430  0.99194  0.39554  1.0000
  H   H1069     1.0  0.36394  0.03449  0.41708  1.0000
  H   H1070     1.0  0.28291  0.08576  0.60213  1.0000
  C   C1335     1.0  0.44952  0.12400  0.45689  1.0000
  H   H1071     1.0  0.24646  0.04829  0.63415  1.0000
  H   H1072     1.0  0.24036  0.04444  0.48172  1.0000
  C   C1336     1.0  0.23919  0.07609  0.59373  1.0000
  C   C1337     1.0  0.38242  0.00243  0.37748  1.0000
  H   H1073     1.0  0.29697  0.14855  0.32395  1.0000
  H   H1074     1.0  0.47320  0.11568  0.53898  1.0000
  C   C1338     1.0  0.45558  0.17409  0.45914  1.0000
  C   C1339     1.0  0.43583  0.01424  0.60977  1.0000
  H   H1075     1.0  0.44561  0.03162  0.51260  1.0000
  C   C1340     1.0  0.43048  0.02483  0.57194  1.0000
  C   C1341     1.0  0.35071  0.01715  0.63032  1.0000
  C   C1342     1.0  0.35879  0.02920  0.61600  1.0000
  H   H1076     1.0  0.37824  0.03132  0.59136  1.0000
  C   C1343     1.0  0.42365  0.00836  0.58084  1.0000
  H   H1077     1.0  0.35934  0.01669  0.36285  1.0000
  C   C1344     1.0  0.35954  0.02626  0.39011  1.0000
  C   C1345     1.0  0.38298  0.16256  0.32524  1.0000
  C   C1346     1.0  0.44419  0.13329  0.43986  1.0000
  H   H1078     1.0  0.43442  0.09576  0.41840  1.0000
  H   H1079     1.0  0.41308  0.18825  0.49416  1.0000
  H   H1080     1.0  0.41938  0.10412  0.52440  1.0000
  H   H1081     1.0  0.46430  0.02046  0.53945  1.0000
  C   C1347     1.0  0.39684  0.02355  0.33798  1.0000
  S   S180      1.0  0.48678  0.02612  0.57001  1.0000
  C   C1348     1.0  0.31802  0.14867  0.34319  1.0000
  C   C1349     1.0  0.43275  0.10983  0.52051  1.0000
  C   C1350     1.0  0.43996  0.03600  0.58189  1.0000
  C   C1351     1.0  0.40287  0.13066  0.38052  1.0000
  C   C1352     1.0  0.39123  0.11949  0.39262  1.0000
  C   C1353     1.0  0.37450  0.11479  0.38679  1.0000
  C   C1354     1.0  0.36951  0.12102  0.36878  1.0000
  C   C1355     1.0  0.38075  0.13286  0.35680  1.0000
  C   C1356     1.0  0.39766  0.13733  0.36269  1.0000
  H   H1082     1.0  0.45655  0.99578  0.47447  1.0000
  C   C1357     1.0  0.46707  0.04862  0.65025  1.0000
  P   P47       1.0  0.37530  0.13972  0.33301  1.0000
  H   H1083     1.0  0.40216  0.02732  0.62762  1.0000
  C   C1358     1.0  0.42493  0.18429  0.48436  1.0000
  C   C1359     1.0  0.45320  0.03842  0.64508  1.0000
  H   H1084     1.0  0.42933  0.10381  0.65032  1.0000
  C   C1360     1.0  0.33724  0.14658  0.34549  1.0000
  C   C1361     1.0  0.42506  0.09533  0.64019  1.0000
  H   H1085     1.0  0.41512  0.13267  0.32087  1.0000
  C   C1362     1.0  0.46735  0.12440  0.51048  1.0000
  Fe  Fe90      1.0  0.48321  0.08608  0.60116  1.0000
  S   S181      1.0  0.35609  0.06168  0.32163  1.0000
  H   H1086     1.0  0.30787  0.15128  0.35504  1.0000
  C   C1363     1.0  0.46282  0.99083  0.41307  1.0000
  C   C1364     1.0  0.39166  0.00127  0.39391  1.0000
  C   C1365     1.0  0.38163  0.17650  0.33777  1.0000
  H   H1087     1.0  0.42877  0.00352  0.35029  1.0000
  H   H1088     1.0  0.41630  0.13347  0.38463  1.0000
  H   H1089     1.0  0.39557  0.11377  0.40617  1.0000
  H   H1090     1.0  0.36597  0.10527  0.39574  1.0000
  H   H1091     1.0  0.35729  0.11592  0.36405  1.0000
  H   H1092     1.0  0.40718  0.14544  0.35331  1.0000
  H   H1093     1.0  0.39247  0.01236  0.42053  1.0000
  H   H1094     1.0  0.44897  0.99447  0.41977  1.0000
  S   S182      1.0  0.28668  0.10288  0.63892  1.0000
  H   H1095     1.0  0.37465  0.03583  0.64945  1.0000
  H   H1096     1.0  0.34170  0.14814  0.35910  1.0000
  C   C1366     1.0  0.26626  0.06629  0.61935  1.0000
  H   H1097     1.0  0.44419  0.07911  0.44825  1.0000
  H   H1098     1.0  0.24209  0.09386  0.54106  1.0000
  H   H1099     1.0  0.42723  0.15560  0.49582  1.0000
  H   H1100     1.0  0.30166  0.00622  0.32703  1.0000
  H   H1101     1.0  0.48101  0.12950  0.50699  1.0000
  H   H1102     1.0  0.45301  0.20307  0.44784  1.0000
  C   C1367     1.0  0.45743  0.01955  0.64135  1.0000
  C   C1368     1.0  0.43304  0.16571  0.48525  1.0000
  C   C1369     1.0  0.23847  0.12836  0.61747  1.0000
  H   H1103     1.0  0.44260  0.10276  0.54790  1.0000
  C   C1370     1.0  0.38497  0.01275  0.40819  1.0000
  H   H1104     1.0  0.42865  0.02891  0.55730  1.0000
  H   H1105     1.0  0.27649  0.06312  0.62958  1.0000
  C   C1371     1.0  0.44274  0.03071  0.60069  1.0000
  C   C1372     1.0  0.23911  0.12397  0.53796  1.0000
  C   C1373     1.0  0.32954  0.99275  0.32178  1.0000
  C   C1374     1.0  0.26990  0.07908  0.60380  1.0000
  H   H1106     1.0  0.38669  0.99721  0.59197  1.0000
  P   P48       1.0  0.43931  0.00699  0.63402  1.0000
  H   H1107     1.0  0.45426  0.09680  0.47241  1.0000
  S   S183      1.0  0.48389  0.06806  0.46522  1.0000
  C   C1375     1.0  0.44371  0.09429  0.44607  1.0000
  H   H1108     1.0  0.26826  0.12468  0.60892  1.0000
  C   C1376     1.0  0.44577  0.10909  0.53376  1.0000
  H   H1109     1.0  0.42666  0.99801  0.53838  1.0000
  C   C1377     1.0  0.38721  0.19436  0.33163  1.0000
  C   C1378     1.0  0.43062  0.98935  0.35689  1.0000
  S   S184      1.0  0.32836  0.06361  0.64591  1.0000
  C   C1379     1.0  0.25737  0.12162  0.61999  1.0000
  H   H1110     1.0  0.38621  0.20506  0.34137  1.0000
  C   C1380     1.0  0.36638  0.01512  0.37564  1.0000
  C   C1381     1.0  0.44743  0.19264  0.45829  1.0000
  H   H1111     1.0  0.48128  0.00849  0.45165  1.0000
  H   H1112     1.0  0.34739  0.03630  0.38841  1.0000
  C   C1382     1.0  0.43856  0.12313  0.42614  1.0000
  H   H1113     1.0  0.46741  0.17037  0.44920  1.0000
  C   C1383     1.0  0.46036  0.02694  0.51013  1.0000
  C   C1384     1.0  0.41857  0.01293  0.64939  1.0000
  C   C1385     1.0  0.43696  0.11797  0.50228  1.0000
  H   H1114     1.0  0.39884  0.02867  0.35123  1.0000
  C   C1386     1.0  0.43830  0.10365  0.42925  1.0000
  H   H1115     1.0  0.42583  0.21214  0.47025  1.0000
  C   C1387     1.0  0.44939  0.10440  0.45979  1.0000
  C   C1388     1.0  0.26238  0.11115  0.63670  1.0000
  H   H1116     1.0  0.47952  0.99656  0.64033  1.0000
  H   H1117     1.0  0.43933  0.04550  0.64339  1.0000
  C   C1389     1.0  0.40254  0.02289  0.64242  1.0000
  H   H1118     1.0  0.40097  0.05030  0.32261  1.0000
  C   C1390     1.0  0.39817  0.03588  0.32171  1.0000
  C   C1391     1.0  0.39027  0.99883  0.31972  1.0000
  H   H1119     1.0  0.48812  0.98855  0.56049  1.0000
  H   H1120     1.0  0.48728  0.15806  0.48634  1.0000
  S   S185      1.0  0.48838  0.09760  0.41267  1.0000
  Fe  Fe91      1.0  0.35297  0.07870  0.65118  1.0000
  C   C1392     1.0  0.24799  0.10747  0.65085  1.0000
  S   S186      1.0  0.35461  0.06497  0.68029  1.0000
  C   C1393     1.0  0.40459  0.09001  0.72501  1.0000
  S   S187      1.0  0.30899  0.07408  0.68697  1.0000
  Fe  Fe92      1.0  0.33474  0.08903  0.68975  1.0000
  S   S188      1.0  0.33659  0.09923  0.71877  1.0000
  Fe  Fe93      1.0  0.32925  0.05080  0.67557  1.0000
  S   S189      1.0  0.33482  0.01962  0.68586  1.0000
  H   H1121     1.0  0.40143  0.36904  0.97889  1.0000
  Fe  Fe94      1.0  0.38775  0.17789  0.82004  1.0000
  S   S190      1.0  0.40868  0.17587  0.79428  1.0000
  S   S191      1.0  0.36759  0.20417  0.82709  1.0000
  Fe  Fe95      1.0  0.39080  0.13464  0.82795  1.0000
  S   S192      1.0  0.41125  0.13006  0.80296  1.0000
  S   S193      1.0  0.37897  0.11126  0.84783  1.0000
  Fe  Fe96      1.0  0.42548  0.15381  0.81200  1.0000
  S   S194      1.0  0.45695  0.14438  0.81096  1.0000
  Fe  Fe97      1.0  0.39306  0.15211  0.78719  1.0000
  S   S195      1.0  0.38692  0.15077  0.75668  1.0000
  S   S196      1.0  0.40566  0.15718  0.83821  1.0000
  S   S197      1.0  0.37157  0.15515  0.81163  1.0000
  C   C1394     1.0  0.40617  0.39390  0.88369  1.0000
  C   C1395     1.0  0.32970  0.05913  0.81033  1.0000
  C   C1396     1.0  0.47768  0.10571  0.66410  1.0000
  H   H1122     1.0  0.42590  0.07925  0.68235  1.0000
  H   H1123     1.0  0.43147  0.00172  0.67453  1.0000
  C   C1397     1.0  0.34380  0.43418  0.94345  1.0000
  Fe  Fe98      1.0  0.41270  0.00511  0.87500  1.0000
  S   S198      1.0  0.42011  0.02852  0.85252  1.0000
  C   C1398     1.0  0.40434  0.05440  0.79025  1.0000
  Fe  Fe99      1.0  0.33382  0.29936  0.88859  1.0000
  S   S199      1.0  0.30310  0.29997  0.89967  1.0000
  S   S200      1.0  0.35423  0.27515  0.87683  1.0000
  Fe  Fe100     1.0  0.33742  0.33800  0.90379  1.0000
  S   S201      1.0  0.30738  0.34060  0.91582  1.0000
  S   S202      1.0  0.35813  0.35791  0.91060  1.0000
  Fe  Fe101     1.0  0.31224  0.31009  0.92590  1.0000
  S   S203      1.0  0.30261  0.29854  0.95571  1.0000
  Fe  Fe102     1.0  0.30067  0.33078  0.88858  1.0000
  S   S204      1.0  0.27850  0.35070  0.87348  1.0000
  S   S205      1.0  0.34266  0.30791  0.91549  1.0000
  S   S206      1.0  0.33097  0.32970  0.87600  1.0000
  Fe  Fe103     1.0  0.37570  0.46534  0.89694  1.0000
  S   S207      1.0  0.39203  0.45893  0.92209  1.0000
  S   S208      1.0  0.35816  0.44545  0.88505  1.0000
  C   C1399     1.0  0.26711  0.20819  0.80847  1.0000
  C   C1400     1.0  0.32255  0.16963  0.80674  1.0000
  C   C1401     1.0  0.25557  0.35249  0.86550  1.0000
  C   C1402     1.0  0.48313  0.06715  0.91390  1.0000
  C   C1403     1.0  0.42533  0.41769  0.89073  1.0000
  H   H1124     1.0  0.39402  0.01701  0.97831  1.0000
  H   H1125     1.0  0.25286  0.32283  0.86698  1.0000
  H   H1126     1.0  0.45612  0.12838  0.77421  1.0000
  H   H1127     1.0  0.38558  0.03877  0.82666  1.0000
  C   C1404     1.0  0.35674  0.38242  0.90411  1.0000
  C   C1405     1.0  0.34618  0.39082  0.88971  1.0000
  C   C1406     1.0  0.34659  0.41018  0.88412  1.0000
  C   C1407     1.0  0.35754  0.42128  0.89283  1.0000
  C   C1408     1.0  0.36779  0.41293  0.90743  1.0000
  C   C1409     1.0  0.36734  0.39363  0.91308  1.0000
  H   H1128     1.0  0.33793  0.38235  0.88272  1.0000
  H   H1129     1.0  0.33853  0.41654  0.87285  1.0000
  H   H1130     1.0  0.37611  0.42138  0.91428  1.0000
  H   H1131     1.0  0.37531  0.38736  0.92441  1.0000
  C   C1410     1.0  0.32574  0.31836  0.97344  1.0000
  C   C1411     1.0  0.31184  0.30585  0.97550  1.0000
  C   C1412     1.0  0.34854  0.06314  0.80857  1.0000
  H   H1132     1.0  0.33115  0.32368  0.95955  1.0000
  H   H1133     1.0  0.38972  0.00862  0.84608  1.0000
  Fe  Fe104     1.0  0.41459  0.47466  0.90512  1.0000
  C   C1413     1.0  0.38686  0.02774  0.65473  1.0000
  C   C1414     1.0  0.41998  0.06472  0.78609  1.0000
  C   C1415     1.0  0.36395  0.22291  0.84222  1.0000
  C   C1416     1.0  0.34615  0.23317  0.84402  1.0000
  C   C1417     1.0  0.34275  0.24880  0.85484  1.0000
  C   C1418     1.0  0.35724  0.25477  0.86379  1.0000
  C   C1419     1.0  0.37500  0.24442  0.86207  1.0000
  C   C1420     1.0  0.37830  0.22855  0.85156  1.0000
  H   H1134     1.0  0.33489  0.22903  0.83692  1.0000
  H   H1135     1.0  0.32895  0.25630  0.85612  1.0000
  H   H1136     1.0  0.38635  0.24875  0.86891  1.0000
  H   H1137     1.0  0.39208  0.22097  0.85034  1.0000
  C   C1421     1.0  0.47656  0.15585  0.81549  1.0000
  C   C1422     1.0  0.46348  0.08230  0.69447  1.0000
  C   C1423     1.0  0.41337  0.37565  0.95057  1.0000
  H   H1138     1.0  0.46235  0.18368  0.81554  1.0000
  H   H1139     1.0  0.33586  0.07148  0.77230  1.0000
  C   C1424     1.0  0.39056  0.08830  0.84909  1.0000
  C   C1425     1.0  0.40503  0.08297  0.83564  1.0000
  C   C1426     1.0  0.41393  0.06461  0.83699  1.0000
  C   C1427     1.0  0.40853  0.05142  0.85177  1.0000
  C   C1428     1.0  0.39398  0.05665  0.86516  1.0000
  C   C1429     1.0  0.38499  0.07503  0.86377  1.0000
  H   H1140     1.0  0.40928  0.09295  0.82416  1.0000
  H   H1141     1.0  0.42500  0.06052  0.82648  1.0000
  H   H1142     1.0  0.38964  0.04655  0.87656  1.0000
  H   H1143     1.0  0.37374  0.07901  0.87419  1.0000
  H   H1144     1.0  0.29162  0.20209  0.75861  1.0000
  C   C1430     1.0  0.28486  0.20367  0.77260  1.0000
  C   C1431     1.0  0.35198  0.11242  0.72897  1.0000
  C   C1432     1.0  0.36513  0.12306  0.71822  1.0000
  C   C1433     1.0  0.37584  0.13452  0.72696  1.0000
  C   C1434     1.0  0.37383  0.13523  0.74656  1.0000
  C   C1435     1.0  0.36103  0.12423  0.75735  1.0000
  C   C1436     1.0  0.35014  0.11299  0.74859  1.0000
  H   H1145     1.0  0.36665  0.12289  0.70313  1.0000
  H   H1146     1.0  0.38553  0.14312  0.71842  1.0000
  H   H1147     1.0  0.35908  0.12484  0.77238  1.0000
  H   H1148     1.0  0.33984  0.10505  0.75704  1.0000
  C   C1437     1.0  0.32792  0.99913  0.67745  1.0000
  C   C1438     1.0  0.48637  0.06232  0.83714  1.0000
  H   H1149     1.0  0.33659  0.17589  0.84938  1.0000
  C   C1439     1.0  0.38407  0.08216  0.78119  1.0000
  C   C1440     1.0  0.39971  0.09242  0.77703  1.0000
  H   H1150     1.0  0.28656  0.38695  0.88768  1.0000
  C   C1441     1.0  0.23858  0.34134  0.91880  1.0000
  H   H1151     1.0  0.24919  0.29607  0.90842  1.0000
  C   C1442     1.0  0.39495  0.41152  0.95384  1.0000
  C   C1443     1.0  0.45087  0.11104  0.85574  1.0000
  H   H1152     1.0  0.38763  0.42538  0.95500  1.0000
  C   C1444     1.0  0.42213  0.12904  0.69370  1.0000
  C   C1445     1.0  0.24954  0.34131  0.93391  1.0000
  C   C1446     1.0  0.41652  0.07854  0.69512  1.0000
  H   H1153     1.0  0.36614  0.02118  0.73393  1.0000
  C   C1447     1.0  0.45261  0.38789  0.91513  1.0000
  C   C1448     1.0  0.39874  0.40637  0.86954  1.0000
  H   H1154     1.0  0.42326  0.43014  0.96277  1.0000
  H   H1155     1.0  0.43960  0.14848  0.70303  1.0000
  H   H1156     1.0  0.40093  0.38022  0.88655  1.0000
  H   H1157     1.0  0.38656  0.14208  0.66578  1.0000
  H   H1158     1.0  0.40463  0.09965  0.73561  1.0000
  H   H1159     1.0  0.38788  0.40228  0.86181  1.0000
  C   C1449     1.0  0.47557  0.17523  0.81678  1.0000
  C   C1450     1.0  0.41731  0.06508  0.93353  1.0000
  C   C1451     1.0  0.41551  0.04636  0.94031  1.0000
  C   C1452     1.0  0.42928  0.03232  0.93489  1.0000
  C   C1453     1.0  0.44457  0.03687  0.92224  1.0000
  C   C1454     1.0  0.44611  0.05553  0.91478  1.0000
  C   C1455     1.0  0.43272  0.06971  0.92105  1.0000
  H   H1160     1.0  0.47844  0.09739  0.90797  1.0000
  H   H1161     1.0  0.31266  0.13629  0.72658  1.0000
  H   H1162     1.0  0.42263  0.44403  0.87377  1.0000
  H   H1163     1.0  0.26025  0.20999  0.82238  1.0000
  C   C1456     1.0  0.46460  0.47219  0.90231  1.0000
  C   C1457     1.0  0.29458  0.39805  0.91213  1.0000
  S   S209      1.0  0.42730  0.00047  0.90125  1.0000
  H   H1164     1.0  0.43507  0.45827  0.94485  1.0000
  C   C1458     1.0  0.46191  0.03201  0.87792  1.0000
  C   C1459     1.0  0.41765  0.09059  0.70912  1.0000
  C   C1460     1.0  0.48277  0.39619  0.89977  1.0000
  C   C1461     1.0  0.42228  0.32301  0.90197  1.0000
  H   H1165     1.0  0.34142  0.43553  0.92872  1.0000
  H   H1166     1.0  0.40670  0.07597  0.93791  1.0000
  H   H1167     1.0  0.30608  0.01337  0.66158  1.0000
  H   H1168     1.0  0.42792  0.01782  0.94029  1.0000
  H   H1169     1.0  0.46517  0.46889  0.95087  1.0000
  H   H1170     1.0  0.26217  0.36890  0.90517  1.0000
  H   H1171     1.0  0.40125  0.05746  0.68582  1.0000
  H   H1172     1.0  0.34561  0.40150  0.98081  1.0000
  P   P49       1.0  0.43400  0.10839  0.70538  1.0000
  C   C1462     1.0  0.46791  0.01564  0.86917  1.0000
  C   C1463     1.0  0.25830  0.21595  0.79267  1.0000
  H   H1173     1.0  0.44716  0.03711  0.87863  1.0000
  C   C1464     1.0  0.46994  0.44755  0.97388  1.0000
  C   C1465     1.0  0.48629  0.08589  0.91546  1.0000
  P   P50       1.0  0.31678  0.18320  0.78521  1.0000
  C   C1466     1.0  0.31594  0.16818  0.76660  1.0000
  C   C1467     1.0  0.28480  0.19815  0.80638  1.0000
  C   C1468     1.0  0.32942  0.16816  0.75103  1.0000
  C   C1469     1.0  0.32805  0.15685  0.73660  1.0000
  C   C1470     1.0  0.33452  0.19946  0.77930  1.0000
  C   C1471     1.0  0.35352  0.19260  0.77716  1.0000
  C   C1472     1.0  0.36744  0.20501  0.77303  1.0000
  C   C1473     1.0  0.36256  0.22438  0.77141  1.0000
  C   C1474     1.0  0.34369  0.23136  0.77373  1.0000
  C   C1475     1.0  0.32969  0.21897  0.77767  1.0000
  H   H1174     1.0  0.32864  0.19390  0.81992  1.0000
  H   H1175     1.0  0.29129  0.19229  0.81883  1.0000
  H   H1176     1.0  0.34106  0.17672  0.74980  1.0000
  H   H1177     1.0  0.33863  0.15668  0.72475  1.0000
  H   H1178     1.0  0.35759  0.17763  0.77856  1.0000
  H   H1179     1.0  0.38204  0.19954  0.77126  1.0000
  H   H1180     1.0  0.37343  0.23393  0.76854  1.0000
  H   H1181     1.0  0.33992  0.24639  0.77265  1.0000
  H   H1182     1.0  0.31522  0.22473  0.77969  1.0000
  C   C1476     1.0  0.25646  0.35676  0.96900  1.0000
  P   P51       1.0  0.42833  0.38405  0.91362  1.0000
  C   C1477     1.0  0.46026  0.08035  0.88148  1.0000
  C   C1478     1.0  0.40581  0.40751  0.93725  1.0000
  H   H1183     1.0  0.43528  0.42256  0.89906  1.0000
  H   H1184     1.0  0.35284  0.25440  0.97760  1.0000
  C   C1479     1.0  0.29381  0.19583  0.78840  1.0000
  H   H1185     1.0  0.35282  0.01292  0.79107  1.0000
  C   C1480     1.0  0.45436  0.10027  0.69047  1.0000
  H   H1186     1.0  0.32423  0.06725  0.74213  1.0000
  H   H1187     1.0  0.47059  0.10561  0.80388  1.0000
  C   C1481     1.0  0.29982  0.14541  0.75295  1.0000
  H   H1188     1.0  0.43388  0.05801  0.78821  1.0000
  H   H1189     1.0  0.32662  0.12474  0.82744  1.0000
  H   H1190     1.0  0.40248  0.11392  0.68138  1.0000
  C   C1482     1.0  0.24911  0.30861  0.91563  1.0000
  H   H1191     1.0  0.37829  0.05663  0.71400  1.0000
  C   C1483     1.0  0.35711  0.04782  0.77111  1.0000
  H   H1192     1.0  0.33566  0.14124  0.85330  1.0000
  H   H1193     1.0  0.26034  0.21968  0.76249  1.0000
  C   C1484     1.0  0.35021  0.44835  0.97095  1.0000
  C   C1485     1.0  0.44096  0.11406  0.72752  1.0000
  C   C1486     1.0  0.43936  0.33074  0.89694  1.0000
  H   H1194     1.0  0.40645  0.03971  0.79531  1.0000
  H   H1195     1.0  0.37466  0.02618  0.68333  1.0000
  H   H1196     1.0  0.45690  0.05817  0.84220  1.0000
  S   S210      1.0  0.38517  0.99656  0.88933  1.0000
  C   C1487     1.0  0.33576  0.05784  0.74721  1.0000
  C   C1488     1.0  0.47424  0.09127  0.87241  1.0000
  C   C1489     1.0  0.43705  0.09971  0.86400  1.0000
  C   C1490     1.0  0.34232  0.06010  0.76440  1.0000
  C   C1491     1.0  0.41487  0.38946  0.93535  1.0000
  C   C1492     1.0  0.40723  0.12744  0.68292  1.0000
  H   H1197     1.0  0.28846  0.13646  0.75368  1.0000
  H   H1198     1.0  0.31220  0.08758  0.84431  1.0000
  C   C1493     1.0  0.41945  0.39953  0.89450  1.0000
  H   H1199     1.0  0.46386  0.06343  0.65215  1.0000
  H   H1200     1.0  0.46731  0.09637  0.72652  1.0000
  S   S211      1.0  0.39101  0.00228  0.94321  1.0000
  H   H1201     1.0  0.34563  0.09407  0.84195  1.0000
  C   C1494     1.0  0.35418  0.07575  0.82014  1.0000
  C   C1495     1.0  0.32203  0.15002  0.80905  1.0000
  C   C1496     1.0  0.38207  0.00955  0.83376  1.0000
  H   H1202     1.0  0.30554  0.40575  0.90437  1.0000
  P   P52       1.0  0.36569  0.05038  0.79337  1.0000
  H   H1203     1.0  0.45469  0.12569  0.67139  1.0000
  H   H1204     1.0  0.39665  0.17358  0.66875  1.0000
  C   C1497     1.0  0.48184  0.46310  0.90736  1.0000
  C   C1498     1.0  0.47509  0.09317  0.81271  1.0000
  C   C1499     1.0  0.46736  0.06652  0.83439  1.0000
  H   H1205     1.0  0.31871  0.14239  0.79782  1.0000
  C   C1500     1.0  0.34624  0.41512  0.97302  1.0000
  C   C1501     1.0  0.33151  0.14919  0.84053  1.0000
  H   H1206     1.0  0.43407  0.08431  0.91616  1.0000
  C   C1502     1.0  0.40250  0.06617  0.69700  1.0000
  H   H1207     1.0  0.39835  0.43431  0.85545  1.0000
  C   C1503     1.0  0.46174  0.08194  0.82215  1.0000
  C   C1504     1.0  0.36743  0.25999  0.80814  1.0000
  C   C1505     1.0  0.38630  0.25522  0.81093  1.0000
  C   C1506     1.0  0.39706  0.26869  0.81606  1.0000
  C   C1507     1.0  0.38885  0.28686  0.81870  1.0000
  C   C1508     1.0  0.36966  0.29153  0.81672  1.0000
  C   C1509     1.0  0.35918  0.27814  0.81075  1.0000
  P   P53       1.0  0.35907  0.31506  0.81990  1.0000
  C   C1510     1.0  0.36897  0.32575  0.83782  1.0000
  C   C1511     1.0  0.36243  0.32835  0.79744  1.0000
  C   C1512     1.0  0.34934  0.32855  0.78422  1.0000
  C   C1513     1.0  0.35214  0.33858  0.76663  1.0000
  C   C1514     1.0  0.36815  0.34824  0.76206  1.0000
  C   C1515     1.0  0.38144  0.34776  0.77503  1.0000
  C   C1516     1.0  0.37866  0.33776  0.79263  1.0000
  C   C1517     1.0  0.36728  0.34541  0.83790  1.0000
  C   C1518     1.0  0.37338  0.35375  0.85267  1.0000
  C   C1519     1.0  0.38102  0.34255  0.86752  1.0000
  C   C1520     1.0  0.38245  0.32299  0.86770  1.0000
  C   C1521     1.0  0.37641  0.31461  0.85295  1.0000
  C   C1522     1.0  0.33449  0.31525  0.82806  1.0000
  C   C1523     1.0  0.32221  0.33146  0.82465  1.0000
  C   C1524     1.0  0.30342  0.33195  0.83203  1.0000
  C   C1525     1.0  0.29684  0.31637  0.84296  1.0000
  C   C1526     1.0  0.30905  0.30036  0.84672  1.0000
  C   C1527     1.0  0.32784  0.29988  0.83945  1.0000
  H   H1208     1.0  0.35908  0.24936  0.80456  1.0000
  H   H1209     1.0  0.39245  0.24095  0.80950  1.0000
  H   H1210     1.0  0.41168  0.26492  0.81828  1.0000
  H   H1211     1.0  0.39742  0.29714  0.82258  1.0000
  H   H1212     1.0  0.34453  0.28153  0.80849  1.0000
  H   H1213     1.0  0.33700  0.32091  0.78747  1.0000
  H   H1214     1.0  0.34192  0.33880  0.75652  1.0000
  H   H1215     1.0  0.37033  0.35598  0.74842  1.0000
  H   H1216     1.0  0.39395  0.35509  0.77141  1.0000
  H   H1217     1.0  0.38921  0.33728  0.80243  1.0000
  H   H1218     1.0  0.36070  0.35427  0.82689  1.0000
  H   H1219     1.0  0.37158  0.36888  0.85298  1.0000
  H   H1220     1.0  0.38519  0.34901  0.87921  1.0000
  H   H1221     1.0  0.38753  0.31425  0.87962  1.0000
  H   H1222     1.0  0.37693  0.29945  0.85375  1.0000
  H   H1223     1.0  0.32721  0.34387  0.81674  1.0000
  H   H1224     1.0  0.29402  0.34461  0.82987  1.0000
  H   H1225     1.0  0.28241  0.31697  0.84900  1.0000
  H   H1226     1.0  0.30414  0.28853  0.85577  1.0000
  H   H1227     1.0  0.33729  0.28773  0.84315  1.0000
  C   C1528     1.0  0.28390  0.38749  0.90273  1.0000
  C   C1529     1.0  0.40381  0.16119  0.67564  1.0000
  C   C1530     1.0  0.38698  0.02258  0.67394  1.0000
  H   H1228     1.0  0.26889  0.29591  0.93481  1.0000
  H   H1229     1.0  0.24460  0.22374  0.79434  1.0000
  C   C1531     1.0  0.36152  0.01209  0.80257  1.0000
  H   H1230     1.0  0.47657  0.10526  0.75613  1.0000
  C   C1532     1.0  0.46155  0.11192  0.67513  1.0000
  H   H1231     1.0  0.42264  0.10303  0.86070  1.0000
  S   S212      1.0  0.33472  0.10418  0.66060  1.0000
  H   H1232     1.0  0.32521  0.04887  0.80210  1.0000
  H   H1233     1.0  0.40329  0.00968  0.69599  1.0000
  H   H1234     1.0  0.48235  0.44895  0.91416  1.0000
  C   C1533     1.0  0.46299  0.43165  0.98420  1.0000
  H   H1235     1.0  0.33914  0.04214  0.72291  1.0000
  H   H1236     1.0  0.45097  0.32248  0.88999  1.0000
  C   C1534     1.0  0.34424  0.04373  0.73631  1.0000
  C   C1535     1.0  0.46000  0.45685  0.95934  1.0000
  C   C1536     1.0  0.40459  0.42446  0.86599  1.0000
  H   H1237     1.0  0.34769  0.46346  0.94378  1.0000
  H   H1238     1.0  0.40344  0.04261  0.94974  1.0000
  C   C1537     1.0  0.45799  0.10619  0.73425  1.0000
  C   C1538     1.0  0.42632  0.35991  0.90962  1.0000
  C   C1539     1.0  0.32650  0.13988  0.82590  1.0000
  C   C1540     1.0  0.24660  0.37045  0.86068  1.0000
  C   C1541     1.0  0.32762  0.17886  0.82152  1.0000
  Fe  Fe105     1.0  0.40062  0.98979  0.91550  1.0000
  C   C1542     1.0  0.46437  0.39195  0.89870  1.0000
  H   H1239     1.0  0.26925  0.32424  0.95091  1.0000
  C   C1543     1.0  0.46950  0.10668  0.85972  1.0000
  H   H1240     1.0  0.39711  0.36021  0.92077  1.0000
  H   H1241     1.0  0.25143  0.09947  0.66378  1.0000
  S   S213      1.0  0.39894  0.47936  0.87925  1.0000
  C   C1544     1.0  0.26042  0.32476  0.93958  1.0000
  H   H1242     1.0  0.28596  0.34982  0.96036  1.0000
  C   C1545     1.0  0.41875  0.16290  0.68614  1.0000
  H   H1243     1.0  0.40691  0.41847  0.92587  1.0000
  C   C1546     1.0  0.33202  0.16869  0.83834  1.0000
  S   S214      1.0  0.44411  0.46013  0.90665  1.0000
  C   C1547     1.0  0.34107  0.08457  0.83289  1.0000
  C   C1548     1.0  0.38623  0.06315  0.78806  1.0000
  C   C1549     1.0  0.31337  0.14538  0.73761  1.0000
  C   C1550     1.0  0.39064  0.07755  0.72688  1.0000
  C   C1551     1.0  0.30099  0.15687  0.76731  1.0000
  H   H1244     1.0  0.29031  0.15682  0.77906  1.0000
  H   H1245     1.0  0.30206  0.06497  0.82431  1.0000
  H   H1246     1.0  0.38017  0.07763  0.73883  1.0000
  C   C1552     1.0  0.48674  0.00850  0.86857  1.0000
  C   C1553     1.0  0.32227  0.08084  0.83427  1.0000
  C   C1554     1.0  0.26717  0.21367  0.77475  1.0000
  H   H1247     1.0  0.38527  0.40093  0.98177  1.0000
  C   C1555     1.0  0.38955  0.06572  0.71285  1.0000
  H   H1248     1.0  0.27500  0.38872  0.95662  1.0000
  C   C1556     1.0  0.34340  0.41674  0.95394  1.0000
  C   C1557     1.0  0.31658  0.06812  0.82300  1.0000
  C   C1558     1.0  0.35947  0.03195  0.74253  1.0000
  C   C1559     1.0  0.45189  0.12422  0.76129  1.0000
  H   H1249     1.0  0.45104  0.38458  0.94550  1.0000
  H   H1250     1.0  0.42616  0.14230  0.76254  1.0000
  H   H1251     1.0  0.37022  0.08910  0.77926  1.0000
  C   C1560     1.0  0.39395  0.00193  0.98107  1.0000
  C   C1561     1.0  0.37981  0.02658  0.82263  1.0000
  H   H1252     1.0  0.39787  0.10720  0.77203  1.0000
  H   H1253     1.0  0.45917  0.39232  0.88505  1.0000
  H   H1254     1.0  0.42030  0.36164  0.94951  1.0000
  H   H1255     1.0  0.43085  0.07541  0.88248  1.0000
  C   C1562     1.0  0.24633  0.33674  0.86327  1.0000
  C   C1563     1.0  0.34729  0.44994  0.95194  1.0000
  C   C1564     1.0  0.43496  0.13205  0.75474  1.0000
  C   C1565     1.0  0.36606  0.03414  0.75975  1.0000
  C   C1566     1.0  0.42945  0.12690  0.73805  1.0000
  C   C1567     1.0  0.37426  0.99376  0.82926  1.0000
  H   H1256     1.0  0.37803  0.02507  0.76431  1.0000
  C   C1568     1.0  0.40915  0.35208  0.91439  1.0000
  H   H1257     1.0  0.41629  0.13319  0.73321  1.0000
  C   C1569     1.0  0.27528  0.35108  0.97207  1.0000
  C   C1570     1.0  0.36391  0.99505  0.81371  1.0000
  C   C1571     1.0  0.47823  0.39166  0.93362  1.0000
  H   H1258     1.0  0.25357  0.38277  0.86228  1.0000
  H   H1259     1.0  0.36875  0.07853  0.81971  1.0000
  H   H1260     1.0  0.34087  0.40447  0.94724  1.0000
  C   C1572     1.0  0.26703  0.37699  0.93229  1.0000
  H   H1261     1.0  0.39377  0.32791  0.91431  1.0000
  C   C1573     1.0  0.40718  0.33370  0.91067  1.0000
  C   C1574     1.0  0.29120  0.39853  0.93155  1.0000
  C   C1575     1.0  0.44137  0.34916  0.90066  1.0000
  H   H1262     1.0  0.45504  0.02572  0.91822  1.0000
  H   H1263     1.0  0.45460  0.35497  0.89639  1.0000
  C   C1576     1.0  0.44175  0.08421  0.87657  1.0000
  H   H1264     1.0  0.44714  0.12308  0.84605  1.0000
  H   H1265     1.0  0.31840  0.25762  0.97631  1.0000
  C   C1577     1.0  0.46337  0.11122  0.75109  1.0000
  C   C1578     1.0  0.41892  0.00863  0.66883  1.0000
  H   H1266     1.0  0.42065  0.30879  0.89899  1.0000
  C   C1579     1.0  0.31328  0.99992  0.66595  1.0000
  C   C1580     1.0  0.40307  0.01320  0.68103  1.0000
  C   C1581     1.0  0.27738  0.38817  0.94160  1.0000
  C   C1582     1.0  0.41805  0.43002  0.87644  1.0000
  H   H1267     1.0  0.44696  0.08566  0.82054  1.0000
  H   H1268     1.0  0.42972  0.09181  0.77659  1.0000
  P   P54       1.0  0.25000  0.36260  0.94529  1.0000
  C   C1583     1.0  0.40274  0.37980  0.96727  1.0000
  C   C1584     1.0  0.41766  0.08373  0.77956  1.0000
  C   C1585     1.0  0.26019  0.30851  0.93047  1.0000
  H   H1269     1.0  0.45803  0.07302  0.70610  1.0000
  C   C1586     1.0  0.47469  0.04125  0.88631  1.0000
  C   C1587     1.0  0.43637  0.43477  0.96576  1.0000
  C   C1588     1.0  0.42796  0.14689  0.69506  1.0000
  C   C1589     1.0  0.39811  0.14346  0.67398  1.0000
  C   C1590     1.0  0.47982  0.07628  0.68361  1.0000
  C   C1591     1.0  0.27011  0.37711  0.91274  1.0000
  C   C1592     1.0  0.44307  0.45068  0.95562  1.0000
  C   C1593     1.0  0.45975  0.38760  0.93261  1.0000
  H   H1270     1.0  0.45778  0.00821  0.86336  1.0000
  H   H1271     1.0  0.47719  0.00233  0.93483  1.0000
  P   P55       1.0  0.46623  0.06139  0.89897  1.0000
  C   C1594     1.0  0.36986  0.02790  0.80668  1.0000
  C   C1595     1.0  0.34971  0.43097  0.98169  1.0000
  C   C1596     1.0  0.44633  0.42519  0.98002  1.0000
  H   H1272     1.0  0.42319  0.17665  0.68741  1.0000
  Fe  Fe106     1.0  0.30981  0.08811  0.65723  1.0000
  C   C1597     1.0  0.48283  0.99253  0.92477  1.0000
  H   H1273     1.0  0.29949  0.40673  0.93882  1.0000
  H   H1274     1.0  0.35264  0.46079  0.97734  1.0000
  H   H1275     1.0  0.48687  0.06246  0.68683  1.0000
  H   H1276     1.0  0.48022  0.11530  0.85294  1.0000
  C   C1598     1.0  0.39329  0.99094  0.96607  1.0000
  C   C1599     1.0  0.48688  0.08797  0.66837  1.0000
  C   C1600     1.0  0.39355  0.39773  0.96889  1.0000
  H   H1277     1.0  0.48354  0.39166  0.94716  1.0000
  H   H1278     1.0  0.43184  0.48590  0.97572  1.0000
  H   H1279     1.0  0.40744  0.48521  0.95394  1.0000
  C   C1601     1.0  0.48520  0.04000  0.65201  1.0000
  H   H1280     1.0  0.39652  0.09470  0.65315  1.0000
  H   H1281     1.0  0.48282  0.11452  0.65191  1.0000
  C   C1602     1.0  0.24299  0.35798  0.98453  1.0000
  S   S215      1.0  0.34534  0.90167  0.31419  1.0000
  C   C1603     1.0  0.26687  0.61083  0.04806  1.0000
  S   S216      1.0  0.35169  0.87098  0.27335  1.0000
  Fe  Fe107     1.0  0.38949  0.81046  0.18288  1.0000
  S   S217      1.0  0.37283  0.81004  0.15785  1.0000
  S   S218      1.0  0.37420  0.81057  0.21266  1.0000
  Fe  Fe108     1.0  0.42750  0.80641  0.15932  1.0000
  S   S219      1.0  0.41306  0.80547  0.13320  1.0000
  S   S220      1.0  0.45930  0.80695  0.15171  1.0000
  Fe  Fe109     1.0  0.39358  0.82949  0.14317  1.0000
  S   S221      1.0  0.38628  0.85325  0.12084  1.0000
  Fe  Fe110     1.0  0.39345  0.78582  0.14934  1.0000
  S   S222      1.0  0.38832  0.76076  0.13277  1.0000
  S   S223      1.0  0.40871  0.83158  0.16854  1.0000
  S   S224      1.0  0.40933  0.78503  0.17512  1.0000
  Fe  Fe111     1.0  0.41168  0.95848  0.09207  1.0000
  S   S225      1.0  0.42704  0.95680  0.06345  1.0000
  S   S226      1.0  0.41246  0.93597  0.11689  1.0000
  P   P56       1.0  0.34629  0.92675  0.07796  1.0000
  C   C1604     1.0  0.39703  0.91579  0.04789  1.0000
  C   C1605     1.0  0.45588  0.94186  0.00266  1.0000
  C   C1606     1.0  0.31670  0.77278  0.14737  1.0000
  C   C1607     1.0  0.28441  0.61433  0.16579  1.0000
  Fe  Fe112     1.0  0.33748  0.67034  0.09847  1.0000
  S   S227      1.0  0.31090  0.67051  0.08375  1.0000
  S   S228      1.0  0.33992  0.69290  0.11901  1.0000
  Fe  Fe113     1.0  0.35442  0.63328  0.08189  1.0000
  S   S229      1.0  0.32952  0.63130  0.06624  1.0000
  S   S230      1.0  0.38007  0.61265  0.07573  1.0000
  Fe  Fe114     1.0  0.33019  0.66225  0.05846  1.0000
  S   S231      1.0  0.33228  0.67543  0.02814  1.0000
  Fe  Fe115     1.0  0.31198  0.63929  0.09251  1.0000
  S   S232      1.0  0.29021  0.61878  0.10425  1.0000
  S   S233      1.0  0.35646  0.66400  0.07263  1.0000
  S   S234      1.0  0.33721  0.63943  0.10886  1.0000
  C   C1608     1.0  0.45731  0.91732  0.09579  1.0000
  H   H1282     1.0  0.26990  0.90360  0.27312  1.0000
  C   C1609     1.0  0.30521  0.91054  0.04945  1.0000
  Fe  Fe116     1.0  0.40193  0.50146  0.08131  1.0000
  S   S235      1.0  0.38341  0.52404  0.09627  1.0000
  S   S236      1.0  0.43100  0.50211  0.06638  1.0000
  H   H1283     1.0  0.43201  0.91246  0.17928  1.0000
  H   H1284     1.0  0.27717  0.90424  0.05990  1.0000
  C   C1610     1.0  0.47780  0.84330  0.11247  1.0000
  C   C1611     1.0  0.30881  0.76614  0.13264  1.0000
  H   H1285     1.0  0.33851  0.83701  0.03860  1.0000
  C   C1612     1.0  0.26554  0.61786  0.10935  1.0000
  H   H1286     1.0  0.41423  0.97042  0.13953  1.0000
  H   H1287     1.0  0.38461  0.59245  0.03356  1.0000
  P   P57       1.0  0.27122  0.60504  0.99154  1.0000
  C   C1613     1.0  0.32158  0.67035  0.00820  1.0000
  C   C1614     1.0  0.30293  0.66607  0.00939  1.0000
  C   C1615     1.0  0.43646  0.89836  0.17553  1.0000
  H   H1288     1.0  0.29480  0.66507  0.02288  1.0000
  C   C1616     1.0  0.26799  0.87747  0.24238  1.0000
  C   C1617     1.0  0.38058  0.58802  0.08132  1.0000
  C   C1618     1.0  0.36755  0.58009  0.09479  1.0000
  C   C1619     1.0  0.36879  0.56049  0.09934  1.0000
  C   C1620     1.0  0.38280  0.54861  0.09023  1.0000
  C   C1621     1.0  0.39578  0.55651  0.07669  1.0000
  C   C1622     1.0  0.39474  0.57615  0.07236  1.0000
  H   H1289     1.0  0.35671  0.58908  0.10191  1.0000
  H   H1290     1.0  0.35880  0.55452  0.10997  1.0000
  H   H1291     1.0  0.40674  0.54753  0.06972  1.0000
  H   H1292     1.0  0.40501  0.58218  0.06209  1.0000
  C   C1623     1.0  0.26978  0.56441  0.08833  1.0000
  H   H1293     1.0  0.31309  0.93891  0.27929  1.0000
  H   H1294     1.0  0.28485  0.61493  0.23419  1.0000
  P   P58       1.0  0.47149  0.87372  0.13454  1.0000
  H   H1295     1.0  0.32801  0.82221  0.22091  1.0000
  C   C1624     1.0  0.37477  0.74177  0.12936  1.0000
  C   C1625     1.0  0.35802  0.73824  0.14029  1.0000
  C   C1626     1.0  0.34772  0.72332  0.13690  1.0000
  C   C1627     1.0  0.35390  0.71148  0.12257  1.0000
  C   C1628     1.0  0.37078  0.71485  0.11173  1.0000
  C   C1629     1.0  0.38107  0.72983  0.11513  1.0000
  H   H1296     1.0  0.35294  0.74701  0.15140  1.0000
  H   H1297     1.0  0.33476  0.72096  0.14545  1.0000
  H   H1298     1.0  0.37590  0.70595  0.10070  1.0000
  H   H1299     1.0  0.39404  0.73218  0.10662  1.0000
  C   C1630     1.0  0.39508  0.87563  0.11966  1.0000
  C   C1631     1.0  0.40104  0.88247  0.13538  1.0000
  C   C1632     1.0  0.40675  0.90080  0.13417  1.0000
  C   C1633     1.0  0.40661  0.91248  0.11729  1.0000
  C   C1634     1.0  0.40120  0.90544  0.10147  1.0000
  C   C1635     1.0  0.39532  0.88718  0.10268  1.0000
  H   H1300     1.0  0.40089  0.87381  0.14857  1.0000
  H   H1301     1.0  0.41083  0.90614  0.14651  1.0000
  H   H1302     1.0  0.40124  0.91423  0.08842  1.0000
  H   H1303     1.0  0.39078  0.88204  0.09046  1.0000
  C   C1636     1.0  0.47910  0.80543  0.16493  1.0000
  H   H1304     1.0  0.46436  0.79898  0.19197  1.0000
  C   C1637     1.0  0.35836  0.85371  0.25697  1.0000
  C   C1638     1.0  0.35523  0.83475  0.26107  1.0000
  C   C1639     1.0  0.36040  0.82182  0.24744  1.0000
  C   C1640     1.0  0.36895  0.82751  0.22955  1.0000
  C   C1641     1.0  0.37232  0.84642  0.22552  1.0000
  C   C1642     1.0  0.36698  0.85939  0.23910  1.0000
  H   H1305     1.0  0.34886  0.83001  0.27475  1.0000
  H   H1306     1.0  0.35772  0.80726  0.25080  1.0000
  H   H1307     1.0  0.37881  0.85111  0.21187  1.0000
  H   H1308     1.0  0.36954  0.87397  0.23571  1.0000
  H   H1309     1.0  0.33290  0.87769  0.19379  1.0000
  P   P59       1.0  0.34349  0.78284  0.08650  1.0000
  C   C1643     1.0  0.36784  0.78690  0.08675  1.0000
  C   C1644     1.0  0.33315  0.77888  0.11041  1.0000
  C   C1645     1.0  0.34103  0.78542  0.12533  1.0000
  C   C1646     1.0  0.33274  0.78248  0.14369  1.0000
  C   C1647     1.0  0.38212  0.77238  0.08387  1.0000
  C   C1648     1.0  0.40091  0.77554  0.08452  1.0000
  C   C1649     1.0  0.40555  0.79320  0.08805  1.0000
  C   C1650     1.0  0.39142  0.80776  0.09088  1.0000
  C   C1651     1.0  0.37264  0.80463  0.09026  1.0000
  C   C1652     1.0  0.34158  0.76264  0.07389  1.0000
  C   C1653     1.0  0.34252  0.74458  0.08337  1.0000
  C   C1654     1.0  0.34109  0.72883  0.07383  1.0000
  C   C1655     1.0  0.33885  0.73096  0.05468  1.0000
  C   C1656     1.0  0.33805  0.74888  0.04506  1.0000
  C   C1657     1.0  0.33943  0.76468  0.05459  1.0000
  H   H1310     1.0  0.35491  0.80898  0.05451  1.0000
  H   H1311     1.0  0.35374  0.79251  0.12303  1.0000
  H   H1312     1.0  0.33908  0.78735  0.15512  1.0000
  H   H1313     1.0  0.37881  0.75847  0.08160  1.0000
  H   H1314     1.0  0.41179  0.76411  0.08286  1.0000
  H   H1315     1.0  0.42005  0.79549  0.08907  1.0000
  H   H1316     1.0  0.39495  0.82134  0.09410  1.0000
  H   H1317     1.0  0.36185  0.81595  0.09299  1.0000
  H   H1318     1.0  0.34433  0.74267  0.09818  1.0000
  H   H1319     1.0  0.34174  0.71492  0.08132  1.0000
  H   H1320     1.0  0.33775  0.71869  0.04731  1.0000
  H   H1321     1.0  0.33636  0.75046  0.03017  1.0000
  H   H1322     1.0  0.33883  0.77838  0.04683  1.0000
  C   C1658     1.0  0.28988  0.92296  0.27654  1.0000
  C   C1659     1.0  0.31282  0.80944  0.08109  1.0000
  H   H1323     1.0  0.31879  0.85056  0.27206  1.0000
  H   H1324     1.0  0.38908  0.50001  0.01940  1.0000
  C   C1660     1.0  0.31398  0.87590  0.21903  1.0000
  C   C1661     1.0  0.44749  0.86199  0.16548  1.0000
  H   H1325     1.0  0.31058  0.76403  0.10301  1.0000
  C   C1662     1.0  0.43965  0.84102  0.10958  1.0000
  C   C1663     1.0  0.44288  0.55888  0.02724  1.0000
  C   C1664     1.0  0.33580  0.58001  0.05249  1.0000
  C   C1665     1.0  0.32583  0.58195  0.03664  1.0000
  C   C1666     1.0  0.30976  0.57249  0.03671  1.0000
  C   C1667     1.0  0.30347  0.56134  0.05276  1.0000
  C   C1668     1.0  0.31317  0.55977  0.06890  1.0000
  C   C1669     1.0  0.32967  0.56872  0.06840  1.0000
  P   P60       1.0  0.30537  0.54525  0.08962  1.0000
  C   C1670     1.0  0.33453  0.51668  0.09084  1.0000
  C   C1671     1.0  0.31232  0.55370  0.11043  1.0000
  C   C1672     1.0  0.31213  0.57306  0.11169  1.0000
  C   C1673     1.0  0.31707  0.57982  0.12788  1.0000
  C   C1674     1.0  0.32206  0.56727  0.14304  1.0000
  C   C1675     1.0  0.32187  0.54794  0.14209  1.0000
  C   C1676     1.0  0.31684  0.54116  0.12592  1.0000
  H   H1326     1.0  0.34828  0.58729  0.05258  1.0000
  H   H1327     1.0  0.33053  0.59083  0.02437  1.0000
  H   H1328     1.0  0.30213  0.57402  0.02438  1.0000
  H   H1329     1.0  0.29099  0.55412  0.05266  1.0000
  H   H1330     1.0  0.33775  0.56713  0.08038  1.0000
  H   H1331     1.0  0.34257  0.52675  0.09596  1.0000
  H   H1332     1.0  0.27828  0.51938  0.10759  1.0000
  H   H1333     1.0  0.30825  0.58299  0.10010  1.0000
  H   H1334     1.0  0.31707  0.59484  0.12852  1.0000
  H   H1335     1.0  0.32615  0.57252  0.15546  1.0000
  H   H1336     1.0  0.32577  0.53819  0.15384  1.0000
  H   H1337     1.0  0.31659  0.52616  0.12555  1.0000
  C   C1677     1.0  0.31118  0.84457  0.23432  1.0000
  C   C1678     1.0  0.32381  0.83717  0.22026  1.0000
  C   C1679     1.0  0.25761  0.86211  0.24147  1.0000
  C   C1680     1.0  0.33437  0.98345  0.08129  1.0000
  C   C1681     1.0  0.33168  0.84911  0.20571  1.0000
  H   H1338     1.0  0.24242  0.57982  0.08863  1.0000
  C   C1682     1.0  0.39675  0.89709  0.04426  1.0000
  C   C1683     1.0  0.38114  0.88738  0.05084  1.0000
  C   C1684     1.0  0.36573  0.89646  0.06086  1.0000
  C   C1685     1.0  0.36574  0.91540  0.06414  1.0000
  C   C1686     1.0  0.35053  0.92002  0.10211  1.0000
  C   C1687     1.0  0.34640  0.90222  0.11047  1.0000
  C   C1688     1.0  0.35038  0.89656  0.12892  1.0000
  C   C1689     1.0  0.35858  0.90859  0.13910  1.0000
  C   C1690     1.0  0.36311  0.92615  0.13074  1.0000
  C   C1691     1.0  0.35941  0.93173  0.11221  1.0000
  H   H1339     1.0  0.40871  0.89010  0.03653  1.0000
  H   H1340     1.0  0.38111  0.87275  0.04841  1.0000
  H   H1341     1.0  0.35394  0.88863  0.06624  1.0000
  H   H1342     1.0  0.34064  0.89246  0.10260  1.0000
  H   H1343     1.0  0.34787  0.88253  0.13505  1.0000
  H   H1344     1.0  0.36230  0.90393  0.15314  1.0000
  H   H1345     1.0  0.37049  0.93503  0.13823  1.0000
  H   H1346     1.0  0.36413  0.94486  0.10567  1.0000
  C   C1692     1.0  0.39313  0.49647  0.00528  1.0000
  C   C1693     1.0  0.27058  0.53240  0.10272  1.0000
  H   H1347     1.0  0.25728  0.64598  0.09802  1.0000
  C   C1694     1.0  0.37711  0.69037  0.16001  1.0000
  C   C1695     1.0  0.38753  0.68230  0.14492  1.0000
  C   C1696     1.0  0.40647  0.68525  0.14085  1.0000
  C   C1697     1.0  0.41492  0.69655  0.15167  1.0000
  C   C1698     1.0  0.40432  0.70541  0.16633  1.0000
  C   C1699     1.0  0.38550  0.70170  0.17083  1.0000
  P   P61       1.0  0.41544  0.71982  0.18036  1.0000
  C   C1700     1.0  0.42780  0.70373  0.19674  1.0000
  C   C1701     1.0  0.43106  0.73492  0.16629  1.0000
  C   C1702     1.0  0.44399  0.74380  0.17492  1.0000
  C   C1703     1.0  0.45536  0.75643  0.16433  1.0000
  C   C1704     1.0  0.45371  0.76047  0.14515  1.0000
  C   C1705     1.0  0.44062  0.75200  0.13656  1.0000
  C   C1706     1.0  0.42933  0.73929  0.14707  1.0000
  C   C1707     1.0  0.41787  0.69534  0.21267  1.0000
  C   C1708     1.0  0.42730  0.68262  0.22532  1.0000
  C   C1709     1.0  0.44663  0.67802  0.22201  1.0000
  C   C1710     1.0  0.45653  0.68603  0.20596  1.0000
  C   C1711     1.0  0.44714  0.69875  0.19328  1.0000
  C   C1712     1.0  0.39856  0.73582  0.19247  1.0000
  C   C1713     1.0  0.38323  0.74472  0.18343  1.0000
  C   C1714     1.0  0.37050  0.75774  0.19235  1.0000
  C   C1715     1.0  0.37317  0.76221  0.21027  1.0000
  C   C1716     1.0  0.38871  0.75385  0.21916  1.0000
  C   C1717     1.0  0.40144  0.74076  0.21028  1.0000
  H   H1348     1.0  0.36238  0.68813  0.16301  1.0000
  H   H1349     1.0  0.38080  0.67394  0.13627  1.0000
  H   H1350     1.0  0.41453  0.67890  0.12919  1.0000
  H   H1351     1.0  0.42965  0.69858  0.14842  1.0000
  H   H1352     1.0  0.37718  0.70764  0.18255  1.0000
  H   H1353     1.0  0.44497  0.74133  0.18988  1.0000
  C   C1718     1.0  0.24407  0.89791  0.22691  1.0000
  H   H1354     1.0  0.46216  0.77064  0.13709  1.0000
  H   H1355     1.0  0.43872  0.75574  0.12188  1.0000
  H   H1356     1.0  0.41880  0.73348  0.14025  1.0000
  H   H1357     1.0  0.40285  0.69863  0.21529  1.0000
  H   H1358     1.0  0.41960  0.67628  0.23767  1.0000
  H   H1359     1.0  0.45393  0.66816  0.23181  1.0000
  H   H1360     1.0  0.28465  0.58263  0.25008  1.0000
  H   H1361     1.0  0.45497  0.70457  0.18077  1.0000
  H   H1362     1.0  0.38135  0.74185  0.16934  1.0000
  H   H1363     1.0  0.35886  0.76475  0.18516  1.0000
  H   H1364     1.0  0.36352  0.77260  0.21704  1.0000
  H   H1365     1.0  0.39110  0.75794  0.23275  1.0000
  H   H1366     1.0  0.41369  0.73488  0.21715  1.0000
  H   H1367     1.0  0.26998  0.62309  0.20466  1.0000
  C   C1719     1.0  0.34370  0.95190  0.07219  1.0000
  Fe  Fe117     1.0  0.40191  0.97399  0.05232  1.0000
  C   C1720     1.0  0.26128  0.89534  0.23474  1.0000
  C   C1721     1.0  0.28888  0.85809  0.27337  1.0000
  C   C1722     1.0  0.30535  0.84864  0.27984  1.0000
  P   P62       1.0  0.29029  0.87385  0.25221  1.0000
  C   C1723     1.0  0.29719  0.89540  0.25916  1.0000
  C   C1724     1.0  0.28421  0.90710  0.26966  1.0000
  H   H1368     1.0  0.23888  0.91177  0.22117  1.0000
  C   C1725     1.0  0.25246  0.63302  0.10490  1.0000
  C   C1726     1.0  0.32159  0.91539  0.26301  1.0000
  C   C1727     1.0  0.31594  0.89963  0.25597  1.0000
  C   C1728     1.0  0.30627  0.50859  0.07914  1.0000
  C   C1729     1.0  0.25633  0.63269  0.15603  1.0000
  H   H1369     1.0  0.33627  0.91803  0.26121  1.0000
  C   C1730     1.0  0.47972  0.96359  0.00260  1.0000
  C   C1731     1.0  0.26312  0.60652  0.03034  1.0000
  H   H1370     1.0  0.34610  0.67565  0.98931  1.0000
  H   H1371     1.0  0.46218  0.97814  0.09693  1.0000
  H   H1372     1.0  0.32646  0.89035  0.24883  1.0000
  C   C1732     1.0  0.31597  0.52172  0.08657  1.0000
  H   H1373     1.0  0.39187  0.94827  0.99132  1.0000
  H   H1374     1.0  0.31025  0.89092  0.21831  1.0000
  C   C1733     1.0  0.31470  0.49037  0.07704  1.0000
  H   H1375     1.0  0.24373  0.52299  0.11379  1.0000
  C   C1734     1.0  0.25103  0.53445  0.10645  1.0000
  C   C1735     1.0  0.47470  0.94559  0.00038  1.0000
  C   C1736     1.0  0.32668  0.86845  0.20502  1.0000
  H   H1376     1.0  0.48538  0.93437  0.99703  1.0000
  H   H1377     1.0  0.27684  0.58055  0.15505  1.0000
  C   C1737     1.0  0.35133  0.61710  0.99759  1.0000
  C   C1738     1.0  0.24839  0.63894  0.99071  1.0000
  H   H1378     1.0  0.28596  0.62277  0.06376  1.0000
  C   C1739     1.0  0.42968  0.88292  0.18654  1.0000
  H   H1379     1.0  0.35724  0.49470  0.09218  1.0000
  H   H1380     1.0  0.28005  0.93161  0.28522  1.0000
  C   C1740     1.0  0.45305  0.82861  0.10068  1.0000
  H   H1381     1.0  0.43471  0.86376  0.12705  1.0000
  H   H1382     1.0  0.31065  0.62431  0.15353  1.0000
  H   H1383     1.0  0.44657  0.89132  0.10651  1.0000
  C   C1741     1.0  0.33135  0.82936  0.05050  1.0000
  C   C1742     1.0  0.27592  0.61019  0.01459  1.0000
  H   H1384     1.0  0.29222  0.51234  0.07504  1.0000
  C   C1743     1.0  0.27827  0.60434  0.22814  1.0000
  C   C1744     1.0  0.28319  0.61915  0.05010  1.0000
  C   C1745     1.0  0.29568  0.62329  0.03442  1.0000
  C   C1746     1.0  0.29210  0.61885  0.01677  1.0000
  H   H1385     1.0  0.34196  0.84332  0.19521  1.0000
  H   H1386     1.0  0.45599  0.55680  0.03372  1.0000
  C   C1747     1.0  0.38172  0.92481  0.05804  1.0000
  S   S237      1.0  0.38563  0.97356  0.08094  1.0000
  H   H1387     1.0  0.43015  0.97606  0.16717  1.0000
  H   H1388     1.0  0.26880  0.57014  0.01633  1.0000
  H   H1389     1.0  0.30531  0.83502  0.24545  1.0000
  H   H1390     1.0  0.25697  0.60813  0.06021  1.0000
  C   C1748     1.0  0.34860  0.95957  0.05383  1.0000
  C   C1749     1.0  0.47785  0.80117  0.18438  1.0000
  C   C1750     1.0  0.24087  0.55147  0.10120  1.0000
  H   H1391     1.0  0.25802  0.84413  0.31017  1.0000
  H   H1392     1.0  0.42485  0.84020  0.10853  1.0000
  C   C1751     1.0  0.25893  0.60113  0.11822  1.0000
  C   C1752     1.0  0.26142  0.59522  0.20337  1.0000
  C   C1753     1.0  0.26959  0.57253  0.22931  1.0000
  H   H1393     1.0  0.30801  0.63034  0.03577  1.0000
  H   H1394     1.0  0.30184  0.62265  0.00486  1.0000
  C   C1754     1.0  0.47673  0.97993  0.09270  1.0000
  H   H1395     1.0  0.31053  0.77020  0.16165  1.0000
  H   H1396     1.0  0.25908  0.86475  0.28054  1.0000
  H   H1397     1.0  0.38251  0.93909  0.06122  1.0000
  H   H1398     1.0  0.43831  0.52945  0.03059  1.0000
  C   C1755     1.0  0.28702  0.64214  0.14406  1.0000
  H   H1399     1.0  0.31088  0.92002  0.10060  1.0000
  H   H1400     1.0  0.30535  0.80190  0.09281  1.0000
  H   H1401     1.0  0.33345  0.91806  0.04288  1.0000
  H   H1402     1.0  0.45169  0.84778  0.16183  1.0000
  H   H1403     1.0  0.43026  0.85277  0.19031  1.0000
  C   C1756     1.0  0.33149  0.80352  0.07509  1.0000
  H   H1404     1.0  0.42006  0.88499  0.19893  1.0000
  S   S238      1.0  0.39146  0.96333  0.02679  1.0000
  C   C1757     1.0  0.35610  0.54415  0.00840  1.0000
  P   P63       1.0  0.38524  0.56773  0.00329  1.0000
  C   C1758     1.0  0.37015  0.55169  0.01669  1.0000
  C   C1759     1.0  0.37178  0.54746  0.03594  1.0000
  C   C1760     1.0  0.36001  0.53536  0.04664  1.0000
  C   C1761     1.0  0.34622  0.52770  0.03829  1.0000
  C   C1762     1.0  0.29440  0.66424  0.99293  1.0000
  C   C1763     1.0  0.28751  0.83514  0.30733  1.0000
  C   C1764     1.0  0.37341  0.59068  0.00695  1.0000
  C   C1765     1.0  0.47213  0.82976  0.10209  1.0000
  C   C1766     1.0  0.44528  0.85442  0.12009  1.0000
  C   C1767     1.0  0.35420  0.62578  0.01343  1.0000
  C   C1768     1.0  0.36627  0.61685  0.02623  1.0000
  C   C1769     1.0  0.37570  0.59929  0.02315  1.0000
  C   C1770     1.0  0.43293  0.54350  0.02558  1.0000
  C   C1771     1.0  0.45763  0.90031  0.10709  1.0000
  H   H1405     1.0  0.40816  0.53406  0.01681  1.0000
  H   H1406     1.0  0.38213  0.55355  0.04276  1.0000
  H   H1407     1.0  0.36163  0.53201  0.06145  1.0000
  H   H1408     1.0  0.33709  0.51843  0.04672  1.0000
  C   C1772     1.0  0.43577  0.57695  0.02079  1.0000
  S   S239      1.0  0.42967  0.49438  0.01383  1.0000
  H   H1409     1.0  0.28921  0.82984  0.07671  1.0000
  C   C1773     1.0  0.48349  0.49335  0.08218  1.0000
  H   H1410     1.0  0.34705  0.63943  0.01588  1.0000
  H   H1411     1.0  0.36828  0.62359  0.03862  1.0000
  C   C1774     1.0  0.39318  0.97427  0.00350  1.0000
  C   C1775     1.0  0.48280  0.60690  0.02556  1.0000
  H   H1412     1.0  0.46501  0.76365  0.17106  1.0000
  C   C1776     1.0  0.33173  0.67213  0.99044  1.0000
  C   C1777     1.0  0.30652  0.86406  0.23407  1.0000
  C   C1778     1.0  0.29040  0.90829  0.06341  1.0000
  H   H1413     1.0  0.29652  0.75838  0.13551  1.0000
  C   C1779     1.0  0.28006  0.54724  0.09324  1.0000
  C   C1780     1.0  0.39269  0.96324  0.98850  1.0000
  H   H1414     1.0  0.35405  0.95062  0.04291  1.0000
  C   C1781     1.0  0.46559  0.97777  0.00727  1.0000
  H   H1415     1.0  0.26094  0.65681  0.13639  1.0000
  H   H1416     1.0  0.40913  0.92339  0.04294  1.0000
  H   H1417     1.0  0.27685  0.57648  0.08209  1.0000
  C   C1782     1.0  0.27180  0.85669  0.28456  1.0000
  C   C1783     1.0  0.40811  0.56437  0.01203  1.0000
  C   C1784     1.0  0.30359  0.82531  0.07196  1.0000
  C   C1785     1.0  0.33590  0.96396  0.08572  1.0000
  C   C1786     1.0  0.32461  0.91898  0.07247  1.0000
  C   C1787     1.0  0.32222  0.91597  0.05392  1.0000
  C   C1788     1.0  0.44893  0.89566  0.15960  1.0000
  C   C1789     1.0  0.41570  0.54619  0.01785  1.0000
  C   C1790     1.0  0.27113  0.84510  0.30141  1.0000
  C   C1791     1.0  0.31691  0.76927  0.11424  1.0000
  Fe  Fe118     1.0  0.33681  0.87581  0.30283  1.0000
  C   C1792     1.0  0.43532  0.86476  0.18161  1.0000
  C   C1793     1.0  0.30957  0.91707  0.08635  1.0000
  S   S240      1.0  0.38993  0.49003  0.05775  1.0000
  H   H1418     1.0  0.45205  0.92799  0.00097  1.0000
  C   C1794     1.0  0.29257  0.91160  0.08184  1.0000
  C   C1795     1.0  0.26747  0.64512  0.14486  1.0000
  C   C1796     1.0  0.34061  0.81349  0.05959  1.0000
  C   C1797     1.0  0.36073  0.59950  0.99445  1.0000
  H   H1419     1.0  0.47061  0.94281  0.08785  1.0000
  H   H1420     1.0  0.28101  0.91015  0.09261  1.0000
  C   C1798     1.0  0.29548  0.62672  0.15448  1.0000
  C   C1799     1.0  0.45448  0.87743  0.15441  1.0000
  H   H1421     1.0  0.42739  0.95308  0.00912  1.0000
  H   H1422     1.0  0.26893  0.58925  0.12138  1.0000
  H   H1423     1.0  0.44342  0.58889  0.02218  1.0000
  C   C1800     1.0  0.47099  0.92961  0.09660  1.0000
  H   H1424     1.0  0.44862  0.81804  0.09282  1.0000
  C   C1801     1.0  0.46438  0.85578  0.12154  1.0000
  H   H1425     1.0  0.34184  0.62411  0.98775  1.0000
  C   C1802     1.0  0.24935  0.58007  0.17049  1.0000
  H   H1426     1.0  0.26283  0.84812  0.24685  1.0000
  H   H1427     1.0  0.44614  0.92117  0.08671  1.0000
  H   H1428     1.0  0.41318  0.59380  0.00818  1.0000
  C   C1803     1.0  0.26471  0.61721  0.16669  1.0000
  H   H1429     1.0  0.30567  0.84757  0.04964  1.0000
  H   H1430     1.0  0.46989  0.50082  0.08031  1.0000
  C   C1804     1.0  0.30465  0.83705  0.29664  1.0000
  C   C1805     1.0  0.24680  0.55604  0.00743  1.0000
  C   C1806     1.0  0.27815  0.58616  0.23709  1.0000
  H   H1431     1.0  0.33367  0.52601  0.01263  1.0000
  C   C1807     1.0  0.34426  0.53206  0.01917  1.0000
  H   H1432     1.0  0.27977  0.66165  0.99395  1.0000
  C   C1808     1.0  0.41852  0.57970  0.01303  1.0000
  H   H1433     1.0  0.29560  0.65152  0.13497  1.0000
  C   C1809     1.0  0.47172  0.89539  0.11933  1.0000
  Fe  Fe119     1.0  0.41938  0.48815  0.04417  1.0000
  H   H1434     1.0  0.29123  0.60244  0.17374  1.0000
  C   C1810     1.0  0.48486  0.92504  0.10899  1.0000
  C   C1811     1.0  0.30857  0.92708  0.27325  1.0000
  C   C1812     1.0  0.34294  0.49853  0.08862  1.0000
  C   C1813     1.0  0.26121  0.57702  0.21253  1.0000
  C   C1814     1.0  0.26990  0.60889  0.21137  1.0000
  C   C1815     1.0  0.48250  0.98546  0.07400  1.0000
  C   C1816     1.0  0.26447  0.57305  0.15844  1.0000
  H   H1435     1.0  0.26935  0.90728  0.23471  1.0000
  H   H1436     1.0  0.27509  0.55129  0.14059  1.0000
  C   C1817     1.0  0.37930  0.49597  0.99301  1.0000
  H   H1437     1.0  0.48254  0.82013  0.09526  1.0000
  C   C1818     1.0  0.25634  0.58603  0.99279  1.0000
  C   C1819     1.0  0.44193  0.95604  0.00727  1.0000
  C   C1820     1.0  0.25835  0.57072  0.00643  1.0000
  H   H1438     1.0  0.31748  0.82999  0.30164  1.0000
  H   H1439     1.0  0.30344  0.90833  0.03508  1.0000
  H   H1440     1.0  0.35431  0.54753  0.99365  1.0000
  C   C1821     1.0  0.26355  0.55637  0.15020  1.0000
  C   C1822     1.0  0.31285  0.83529  0.05670  1.0000
  H   H1441     1.0  0.47145  0.51880  0.02229  1.0000
  H   H1442     1.0  0.48530  0.97258  0.12054  1.0000
  C   C1823     1.0  0.48488  0.59927  0.00828  1.0000
  H   H1443     1.0  0.47229  0.61852  0.02812  1.0000
  S   S241      1.0  0.30572  0.88456  0.30888  1.0000
  H   H1444     1.0  0.25008  0.60069  0.02895  1.0000
  H   H1445     1.0  0.47599  0.60501  0.99741  1.0000
  H   H1446     1.0  0.33124  0.95839  0.09975  1.0000
  H   H1447     1.0  0.24691  0.53349  0.14788  1.0000
  H   H1448     1.0  0.47148  0.68231  0.20330  1.0000
  H   H1449     1.0  0.45405  0.90784  0.15132  1.0000
  Fe  Fe120     1.0  0.43657  0.98479  0.06726  1.0000
  C   C1824     1.0  0.48512  0.90810  0.12048  1.0000
  C   C1825     1.0  0.25025  0.56643  0.09214  1.0000
  H   H1450     1.0  0.35519  0.97514  0.31607  1.0000
  C   C1826     1.0  0.34706  0.97904  0.04945  1.0000
  C   C1827     1.0  0.41002  0.98290  0.14686  1.0000
  H   H1451     1.0  0.48785  0.54724  0.01225  1.0000
  P   P64       1.0  0.25060  0.60126  0.18175  1.0000
  C   C1828     1.0  0.41894  0.98608  0.16244  1.0000
  C   C1829     1.0  0.44675  0.97396  0.00961  1.0000
  H   H1452     1.0  0.31653  0.49736  0.03315  1.0000
  H   H1453     1.0  0.36464  0.49884  0.99784  1.0000
  H   H1454     1.0  0.24675  0.63684  0.00585  1.0000
  S   S242      1.0  0.42338  0.98539  0.09678  1.0000
  C   C1830     1.0  0.24041  0.86471  0.23365  1.0000
  H   H1455     1.0  0.48150  0.49143  0.99497  1.0000
  C   C1831     1.0  0.41211  0.49312  0.99897  1.0000
  H   H1456     1.0  0.48822  0.49084  0.03805  1.0000
  C   C1832     1.0  0.23957  0.59958  0.12297  1.0000
  H   H1457     1.0  0.29385  0.56880  0.98734  1.0000
  C   C1833     1.0  0.24769  0.54641  0.15421  1.0000
  H   H1458     1.0  0.48371  0.85486  0.17029  1.0000
  H   H1459     1.0  0.43584  0.98486  0.01334  1.0000
  H   H1460     1.0  0.24827  0.54437  0.01810  1.0000
  H   H1461     1.0  0.26942  0.55845  0.23629  1.0000
  H   H1462     1.0  0.48604  0.77337  0.08742  1.0000
  H   H1463     1.0  0.25458  0.56628  0.20681  1.0000
  C   C1834     1.0  0.48611  0.51897  0.02448  1.0000
  H   H1464     1.0  0.24127  0.63520  0.15604  1.0000
  H   H1465     1.0  0.35171  0.98483  0.03544  1.0000
  H   H1466     1.0  0.33958  0.94609  0.31505  1.0000
  C   C1835     1.0  0.33123  0.95911  0.31767  1.0000
  S   S243      1.0  0.31768  0.90252  0.63395  1.0000
  S   S244      1.0  0.36858  0.88513  0.61799  1.0000
  Fe  Fe121     1.0  0.47996  0.89731  0.60151  1.0000
  C   C1836     1.0  0.41519  0.97879  0.36204  1.0000
  S   S245      1.0  0.45504  0.89408  0.62355  1.0000
  Fe  Fe122     1.0  0.30783  0.86801  0.33714  1.0000
  S   S246      1.0  0.28733  0.84719  0.35284  1.0000
  Fe  Fe123     1.0  0.34556  0.88448  0.34199  1.0000
  C   C1837     1.0  0.46614  0.95546  0.62409  1.0000
  S   S247      1.0  0.36518  0.89179  0.36284  1.0000
  C   C1838     1.0  0.41809  0.96080  0.37151  1.0000
  H   H1467     1.0  0.37229  0.92864  0.64042  1.0000
  S   S248      1.0  0.31507  0.89297  0.35067  1.0000
  C   C1839     1.0  0.25873  0.88246  0.40036  1.0000
  Fe  Fe124     1.0  0.46778  0.89026  0.39520  1.0000
  S   S249      1.0  0.45147  0.87360  0.37801  1.0000
  S   S250      1.0  0.45672  0.90017  0.42313  1.0000
  C   C1840     1.0  0.48016  0.95460  0.46227  1.0000
  C   C1841     1.0  0.38975  0.88744  0.36479  1.0000
  C   C1842     1.0  0.40046  0.87165  0.35826  1.0000
  C   C1843     1.0  0.41939  0.86776  0.36219  1.0000
  C   C1844     1.0  0.42788  0.87966  0.37254  1.0000
  C   C1845     1.0  0.41730  0.89574  0.37858  1.0000
  C   C1846     1.0  0.39842  0.89959  0.37463  1.0000
  H   H1468     1.0  0.39401  0.86214  0.35069  1.0000
  H   H1469     1.0  0.42744  0.85532  0.35738  1.0000
  H   H1470     1.0  0.42360  0.90512  0.38644  1.0000
  H   H1471     1.0  0.39039  0.91210  0.37918  1.0000
  H   H1472     1.0  0.46554  0.95771  0.37204  1.0000
  C   C1847     1.0  0.36052  0.93658  0.60273  1.0000
  C   C1848     1.0  0.37694  0.97048  0.35572  1.0000
  H   H1473     1.0  0.34490  0.87407  0.50755  1.0000
  C   C1849     1.0  0.46584  0.96727  0.53634  1.0000
  C   C1850     1.0  0.37888  0.95708  0.64263  1.0000
  C   C1851     1.0  0.26275  0.84348  0.35763  1.0000
  H   H1474     1.0  0.24666  0.88088  0.48476  1.0000
  S   S251      1.0  0.48769  0.87361  0.46132  1.0000
  C   C1852     1.0  0.35800  0.97167  0.36299  1.0000
  H   H1475     1.0  0.24190  0.89437  0.64558  1.0000
  C   C1853     1.0  0.46867  0.97211  0.41004  1.0000
  Fe  Fe125     1.0  0.46986  0.92652  0.41262  1.0000
  H   H1476     1.0  0.24676  0.66584  0.61791  1.0000
  C   C1854     1.0  0.25869  0.83936  0.63349  1.0000
  C   C1855     1.0  0.25888  0.85827  0.62644  1.0000
  C   C1856     1.0  0.39614  0.96196  0.58390  1.0000
  H   H1477     1.0  0.37821  0.96291  0.48732  1.0000
  C   C1857     1.0  0.39226  0.88940  0.61937  1.0000
  C   C1858     1.0  0.39868  0.89337  0.63609  1.0000
  C   C1859     1.0  0.41788  0.89533  0.63694  1.0000
  C   C1860     1.0  0.43082  0.89349  0.62106  1.0000
  C   C1861     1.0  0.42428  0.89037  0.60411  1.0000
  C   C1862     1.0  0.40509  0.88828  0.60331  1.0000
  C   C1863     1.0  0.24451  0.82847  0.62934  1.0000
  H   H1478     1.0  0.43407  0.88894  0.59179  1.0000
  H   H1479     1.0  0.40023  0.88529  0.59028  1.0000
  C   C1864     1.0  0.37346  0.93973  0.34574  1.0000
  C   C1865     1.0  0.24593  0.85598  0.41942  1.0000
  S   S252      1.0  0.30002  0.93881  0.31998  1.0000
  H   H1480     1.0  0.47768  0.95004  0.61469  1.0000
  Fe  Fe126     1.0  0.34446  0.88591  0.64128  1.0000
  C   C1866     1.0  0.32322  0.95137  0.60922  1.0000
  C   C1867     1.0  0.33762  0.96045  0.61504  1.0000
  H   H1481     1.0  0.33381  0.97272  0.62256  1.0000
  S   S253      1.0  0.27629  0.87301  0.63159  1.0000
  H   H1482     1.0  0.25833  0.92009  0.62854  1.0000
  C   C1868     1.0  0.45682  0.94316  0.63721  1.0000
  H   H1483     1.0  0.33231  0.95807  0.36701  1.0000
  C   C1869     1.0  0.27435  0.87072  0.39423  1.0000
  H   H1484     1.0  0.35151  0.98395  0.36939  1.0000
  H   H1485     1.0  0.38890  0.89442  0.64844  1.0000
  C   C1870     1.0  0.24831  0.85593  0.35054  1.0000
  H   H1486     1.0  0.34930  0.91446  0.59052  1.0000
  S   S254      1.0  0.45410  0.95430  0.41804  1.0000
  H   H1487     1.0  0.46109  0.92823  0.63781  1.0000
  H   H1488     1.0  0.40643  0.95261  0.37633  1.0000
  C   C1871     1.0  0.34701  0.95693  0.36178  1.0000
  C   C1872     1.0  0.46062  0.97472  0.62302  1.0000
  C   C1873     1.0  0.40812  0.97701  0.45008  1.0000
  C   C1874     1.0  0.42789  0.94326  0.59909  1.0000
  C   C1875     1.0  0.44691  0.90314  0.47521  1.0000
  C   C1876     1.0  0.44670  0.89322  0.49290  1.0000
  C   C1877     1.0  0.44697  0.90279  0.50879  1.0000
  C   C1878     1.0  0.44748  0.92229  0.50702  1.0000
  C   C1879     1.0  0.44808  0.93238  0.48921  1.0000
  C   C1880     1.0  0.44751  0.92265  0.47332  1.0000
  P   P65       1.0  0.44727  0.95775  0.48664  1.0000
  C   C1881     1.0  0.42532  0.96524  0.47687  1.0000
  C   C1882     1.0  0.44891  0.96689  0.50884  1.0000
  H   H1489     1.0  0.25744  0.89713  0.39500  1.0000
  H   H1490     1.0  0.43801  0.97507  0.44945  1.0000
  C   C1883     1.0  0.25596  0.91941  0.64368  1.0000
  C   C1884     1.0  0.43541  0.98059  0.51583  1.0000
  C   C1885     1.0  0.46440  0.96069  0.51897  1.0000
  C   C1886     1.0  0.40831  0.96152  0.48730  1.0000
  C   C1887     1.0  0.27593  0.85172  0.40080  1.0000
  C   C1888     1.0  0.39130  0.96584  0.47924  1.0000
  H   H1491     1.0  0.47970  0.93962  0.46443  1.0000
  H   H1492     1.0  0.24517  0.87478  0.45188  1.0000
  C   C1889     1.0  0.46639  0.96669  0.47128  1.0000
  C   C1890     1.0  0.41226  0.94921  0.61097  1.0000
  C   C1891     1.0  0.35478  0.94091  0.35332  1.0000
  C   C1892     1.0  0.24125  0.78977  0.44356  1.0000
  H   H1493     1.0  0.24786  0.81464  0.45469  1.0000
  H   H1494     1.0  0.26309  0.82945  0.41767  1.0000
  H   H1495     1.0  0.44726  0.89550  0.46296  1.0000
  H   H1496     1.0  0.44701  0.87804  0.49418  1.0000
  H   H1497     1.0  0.44728  0.89502  0.52248  1.0000
  H   H1498     1.0  0.44754  0.92923  0.51963  1.0000
  H   H1499     1.0  0.44779  0.93011  0.45945  1.0000
  H   H1500     1.0  0.28596  0.97703  0.32589  1.0000
  H   H1501     1.0  0.37808  0.97667  0.45427  1.0000
  H   H1502     1.0  0.43992  0.93530  0.60491  1.0000
  C   C1893     1.0  0.32746  0.93515  0.59986  1.0000
  H   H1503     1.0  0.40827  0.95498  0.50153  1.0000
  S   S255      1.0  0.48240  0.92475  0.58405  1.0000
  H   H1504     1.0  0.26953  0.83306  0.64212  1.0000
  C   C1894     1.0  0.23916  0.86941  0.48161  1.0000
  H   H1505     1.0  0.47523  0.95049  0.51355  1.0000
  H   H1506     1.0  0.38720  0.98359  0.64950  1.0000
  P   P66       1.0  0.37533  0.96512  0.61857  1.0000
  H   H1507     1.0  0.40647  0.85852  0.47154  1.0000
  C   C1895     1.0  0.34608  0.92764  0.59683  1.0000
  H   H1508     1.0  0.38364  0.96849  0.57780  1.0000
  H   H1509     1.0  0.37476  0.93009  0.60075  1.0000
  H   H1510     1.0  0.47763  0.96198  0.54425  1.0000
  C   C1896     1.0  0.26177  0.84432  0.41329  1.0000
  S   S256      1.0  0.33876  0.85801  0.33051  1.0000
  C   C1897     1.0  0.41193  0.95627  0.57208  1.0000
  H   H1511     1.0  0.24464  0.81394  0.63500  1.0000
  H   H1512     1.0  0.43841  0.93925  0.38212  1.0000
  C   C1898     1.0  0.39629  0.95881  0.60348  1.0000
  H   H1513     1.0  0.43992  0.94211  0.57056  1.0000
  C   C1899     1.0  0.42782  0.94694  0.57969  1.0000
  H   H1514     1.0  0.39890  0.95332  0.34069  1.0000
  C   C1900     1.0  0.25759  0.82730  0.36902  1.0000
  H   H1515     1.0  0.25184  0.86845  0.34180  1.0000
  H   H1516     1.0  0.41171  0.95861  0.55701  1.0000
  Fe  Fe127     1.0  0.48512  0.88990  0.43266  1.0000
  H   H1517     1.0  0.37936  0.92725  0.33912  1.0000
  C   C1901     1.0  0.46717  0.98620  0.46782  1.0000
  C   C1902     1.0  0.24458  0.87516  0.41297  1.0000
  H   H1518     1.0  0.34864  0.84744  0.48762  1.0000
  H   H1519     1.0  0.28782  0.84257  0.39553  1.0000
  C   C1903     1.0  0.43622  0.95314  0.37484  1.0000
  Fe  Fe128     1.0  0.31480  0.90898  0.32225  1.0000
  C   C1904     1.0  0.44871  0.98172  0.36047  1.0000
  C   C1905     1.0  0.44599  0.98193  0.63548  1.0000
  H   H1520     1.0  0.45343  0.98579  0.55685  1.0000
  C   C1906     1.0  0.42510  0.97285  0.45814  1.0000
  C   C1907     1.0  0.31169  0.95941  0.32061  1.0000
  C   C1908     1.0  0.38447  0.95450  0.34676  1.0000
  C   C1909     1.0  0.45152  0.96355  0.36921  1.0000
  H   H1521     1.0  0.31625  0.92787  0.59576  1.0000
  H   H1522     1.0  0.34620  0.92954  0.35228  1.0000
  C   C1910     1.0  0.39121  0.97358  0.46062  1.0000
  H   H1523     1.0  0.43813  0.84357  0.47652  1.0000
  H   H1524     1.0  0.41255  0.94573  0.62590  1.0000
  S   S257      1.0  0.47910  0.91756  0.38396  1.0000
  H   H1525     1.0  0.46795  0.98403  0.61260  1.0000
  C   C1911     1.0  0.35646  0.95333  0.61154  1.0000
  H   H1526     1.0  0.26848  0.81745  0.37460  1.0000
  H   H1527     1.0  0.28503  0.87618  0.38396  1.0000
  C   C1912     1.0  0.37841  0.84803  0.39588  1.0000
  C   C1913     1.0  0.35933  0.85330  0.39456  1.0000
  C   C1914     1.0  0.34965  0.86585  0.40656  1.0000
  C   C1915     1.0  0.35908  0.87323  0.41980  1.0000
  C   C1916     1.0  0.37836  0.86824  0.42106  1.0000
  C   C1917     1.0  0.38792  0.85546  0.40902  1.0000
  P   P67       1.0  0.39029  0.87862  0.43792  1.0000
  C   C1918     1.0  0.39410  0.90280  0.43016  1.0000
  C   C1919     1.0  0.37554  0.87759  0.45978  1.0000
  C   C1920     1.0  0.37341  0.89259  0.47114  1.0000
  C   C1921     1.0  0.36236  0.89131  0.48830  1.0000
  C   C1922     1.0  0.35341  0.87507  0.49422  1.0000
  C   C1923     1.0  0.35551  0.86007  0.48300  1.0000
  C   C1924     1.0  0.36656  0.86129  0.46585  1.0000
  C   C1925     1.0  0.40832  0.91125  0.43729  1.0000
  C   C1926     1.0  0.41140  0.92994  0.43153  1.0000
  C   C1927     1.0  0.40034  0.94038  0.41863  1.0000
  C   C1928     1.0  0.38597  0.93220  0.41166  1.0000
  C   C1929     1.0  0.38282  0.91349  0.41743  1.0000
  C   C1930     1.0  0.41295  0.86613  0.44177  1.0000
  C   C1931     1.0  0.42724  0.86561  0.42698  1.0000
  C   C1932     1.0  0.44501  0.85659  0.42986  1.0000
  C   C1933     1.0  0.44895  0.84877  0.44773  1.0000
  C   C1934     1.0  0.43494  0.84950  0.46264  1.0000
  C   C1935     1.0  0.41697  0.85804  0.45970  1.0000
  H   H1528     1.0  0.38600  0.83869  0.38622  1.0000
  H   H1529     1.0  0.35219  0.84816  0.38381  1.0000
  H   H1530     1.0  0.33498  0.87030  0.40511  1.0000
  H   H1531     1.0  0.35140  0.88317  0.42876  1.0000
  H   H1532     1.0  0.40271  0.85125  0.40940  1.0000
  H   H1533     1.0  0.38031  0.90524  0.46689  1.0000
  H   H1534     1.0  0.36079  0.90289  0.49705  1.0000
  H   H1535     1.0  0.36823  0.84947  0.45738  1.0000
  H   H1536     1.0  0.41713  0.90338  0.44721  1.0000
  H   H1537     1.0  0.42260  0.93626  0.43683  1.0000
  H   H1538     1.0  0.40312  0.95471  0.41387  1.0000
  H   H1539     1.0  0.37751  0.94018  0.40143  1.0000
  H   H1540     1.0  0.37191  0.90739  0.41145  1.0000
  H   H1541     1.0  0.42475  0.87238  0.41322  1.0000
  H   H1542     1.0  0.45589  0.85618  0.41827  1.0000
  H   H1543     1.0  0.46297  0.84245  0.45005  1.0000
  H   H1544     1.0  0.30872  0.95662  0.61252  1.0000
  H   H1545     1.0  0.24445  0.88048  0.60947  1.0000
  H   H1546     1.0  0.28702  0.82641  0.32053  1.0000
  C   C1936     1.0  0.30110  0.97659  0.32374  1.0000
  C   C1937     1.0  0.23984  0.80917  0.44487  1.0000
  C   C1938     1.0  0.34006  0.97567  0.31819  1.0000
  H   H1547     1.0  0.42380  0.98624  0.50791  1.0000
  H   H1548     1.0  0.25339  0.62752  0.63723  1.0000
  C   C1939     1.0  0.24459  0.86593  0.61507  1.0000
  H   H1549     1.0  0.42280  0.89792  0.65007  1.0000
  H   H1550     1.0  0.25004  0.78043  0.45249  1.0000
  C   C1940     1.0  0.48645  0.96755  0.40101  1.0000
  H   H1551     1.0  0.48628  0.83498  0.64160  1.0000
  Fe  Fe129     1.0  0.30171  0.87856  0.64752  1.0000
  C   C1941     1.0  0.37678  0.93831  0.64933  1.0000
  C   C1942     1.0  0.43636  0.96940  0.64834  1.0000
  C   C1943     1.0  0.45213  0.98056  0.54347  1.0000
  H   H1552     1.0  0.40824  0.98252  0.43550  1.0000
  C   C1944     1.0  0.44177  0.95008  0.64919  1.0000
  H   H1553     1.0  0.24699  0.69900  0.62468  1.0000
  H   H1554     1.0  0.27094  0.94346  0.64590  1.0000
  C   C1945     1.0  0.23877  0.62929  0.64270  1.0000
  C   C1946     1.0  0.23853  0.82361  0.37326  1.0000
  H   H1555     1.0  0.38702  0.98463  0.31868  1.0000
  Fe  Fe130     1.0  0.32724  0.87401  0.68049  1.0000
  H   H1556     1.0  0.38095  0.82783  0.88732  1.0000
  S   S258      1.0  0.33327  0.85250  0.70564  1.0000
  C   C1947     1.0  0.32622  0.76619  0.73143  1.0000
  C   C1948     1.0  0.47282  0.92093  0.93476  1.0000
  C   C1949     1.0  0.33671  0.53377  0.85416  1.0000
  H   H1557     1.0  0.39160  0.59250  0.96848  1.0000
  H   H1558     1.0  0.36389  0.73009  0.81556  1.0000
  S   S259      1.0  0.29922  0.89048  0.67573  1.0000
  S   S260      1.0  0.34453  0.89793  0.66892  1.0000
  Fe  Fe131     1.0  0.41810  0.81488  0.81889  1.0000
  S   S261      1.0  0.40542  0.81081  0.84866  1.0000
  S   S262      1.0  0.44805  0.80399  0.80949  1.0000
  Fe  Fe132     1.0  0.38264  0.83770  0.80525  1.0000
  S   S263      1.0  0.36791  0.83541  0.83449  1.0000
  S   S264      1.0  0.37019  0.85810  0.78202  1.0000
  Fe  Fe133     1.0  0.39521  0.84155  0.84417  1.0000
  S   S265      1.0  0.40092  0.86034  0.86624  1.0000
  Fe  Fe134     1.0  0.37930  0.80466  0.83635  1.0000
  S   S266      1.0  0.35811  0.78349  0.84909  1.0000
  S   S267      1.0  0.40928  0.84572  0.81510  1.0000
  S   S268      1.0  0.39266  0.80690  0.80640  1.0000
  Fe  Fe135     1.0  0.39586  0.96695  0.88283  1.0000
  S   S269      1.0  0.37997  0.94859  0.86716  1.0000
  S   S270      1.0  0.40890  0.95949  0.91011  1.0000
  Fe  Fe136     1.0  0.29584  0.65264  0.88643  1.0000
  S   S271      1.0  0.32647  0.64848  0.87539  1.0000
  S   S272      1.0  0.27161  0.65232  0.86775  1.0000
  Fe  Fe137     1.0  0.30606  0.66166  0.92506  1.0000
  S   S273      1.0  0.33692  0.65838  0.91641  1.0000
  S   S274      1.0  0.29262  0.66535  0.95480  1.0000
  Fe  Fe138     1.0  0.33018  0.67488  0.88904  1.0000
  S   S275      1.0  0.35117  0.69544  0.87440  1.0000
  Fe  Fe139     1.0  0.33086  0.63263  0.90352  1.0000
  S   S276      1.0  0.34755  0.60560  0.91404  1.0000
  S   S277      1.0  0.29932  0.67987  0.89863  1.0000
  S   S278      1.0  0.30012  0.63508  0.91356  1.0000
  Fe  Fe140     1.0  0.38616  0.50617  0.89107  1.0000
  S   S279      1.0  0.40377  0.50264  0.91547  1.0000
  S   S280      1.0  0.38162  0.53375  0.87315  1.0000
  C   C1950     1.0  0.25238  0.64535  0.95162  1.0000
  H   H1559     1.0  0.25660  0.89310  0.88120  1.0000
  C   C1951     1.0  0.32039  0.51681  0.82738  1.0000
  H   H1560     1.0  0.31794  0.69717  0.83348  1.0000
  C   C1952     1.0  0.35761  0.81180  0.88526  1.0000
  H   H1561     1.0  0.24749  0.57407  0.82944  1.0000
  C   C1953     1.0  0.31058  0.53204  0.83588  1.0000
  H   H1562     1.0  0.37598  0.98064  0.83807  1.0000
  H   H1563     1.0  0.35159  0.88194  0.84548  1.0000
  C   C1954     1.0  0.34228  0.71216  0.82507  1.0000
  C   C1955     1.0  0.32342  0.70911  0.82502  1.0000
  C   C1956     1.0  0.32422  0.87156  0.84921  1.0000
  C   C1957     1.0  0.25543  0.63624  0.86339  1.0000
  C   C1958     1.0  0.44484  0.84065  0.88816  1.0000
  C   C1959     1.0  0.25549  0.61801  0.87231  1.0000
  C   C1960     1.0  0.38508  0.96915  0.65443  1.0000
  H   H1564     1.0  0.26577  0.61324  0.88210  1.0000
  C   C1961     1.0  0.35575  0.58566  0.90203  1.0000
  C   C1962     1.0  0.36070  0.56873  0.91266  1.0000
  C   C1963     1.0  0.36815  0.55264  0.90390  1.0000
  C   C1964     1.0  0.37134  0.55352  0.88441  1.0000
  C   C1965     1.0  0.36649  0.57045  0.87371  1.0000
  C   C1966     1.0  0.35839  0.58642  0.88246  1.0000
  H   H1565     1.0  0.35866  0.56798  0.92777  1.0000
  H   H1566     1.0  0.37166  0.53963  0.91226  1.0000
  H   H1567     1.0  0.36913  0.57124  0.85861  1.0000
  H   H1568     1.0  0.35473  0.59943  0.87415  1.0000
  C   C1967     1.0  0.31134  0.86641  0.82040  1.0000
  P   P68       1.0  0.47815  0.88168  0.89647  1.0000
  S   S281      1.0  0.30718  0.94503  0.66052  1.0000
  H   H1569     1.0  0.39497  0.52708  0.95101  1.0000
  H   H1570     1.0  0.33124  0.67164  0.96045  1.0000
  H   H1571     1.0  0.44273  0.85951  0.83923  1.0000
  C   C1968     1.0  0.34647  0.51855  0.84567  1.0000
  C   C1969     1.0  0.35664  0.75893  0.85619  1.0000
  C   C1970     1.0  0.33913  0.75271  0.86345  1.0000
  C   C1971     1.0  0.33717  0.73352  0.86932  1.0000
  C   C1972     1.0  0.35271  0.72012  0.86793  1.0000
  C   C1973     1.0  0.37017  0.72634  0.86049  1.0000
  C   C1974     1.0  0.37217  0.74554  0.85475  1.0000
  H   H1572     1.0  0.32697  0.76282  0.86461  1.0000
  H   H1573     1.0  0.32360  0.72907  0.87482  1.0000
  H   H1574     1.0  0.38232  0.71619  0.85923  1.0000
  H   H1575     1.0  0.38575  0.74994  0.84928  1.0000
  C   C1975     1.0  0.46707  0.80883  0.82168  1.0000
  C   C1976     1.0  0.46432  0.81969  0.83699  1.0000
  C   C1977     1.0  0.30448  0.66632  0.97514  1.0000
  H   H1576     1.0  0.45023  0.82462  0.84219  1.0000
  C   C1978     1.0  0.27289  0.56808  0.84339  1.0000
  C   C1979     1.0  0.39584  0.88504  0.86558  1.0000
  C   C1980     1.0  0.38642  0.89531  0.85126  1.0000
  C   C1981     1.0  0.38189  0.91483  0.85173  1.0000
  C   C1982     1.0  0.38714  0.92431  0.86627  1.0000
  C   C1983     1.0  0.39704  0.91410  0.88030  1.0000
  C   C1984     1.0  0.40127  0.89455  0.87999  1.0000
  H   H1577     1.0  0.38265  0.88821  0.83984  1.0000
  H   H1578     1.0  0.37421  0.92261  0.84084  1.0000
  H   H1579     1.0  0.40102  0.92118  0.89165  1.0000
  H   H1580     1.0  0.40867  0.88673  0.89107  1.0000
  H   H1581     1.0  0.42903  0.90993  0.80422  1.0000
  H   H1582     1.0  0.31409  0.52679  0.88775  1.0000
  C   C1985     1.0  0.34357  0.85434  0.72680  1.0000
  C   C1986     1.0  0.34595  0.87168  0.73303  1.0000
  C   C1987     1.0  0.35394  0.87247  0.75001  1.0000
  C   C1988     1.0  0.35975  0.85598  0.76099  1.0000
  C   C1989     1.0  0.35743  0.83861  0.75477  1.0000
  C   C1990     1.0  0.34920  0.83782  0.73789  1.0000
  H   H1583     1.0  0.34137  0.88447  0.72486  1.0000
  H   H1584     1.0  0.35564  0.88599  0.75468  1.0000
  H   H1585     1.0  0.36201  0.82581  0.76289  1.0000
  H   H1586     1.0  0.34735  0.82431  0.73329  1.0000
  H   H1587     1.0  0.39258  0.97228  0.68206  1.0000
  H   H1588     1.0  0.24889  0.87191  0.90975  1.0000
  C   C1991     1.0  0.46941  0.88044  0.80261  1.0000
  H   H1589     1.0  0.33842  0.95126  0.68203  1.0000
  H   H1590     1.0  0.29916  0.62861  0.84595  1.0000
  C   C1992     1.0  0.40094  0.75973  0.80274  1.0000
  C   C1993     1.0  0.41119  0.75512  0.78604  1.0000
  C   C1994     1.0  0.40181  0.75226  0.77063  1.0000
  C   C1995     1.0  0.38215  0.75408  0.77190  1.0000
  C   C1996     1.0  0.37177  0.75898  0.78859  1.0000
  C   C1997     1.0  0.38133  0.76171  0.80398  1.0000
  P   P69       1.0  0.34640  0.76112  0.79080  1.0000
  C   C1998     1.0  0.33807  0.76333  0.76771  1.0000
  C   C1999     1.0  0.33763  0.74054  0.80403  1.0000
  C   C2000     1.0  0.31166  0.72160  0.81433  1.0000
  C   C2001     1.0  0.31874  0.73722  0.80381  1.0000
  C   C2002     1.0  0.33669  0.74709  0.75876  1.0000
  H   H1591     1.0  0.28113  0.57591  0.83244  1.0000
  C   C2003     1.0  0.33838  0.78197  0.80255  1.0000
  C   C2004     1.0  0.32425  0.78160  0.81753  1.0000
  C   C2005     1.0  0.31841  0.79784  0.82657  1.0000
  C   C2006     1.0  0.32658  0.81453  0.82070  1.0000
  C   C2007     1.0  0.34054  0.81504  0.80573  1.0000
  C   C2008     1.0  0.34666  0.79875  0.79693  1.0000
  H   H1592     1.0  0.40818  0.76202  0.81471  1.0000
  H   H1593     1.0  0.42641  0.75382  0.78508  1.0000
  H   H1594     1.0  0.40978  0.74862  0.75771  1.0000
  H   H1595     1.0  0.37521  0.75173  0.75982  1.0000
  H   H1596     1.0  0.37360  0.76541  0.81698  1.0000
  H   H1597     1.0  0.29700  0.71925  0.81442  1.0000
  H   H1598     1.0  0.30941  0.74689  0.79575  1.0000
  H   H1599     1.0  0.34037  0.73329  0.76567  1.0000
  C   C2009     1.0  0.24304  0.55658  0.85523  1.0000
  H   H1600     1.0  0.31817  0.76873  0.82279  1.0000
  H   H1601     1.0  0.30808  0.79725  0.83859  1.0000
  H   H1602     1.0  0.32254  0.82689  0.82811  1.0000
  H   H1603     1.0  0.34699  0.82795  0.80128  1.0000
  H   H1604     1.0  0.35797  0.79920  0.78580  1.0000
  H   H1605     1.0  0.35276  0.60059  0.82835  1.0000
  H   H1606     1.0  0.27603  0.54179  0.88532  1.0000
  H   H1607     1.0  0.35539  0.89817  0.92040  1.0000
  H   H1608     1.0  0.39679  0.58616  0.93525  1.0000
  C   C2010     1.0  0.32827  0.82995  0.87908  1.0000
  C   C2011     1.0  0.26382  0.85618  0.68065  1.0000
  H   H1609     1.0  0.46432  0.91777  0.96432  1.0000
  C   C2012     1.0  0.38054  0.93184  0.66766  1.0000
  C   C2013     1.0  0.34880  0.91788  0.89696  1.0000
  H   H1610     1.0  0.33165  0.62998  0.83098  1.0000
  C   C2014     1.0  0.47500  0.84390  0.90885  1.0000
  H   H1611     1.0  0.48532  0.53592  0.91259  1.0000
  H   H1612     1.0  0.29672  0.53698  0.83188  1.0000
  C   C2015     1.0  0.33870  0.81258  0.88205  1.0000
  H   H1613     1.0  0.47244  0.55632  0.86747  1.0000
  C   C2016     1.0  0.33830  0.51003  0.83232  1.0000
  H   H1614     1.0  0.34165  0.57011  0.84078  1.0000
  C   C2017     1.0  0.34893  0.90035  0.90731  1.0000
  C   C2018     1.0  0.45194  0.90485  0.68419  1.0000
  C   C2019     1.0  0.24201  0.64205  0.85051  1.0000
  H   H1615     1.0  0.44103  0.51793  0.97564  1.0000
  Fe  Fe141     1.0  0.31680  0.91350  0.66212  1.0000
  H   H1616     1.0  0.38607  0.85594  0.65337  1.0000
  C   C2020     1.0  0.24656  0.90480  0.65346  1.0000
  H   H1617     1.0  0.39235  0.96288  0.95849  1.0000
  C   C2021     1.0  0.30131  0.57981  0.97953  1.0000
  C   C2022     1.0  0.41844  0.84050  0.76151  1.0000
  C   C2023     1.0  0.43719  0.83311  0.76047  1.0000
  C   C2024     1.0  0.44890  0.83671  0.74404  1.0000
  C   C2025     1.0  0.44186  0.84773  0.72868  1.0000
  C   C2026     1.0  0.42304  0.85541  0.72975  1.0000
  C   C2027     1.0  0.41139  0.85158  0.74625  1.0000
  P   P70       1.0  0.41360  0.86972  0.71012  1.0000
  C   C2028     1.0  0.39774  0.88881  0.71871  1.0000
  C   C2029     1.0  0.43263  0.87926  0.69492  1.0000
  C   C2030     1.0  0.44297  0.86828  0.68166  1.0000
  C   C2031     1.0  0.46689  0.90770  0.84514  1.0000
  H   H1618     1.0  0.35749  0.98289  0.81054  1.0000
  C   C2032     1.0  0.47089  0.98148  0.91740  1.0000
  C   C2033     1.0  0.43731  0.89759  0.69618  1.0000
  C   C2034     1.0  0.40126  0.89710  0.73472  1.0000
  C   C2035     1.0  0.38894  0.91181  0.74140  1.0000
  C   C2036     1.0  0.37313  0.91847  0.73207  1.0000
  C   C2037     1.0  0.36959  0.91038  0.71609  1.0000
  C   C2038     1.0  0.38179  0.89557  0.70946  1.0000
  C   C2039     1.0  0.40062  0.85601  0.69710  1.0000
  C   C2040     1.0  0.39899  0.86106  0.67793  1.0000
  H   H1619     1.0  0.47368  0.89747  0.72844  1.0000
  S   S282      1.0  0.42209  0.97613  0.86668  1.0000
  H   H1620     1.0  0.36845  0.83026  0.66982  1.0000
  C   C2041     1.0  0.39070  0.84134  0.70625  1.0000
  H   H1621     1.0  0.40927  0.83761  0.77416  1.0000
  H   H1622     1.0  0.44256  0.82449  0.77237  1.0000
  H   H1623     1.0  0.46340  0.83078  0.74319  1.0000
  H   H1624     1.0  0.45115  0.85016  0.71609  1.0000
  H   H1625     1.0  0.39682  0.85717  0.74735  1.0000
  H   H1626     1.0  0.43960  0.85413  0.68035  1.0000
  C   C2042     1.0  0.39189  0.57819  0.96489  1.0000
  H   H1627     1.0  0.47187  0.59276  0.88890  1.0000
  C   C2043     1.0  0.47523  0.89616  0.85942  1.0000
  C   C2044     1.0  0.40340  0.48841  0.96821  1.0000
  H   H1628     1.0  0.41336  0.89203  0.74222  1.0000
  H   H1629     1.0  0.39147  0.91782  0.75403  1.0000
  H   H1630     1.0  0.36343  0.92967  0.73740  1.0000
  H   H1631     1.0  0.35713  0.91529  0.70904  1.0000
  H   H1632     1.0  0.37844  0.88924  0.69734  1.0000
  H   H1633     1.0  0.40612  0.87257  0.67067  1.0000
  C   C2045     1.0  0.24219  0.60596  0.86865  1.0000
  C   C2046     1.0  0.47590  0.56446  0.90244  1.0000
  H   H1634     1.0  0.42456  0.97433  0.65758  1.0000
  H   H1635     1.0  0.48047  0.92023  0.90532  1.0000
  H   H1636     1.0  0.35134  0.70254  0.83350  1.0000
  H   H1637     1.0  0.45535  0.91908  0.68497  1.0000
  H   H1638     1.0  0.32898  0.61857  0.95102  1.0000
  H   H1639     1.0  0.44867  0.50141  0.94664  1.0000
  H   H1640     1.0  0.46043  0.88373  0.96483  1.0000
  C   C2047     1.0  0.48075  0.49938  0.88939  1.0000
  C   C2048     1.0  0.45142  0.92045  0.84947  1.0000
  C   C2049     1.0  0.32760  0.78243  0.74018  1.0000
  P   P71       1.0  0.45143  0.56010  0.90450  1.0000
  C   C2050     1.0  0.43558  0.58142  0.90414  1.0000
  C   C2051     1.0  0.44807  0.54709  0.88504  1.0000
  C   C2052     1.0  0.43281  0.53623  0.88591  1.0000
  C   C2053     1.0  0.43040  0.52607  0.87088  1.0000
  C   C2054     1.0  0.44306  0.52676  0.85485  1.0000
  C   C2055     1.0  0.45814  0.53775  0.85375  1.0000
  C   C2056     1.0  0.46062  0.54795  0.86872  1.0000
  C   C2057     1.0  0.43959  0.59692  0.91302  1.0000
  C   C2058     1.0  0.42706  0.61316  0.91320  1.0000
  C   C2059     1.0  0.41038  0.61404  0.90461  1.0000
  C   C2060     1.0  0.40623  0.59871  0.89583  1.0000
  C   C2061     1.0  0.41871  0.58246  0.89560  1.0000
  C   C2062     1.0  0.44703  0.54666  0.92691  1.0000
  C   C2063     1.0  0.37773  0.83715  0.67730  1.0000
  C   C2064     1.0  0.44047  0.54547  0.96085  1.0000
  C   C2065     1.0  0.44272  0.55584  0.94339  1.0000
  H   H1641     1.0  0.37130  0.82099  0.70354  1.0000
  C   C2066     1.0  0.32334  0.66985  0.97403  1.0000
  H   H1642     1.0  0.28085  0.85772  0.72977  1.0000
  H   H1643     1.0  0.46622  0.86793  0.93575  1.0000
  H   H1644     1.0  0.42272  0.53569  0.89812  1.0000
  H   H1645     1.0  0.41877  0.51749  0.87168  1.0000
  H   H1646     1.0  0.44116  0.51877  0.84331  1.0000
  C   C2067     1.0  0.44662  0.86957  0.82756  1.0000
  C   C2068     1.0  0.28564  0.84514  0.70364  1.0000
  H   H1647     1.0  0.45236  0.59646  0.91990  1.0000
  H   H1648     1.0  0.43023  0.62511  0.91999  1.0000
  H   H1649     1.0  0.40059  0.62658  0.90478  1.0000
  H   H1650     1.0  0.39323  0.59939  0.88927  1.0000
  H   H1651     1.0  0.41494  0.57082  0.88878  1.0000
  C   C2069     1.0  0.44921  0.52694  0.92829  1.0000
  H   H1652     1.0  0.31406  0.51019  0.81702  1.0000
  H   H1653     1.0  0.44106  0.57097  0.94289  1.0000
  C   C2070     1.0  0.43390  0.88481  0.82260  1.0000
  H   H1654     1.0  0.24403  0.64542  0.66498  1.0000
  H   H1655     1.0  0.42023  0.88642  0.83038  1.0000
  C   C2071     1.0  0.31864  0.54056  0.84947  1.0000
  C   C2072     1.0  0.33143  0.96474  0.67746  1.0000
  H   H1656     1.0  0.46499  0.86737  0.65897  1.0000
  H   H1657     1.0  0.44729  0.81139  0.89838  1.0000
  H   H1658     1.0  0.32670  0.90850  0.85996  1.0000
  C   C2073     1.0  0.33348  0.78104  0.75824  1.0000
  C   C2074     1.0  0.37940  0.83190  0.69632  1.0000
  C   C2075     1.0  0.30397  0.61256  0.96881  1.0000
  H   H1659     1.0  0.43325  0.83931  0.88002  1.0000
  H   H1660     1.0  0.31382  0.83028  0.87598  1.0000
  C   C2076     1.0  0.39060  0.54489  0.97374  1.0000
  H   H1661     1.0  0.48030  0.51334  0.88222  1.0000
  H   H1662     1.0  0.30040  0.86158  0.81330  1.0000
  C   C2077     1.0  0.29543  0.85782  0.90174  1.0000
  H   H1663     1.0  0.34080  0.93431  0.87194  1.0000
  H   H1664     1.0  0.32974  0.73593  0.73391  1.0000
  C   C2078     1.0  0.31289  0.57114  0.91458  1.0000
  C   C2079     1.0  0.31704  0.55328  0.92361  1.0000
  C   C2080     1.0  0.31744  0.53738  0.91385  1.0000
  C   C2081     1.0  0.31381  0.53931  0.89502  1.0000
  C   C2082     1.0  0.31026  0.55726  0.88563  1.0000
  C   C2083     1.0  0.30954  0.57315  0.89566  1.0000
  P   P72       1.0  0.30586  0.55976  0.86116  1.0000
  C   C2084     1.0  0.31382  0.58181  0.85059  1.0000
  C   C2085     1.0  0.30199  0.59851  0.85188  1.0000
  C   C2086     1.0  0.30836  0.61577  0.84470  1.0000
  C   C2087     1.0  0.32665  0.61653  0.83623  1.0000
  C   C2088     1.0  0.33851  0.59998  0.83476  1.0000
  C   C2089     1.0  0.33213  0.58268  0.84187  1.0000
  C   C2090     1.0  0.28108  0.55918  0.85926  1.0000
  H   H1665     1.0  0.47287  0.84884  0.78085  1.0000
  H   H1666     1.0  0.47400  0.81426  0.91686  1.0000
  H   H1667     1.0  0.29791  0.85966  0.84792  1.0000
  H   H1668     1.0  0.31297  0.58354  0.92201  1.0000
  H   H1669     1.0  0.32030  0.55178  0.93804  1.0000
  H   H1670     1.0  0.32090  0.52353  0.92079  1.0000
  H   H1671     1.0  0.30681  0.58717  0.88890  1.0000
  H   H1672     1.0  0.34323  0.54018  0.86451  1.0000
  H   H1673     1.0  0.28791  0.59825  0.85869  1.0000
  H   H1674     1.0  0.29822  0.83662  0.70750  1.0000
  C   C2091     1.0  0.34936  0.72788  0.81478  1.0000
  H   H1675     1.0  0.33241  0.79963  0.88120  1.0000
  H   H1676     1.0  0.32169  0.76732  0.71742  1.0000
  H   H1677     1.0  0.47414  0.93588  0.93438  1.0000
  Fe  Fe142     1.0  0.43437  0.97087  0.89414  1.0000
  C   C2092     1.0  0.44264  0.52588  0.96205  1.0000
  H   H1678     1.0  0.42962  0.90638  0.70624  1.0000
  C   C2093     1.0  0.47412  0.89278  0.91825  1.0000
  C   C2094     1.0  0.45752  0.87561  0.66968  1.0000
  C   C2095     1.0  0.43890  0.89800  0.80778  1.0000
  C   C2096     1.0  0.48751  0.84365  0.78126  1.0000
  H   H1679     1.0  0.37890  0.91735  0.67269  1.0000
  C   C2097     1.0  0.48205  0.88977  0.75629  1.0000
  C   C2098     1.0  0.32876  0.58898  0.95970  1.0000
  H   H1680     1.0  0.43415  0.94042  0.65891  1.0000
  C   C2099     1.0  0.39625  0.55624  0.94103  1.0000
  C   C2100     1.0  0.32133  0.60773  0.95912  1.0000
  C   C2101     1.0  0.28571  0.88228  0.87807  1.0000
  C   C2102     1.0  0.38840  0.96272  0.67287  1.0000
  H   H1681     1.0  0.28790  0.83634  0.67569  1.0000
  H   H1682     1.0  0.36582  0.79830  0.88690  1.0000
  H   H1683     1.0  0.45297  0.51949  0.91594  1.0000
  H   H1684     1.0  0.34222  0.58536  0.95208  1.0000
  H   H1685     1.0  0.39892  0.55349  0.92642  1.0000
  H   H1686     1.0  0.44571  0.86992  0.87961  1.0000
  H   H1687     1.0  0.38889  0.93905  0.69373  1.0000
  C   C2103     1.0  0.27002  0.54895  0.87308  1.0000
  C   C2104     1.0  0.38760  0.85168  0.66808  1.0000
  C   C2105     1.0  0.39517  0.57464  0.94603  1.0000
  C   C2106     1.0  0.39400  0.54137  0.95488  1.0000
  H   H1688     1.0  0.47761  0.83294  0.85715  1.0000
  C   C2107     1.0  0.38623  0.94404  0.67947  1.0000
  H   H1689     1.0  0.33441  0.79387  0.76458  1.0000
  C   C2108     1.0  0.36612  0.82840  0.88547  1.0000
  C   C2109     1.0  0.34008  0.87804  0.83858  1.0000
  H   H1690     1.0  0.39113  0.83751  0.72112  1.0000
  H   H1691     1.0  0.36283  0.85844  0.88190  1.0000
  H   H1692     1.0  0.26186  0.61398  0.91801  1.0000
  H   H1693     1.0  0.43690  0.55260  0.97348  1.0000
  C   C2110     1.0  0.47988  0.82437  0.84545  1.0000
  C   C2111     1.0  0.45668  0.89596  0.79791  1.0000
  C   C2112     1.0  0.46431  0.86741  0.81762  1.0000
  C   C2113     1.0  0.33664  0.84670  0.87962  1.0000
  C   C2114     1.0  0.35573  0.84579  0.88249  1.0000
  C   C2115     1.0  0.46412  0.49038  0.89342  1.0000
  C   C2116     1.0  0.30745  0.98321  0.66064  1.0000
  H   H1694     1.0  0.30622  0.84832  0.90801  1.0000
  C   C2117     1.0  0.25187  0.91611  0.68287  1.0000
  H   H1695     1.0  0.34845  0.98068  0.69187  1.0000
  C   C2118     1.0  0.27710  0.85864  0.91044  1.0000
  H   H1696     1.0  0.35399  0.88359  0.81092  1.0000
  S   S283      1.0  0.46330  0.95610  0.89382  1.0000
  C   C2119     1.0  0.27977  0.84486  0.68578  1.0000
  C   C2120     1.0  0.34062  0.92073  0.88000  1.0000
  C   C2121     1.0  0.26307  0.87122  0.90294  1.0000
  C   C2122     1.0  0.29973  0.86929  0.88520  1.0000
  P   P73       1.0  0.32350  0.86906  0.87445  1.0000
  C   C2123     1.0  0.30992  0.86549  0.84001  1.0000
  C   C2124     1.0  0.33345  0.88816  0.88322  1.0000
  C   C2125     1.0  0.34149  0.87891  0.81902  1.0000
  C   C2126     1.0  0.26740  0.88311  0.88682  1.0000
  C   C2127     1.0  0.34106  0.88560  0.90061  1.0000
  C   C2128     1.0  0.33290  0.90598  0.87316  1.0000
  C   C2129     1.0  0.32716  0.87306  0.80992  1.0000
  H   H1697     1.0  0.28896  0.89185  0.86582  1.0000
  H   H1698     1.0  0.34119  0.87214  0.90886  1.0000
  H   H1699     1.0  0.32858  0.87332  0.79474  1.0000
  C   C2130     1.0  0.44695  0.51662  0.94577  1.0000
  C   C2131     1.0  0.46496  0.89160  0.95181  1.0000
  H   H1700     1.0  0.35531  0.92922  0.90187  1.0000
  C   C2132     1.0  0.46775  0.82654  0.90898  1.0000
  C   C2133     1.0  0.46199  0.89388  0.67090  1.0000
  C   C2134     1.0  0.26317  0.93246  0.65346  1.0000
  C   C2135     1.0  0.33075  0.74853  0.74072  1.0000
  H   H1701     1.0  0.32417  0.79615  0.73295  1.0000
  C   C2136     1.0  0.45273  0.82490  0.89856  1.0000
  H   H1702     1.0  0.24179  0.65608  0.84345  1.0000
  C   C2137     1.0  0.31631  0.96552  0.66652  1.0000
  C   C2138     1.0  0.25975  0.86832  0.71110  1.0000
  C   C2139     1.0  0.45205  0.85804  0.88796  1.0000
  C   C2140     1.0  0.29364  0.59864  0.97885  1.0000
  H   H1703     1.0  0.47420  0.85576  0.82183  1.0000
  C   C2141     1.0  0.46717  0.91074  0.95157  1.0000
  C   C2142     1.0  0.24158  0.65840  0.96230  1.0000
  C   C2143     1.0  0.31887  0.57505  0.97007  1.0000
  C   C2144     1.0  0.46738  0.85977  0.89815  1.0000
  H   H1704     1.0  0.27383  0.84963  0.92311  1.0000
  C   C2145     1.0  0.46834  0.88265  0.93522  1.0000
  H   H1705     1.0  0.44619  0.91085  0.89666  1.0000
  C   C2146     1.0  0.24703  0.61200  0.91901  1.0000
  C   C2147     1.0  0.46825  0.89750  0.87819  1.0000
  C   C2148     1.0  0.39303  0.97148  0.96986  1.0000
  H   H1706     1.0  0.29868  0.62722  0.96845  1.0000
  C   C2149     1.0  0.26124  0.62909  0.96043  1.0000
  C   C2150     1.0  0.48360  0.89927  0.73834  1.0000
  C   C2151     1.0  0.47637  0.91198  0.91824  1.0000
  H   H1707     1.0  0.46055  0.90668  0.78695  1.0000
  C   C2152     1.0  0.23946  0.65513  0.98182  1.0000
  H   H1708     1.0  0.43218  0.93145  0.87148  1.0000
  H   H1709     1.0  0.47299  0.89959  0.66121  1.0000
  H   H1710     1.0  0.23923  0.64020  0.90738  1.0000
  C   C2153     1.0  0.47816  0.96892  0.90426  1.0000
  H   H1711     1.0  0.45096  0.49732  0.88932  1.0000
  C   C2154     1.0  0.41720  0.48894  0.98048  1.0000
  H   H1712     1.0  0.46801  0.53825  0.84133  1.0000
  H   H1713     1.0  0.24252  0.53986  0.88175  1.0000
  H   H1714     1.0  0.34585  0.49814  0.82587  1.0000
  H   H1715     1.0  0.47228  0.90663  0.83073  1.0000
  C   C2155     1.0  0.44416  0.92155  0.86808  1.0000
  C   C2156     1.0  0.45233  0.90995  0.88237  1.0000
  H   H1716     1.0  0.48316  0.81684  0.77225  1.0000
  C   C2157     1.0  0.25105  0.54771  0.87107  1.0000
  H   H1717     1.0  0.36036  0.51333  0.84956  1.0000
  H   H1718     1.0  0.25981  0.85634  0.66658  1.0000
  C   C2158     1.0  0.25393  0.56683  0.84147  1.0000
  H   H1719     1.0  0.32478  0.56054  0.97060  1.0000
  C   C2159     1.0  0.25338  0.86759  0.69339  1.0000
  C   C2160     1.0  0.24427  0.90315  0.67312  1.0000
  H   H1720     1.0  0.44493  0.92940  0.83845  1.0000
  H   H1721     1.0  0.25077  0.58295  0.92974  1.0000
  C   C2161     1.0  0.27575  0.85698  0.71624  1.0000
  H   H1722     1.0  0.47090  0.88062  0.76007  1.0000
  H   H1723     1.0  0.48771  0.79323  0.80404  1.0000
  C   C2162     1.0  0.33707  0.98146  0.68302  1.0000
  C   C2163     1.0  0.48546  0.80210  0.81549  1.0000
  H   H1724     1.0  0.26748  0.94052  0.68054  1.0000
  C   C2164     1.0  0.26115  0.93080  0.67305  1.0000
  H   H1725     1.0  0.26978  0.61931  0.95189  1.0000
  H   H1726     1.0  0.25268  0.87790  0.72077  1.0000
  Fe  Fe143     1.0  0.37995  0.48734  0.93001  1.0000
  H   H1727     1.0  0.48372  0.52414  0.98184  1.0000
  C   C2165     1.0  0.25967  0.62598  0.98008  1.0000
  C   C2166     1.0  0.48732  0.49414  0.98063  1.0000
  H   H1728     1.0  0.25458  0.64828  0.93654  1.0000
  H   H1729     1.0  0.45610  0.98257  0.92204  1.0000
  S   S284      1.0  0.32886  0.86094  0.65289  1.0000
  C   C2167     1.0  0.48189  0.58155  0.89385  1.0000
  H   H1730     1.0  0.24234  0.59199  0.87582  1.0000
  S   S285      1.0  0.36162  0.49267  0.90638  1.0000
  C   C2168     1.0  0.38892  0.56338  0.97885  1.0000
  H   H1731     1.0  0.29576  0.98398  0.65217  1.0000
  H   H1732     1.0  0.48694  0.84483  0.91665  1.0000
  C   C2169     1.0  0.38447  0.49224  0.97440  1.0000
  H   H1733     1.0  0.25110  0.91458  0.69804  1.0000
  H   H1734     1.0  0.24100  0.59776  0.96921  1.0000
  H   H1735     1.0  0.48691  0.88604  0.85583  1.0000
  C   C2170     1.0  0.24280  0.58625  0.97998  1.0000
  C   C2171     1.0  0.24077  0.59453  0.92554  1.0000
  S   S286      1.0  0.36723  0.49318  0.95881  1.0000
  H   H1736     1.0  0.35805  0.59282  0.98231  1.0000
  H   H1737     1.0  0.38934  0.53315  0.98430  1.0000
  C   C2172     1.0  0.53741  0.00966  0.15715  1.0000
  H   H1738     1.0  0.58762  0.38638  0.09922  1.0000
  Fe  Fe144     1.0  0.65804  0.09751  0.29992  1.0000
  S   S287      1.0  0.64827  0.12031  0.27745  1.0000
  Fe  Fe145     1.0  0.59747  0.13055  0.18178  1.0000
  S   S288      1.0  0.61210  0.13606  0.15284  1.0000
  S   S289      1.0  0.60992  0.10868  0.20371  1.0000
  Fe  Fe146     1.0  0.56125  0.15348  0.17026  1.0000
  S   S290      1.0  0.57375  0.16127  0.14082  1.0000
  S   S291      1.0  0.53123  0.15976  0.18330  1.0000
  Fe  Fe147     1.0  0.58522  0.13075  0.14184  1.0000
  S   S292      1.0  0.58135  0.11444  0.11714  1.0000
  Fe  Fe148     1.0  0.59983  0.16634  0.15403  1.0000
  S   S293      1.0  0.62174  0.18780  0.14461  1.0000
  S   S294      1.0  0.57149  0.12300  0.17048  1.0000
  S   S295      1.0  0.58643  0.16078  0.18373  1.0000
  Fe  Fe149     1.0  0.58669  0.00502  0.10212  1.0000
  S   S296      1.0  0.59970  0.02570  0.11778  1.0000
  S   S297      1.0  0.56006  0.00931  0.08802  1.0000
  Fe  Fe150     1.0  0.64934  0.29363  0.09675  1.0000
  S   S298      1.0  0.68019  0.28697  0.08826  1.0000
  S   S299      1.0  0.62708  0.27336  0.10893  1.0000
  Fe  Fe151     1.0  0.65151  0.33590  0.08262  1.0000
  S   S300      1.0  0.68242  0.33156  0.07366  1.0000
  S   S301      1.0  0.63699  0.36433  0.07254  1.0000
  Fe  Fe152     1.0  0.67531  0.30574  0.06167  1.0000
  S   S302      1.0  0.68861  0.29991  0.03235  1.0000
  Fe  Fe153     1.0  0.68457  0.31373  0.10090  1.0000
  S   S303      1.0  0.70704  0.31405  0.12145  1.0000
  S   S304      1.0  0.64437  0.31077  0.06925  1.0000
  S   S305      1.0  0.65379  0.31951  0.11079  1.0000
  H   H1739     1.0  0.61754  0.43754  0.01235  1.0000
  H   H1740     1.0  0.55146  0.45594  0.04024  1.0000
  C   C2173     1.0  0.56107  0.37907  0.09163  1.0000
  C   C2174     1.0  0.60113  0.18641  0.24186  1.0000
  H   H1741     1.0  0.60486  0.10326  0.31577  1.0000
  C   C2175     1.0  0.52838  0.01588  0.17384  1.0000
  Fe  Fe154     1.0  0.59788  0.46439  0.09575  1.0000
  S   S306      1.0  0.60588  0.43733  0.11350  1.0000
  S   S307      1.0  0.57827  0.46621  0.07317  1.0000
  H   H1742     1.0  0.70193  0.30010  0.99327  1.0000
  H   H1743     1.0  0.55167  0.33431  0.08669  1.0000
  C   C2176     1.0  0.58455  0.00700  0.29651  1.0000
  H   H1744     1.0  0.52194  0.44186  0.00347  1.0000
  C   C2177     1.0  0.64780  0.30881  0.99604  1.0000
  C   C2178     1.0  0.50151  0.98737  0.06866  1.0000
  C   C2179     1.0  0.56111  0.43090  0.14260  1.0000
  H   H1745     1.0  0.71988  0.34788  0.09902  1.0000
  H   H1746     1.0  0.71015  0.98970  0.02311  1.0000
  H   H1747     1.0  0.55346  0.01856  0.25014  1.0000
  C   C2180     1.0  0.67659  0.30411  0.01170  1.0000
  C   C2181     1.0  0.65704  0.30767  0.01252  1.0000
  H   H1748     1.0  0.49326  0.44637  0.05815  1.0000
  C   C2182     1.0  0.63888  0.03804  0.22963  1.0000
  H   H1749     1.0  0.64897  0.30877  0.02594  1.0000
  C   C2183     1.0  0.64865  0.04365  0.24360  1.0000
  C   C2184     1.0  0.62952  0.38456  0.08450  1.0000
  C   C2185     1.0  0.62349  0.40116  0.07389  1.0000
  C   C2186     1.0  0.61642  0.41742  0.08261  1.0000
  C   C2187     1.0  0.61520  0.41722  0.10212  1.0000
  C   C2188     1.0  0.62144  0.40069  0.11278  1.0000
  C   C2189     1.0  0.62869  0.38442  0.10402  1.0000
  H   H1750     1.0  0.62409  0.40134  0.05881  1.0000
  H   H1751     1.0  0.61163  0.43003  0.07426  1.0000
  H   H1752     1.0  0.62052  0.40046  0.12788  1.0000
  H   H1753     1.0  0.63330  0.37174  0.11236  1.0000
  H   H1754     1.0  0.50430  0.44939  0.09181  1.0000
  H   H1755     1.0  0.52190  0.43729  0.03772  1.0000
  C   C2190     1.0  0.57425  0.43308  0.98985  1.0000
  H   H1756     1.0  0.64713  0.16370  0.99603  1.0000
  C   C2191     1.0  0.60191  0.11716  0.30881  1.0000
  H   H1757     1.0  0.72424  0.39911  0.09706  1.0000
  C   C2192     1.0  0.64047  0.41821  0.00193  1.0000
  C   C2193     1.0  0.62291  0.21177  0.13510  1.0000
  C   C2194     1.0  0.60701  0.22463  0.13406  1.0000
  C   C2195     1.0  0.60863  0.24331  0.12617  1.0000
  C   C2196     1.0  0.62622  0.24969  0.11953  1.0000
  C   C2197     1.0  0.64223  0.23694  0.12098  1.0000
  C   C2198     1.0  0.64054  0.21814  0.12858  1.0000
  H   H1758     1.0  0.59344  0.22021  0.13949  1.0000
  H   H1759     1.0  0.59611  0.25295  0.12527  1.0000
  H   H1760     1.0  0.65589  0.24149  0.11605  1.0000
  H   H1761     1.0  0.65303  0.20847  0.12944  1.0000
  C   C2199     1.0  0.58603  0.08970  0.11778  1.0000
  C   C2200     1.0  0.59848  0.07989  0.12977  1.0000
  C   C2201     1.0  0.60245  0.06032  0.12951  1.0000
  C   C2202     1.0  0.59385  0.05029  0.11751  1.0000
  C   C2203     1.0  0.58115  0.06003  0.10568  1.0000
  C   C2204     1.0  0.57743  0.07970  0.10568  1.0000
  H   H1762     1.0  0.60528  0.08746  0.13899  1.0000
  H   H1763     1.0  0.61236  0.05289  0.13860  1.0000
  H   H1764     1.0  0.57441  0.05247  0.09639  1.0000
  H   H1765     1.0  0.56779  0.08720  0.09634  1.0000
  C   C2205     1.0  0.65332  0.44294  0.10123  1.0000
  C   C2206     1.0  0.51061  0.15722  0.17242  1.0000
  C   C2207     1.0  0.51080  0.15728  0.15296  1.0000
  C   C2208     1.0  0.65204  0.14546  0.19383  1.0000
  H   H1766     1.0  0.52387  0.15839  0.14422  1.0000
  C   C2209     1.0  0.63601  0.11650  0.25810  1.0000
  C   C2210     1.0  0.62724  0.13205  0.24780  1.0000
  C   C2211     1.0  0.61886  0.12985  0.23136  1.0000
  C   C2212     1.0  0.61925  0.11208  0.22495  1.0000
  C   C2213     1.0  0.62728  0.09642  0.23568  1.0000
  C   C2214     1.0  0.63558  0.09858  0.25219  1.0000
  H   H1767     1.0  0.62707  0.14590  0.25249  1.0000
  H   H1768     1.0  0.61233  0.14191  0.22348  1.0000
  H   H1769     1.0  0.62737  0.08256  0.23101  1.0000
  H   H1770     1.0  0.64211  0.08648  0.26007  1.0000
  C   C2215     1.0  0.55682  0.03165  0.24230  1.0000
  C   C2216     1.0  0.64616  0.37329  0.15392  1.0000
  C   C2217     1.0  0.65175  0.35416  0.15304  1.0000
  C   C2218     1.0  0.66831  0.34850  0.14239  1.0000
  C   C2219     1.0  0.67911  0.36192  0.13237  1.0000
  C   C2220     1.0  0.67367  0.38115  0.13323  1.0000
  C   C2221     1.0  0.65714  0.38676  0.14418  1.0000
  P   P74       1.0  0.68827  0.39828  0.12085  1.0000
  C   C2222     1.0  0.70832  0.40056  0.13345  1.0000
  C   C2223     1.0  0.69591  0.39101  0.09777  1.0000
  C   C2224     1.0  0.59686  0.39927  0.99490  1.0000
  H   H1771     1.0  0.67890  0.37271  0.06169  1.0000
  C   C2225     1.0  0.65724  0.13735  0.16178  1.0000
  S   S308      1.0  0.61127  0.47573  0.02670  1.0000
  H   H1772     1.0  0.55424  0.44213  0.09685  1.0000
  C   C2226     1.0  0.71798  0.41680  0.12987  1.0000
  H   H1773     1.0  0.64406  0.99036  0.05819  1.0000
  H   H1774     1.0  0.53255  0.46708  0.08922  1.0000
  C   C2227     1.0  0.63221  0.00937  0.24923  1.0000
  H   H1775     1.0  0.61279  0.20775  0.00277  1.0000
  C   C2228     1.0  0.67449  0.42073  0.11842  1.0000
  C   C2229     1.0  0.67328  0.43303  0.13259  1.0000
  C   C2230     1.0  0.66229  0.45024  0.13095  1.0000
  C   C2231     1.0  0.60496  0.41547  0.98669  1.0000
  H   H1776     1.0  0.55949  0.45694  0.12493  1.0000
  C   C2232     1.0  0.55096  0.43256  0.06154  1.0000
  Fe  Fe155     1.0  0.60026  0.48168  0.05575  1.0000
  H   H1777     1.0  0.64329  0.34371  0.16060  1.0000
  H   H1778     1.0  0.67284  0.33368  0.14181  1.0000
  H   H1779     1.0  0.69179  0.35725  0.12407  1.0000
  H   H1780     1.0  0.65252  0.40148  0.14510  1.0000
  H   H1781     1.0  0.65716  0.03699  0.27145  1.0000
  H   H1782     1.0  0.63264  0.31084  0.99695  1.0000
  C   C2233     1.0  0.66422  0.42576  0.10283  1.0000
  C   C2234     1.0  0.65533  0.18893  0.00551  1.0000
  H   H1783     1.0  0.64227  0.00729  0.27682  1.0000
  C   C2235     1.0  0.58605  0.99235  0.31075  1.0000
  H   H1784     1.0  0.53779  0.43806  0.06856  1.0000
  H   H1785     1.0  0.55637  0.01201  0.99943  1.0000
  C   C2236     1.0  0.53297  0.06205  0.06792  1.0000
  H   H1786     1.0  0.68058  0.42922  0.14506  1.0000
  H   H1787     1.0  0.66123  0.45960  0.14197  1.0000
  C   C2237     1.0  0.63066  0.02100  0.23240  1.0000
  C   C2238     1.0  0.57528  0.99253  0.01477  1.0000
  H   H1788     1.0  0.66151  0.03330  0.99319  1.0000
  H   H1789     1.0  0.59716  0.16600  0.06575  1.0000
  C   C2239     1.0  0.56052  0.41579  0.06881  1.0000
  C   C2240     1.0  0.64990  0.03242  0.26049  1.0000
  C   C2241     1.0  0.58739  0.12100  0.29697  1.0000
  H   H1790     1.0  0.63818  0.20349  0.17669  1.0000
  C   C2242     1.0  0.55098  0.36422  0.08821  1.0000
  C   C2243     1.0  0.73471  0.32646  0.13981  1.0000
  C   C2244     1.0  0.68033  0.99004  0.30224  1.0000
  C   C2245     1.0  0.68681  0.30282  0.99407  1.0000
  C   C2246     1.0  0.57529  0.48627  0.01780  1.0000
  C   C2247     1.0  0.59504  0.15343  0.29127  1.0000
  C   C2248     1.0  0.50289  0.46443  0.08866  1.0000
  C   C2249     1.0  0.50287  0.05183  0.08138  1.0000
  H   H1791     1.0  0.51794  0.41227  0.11692  1.0000
  H   H1792     1.0  0.55472  0.02166  0.21557  1.0000
  C   C2250     1.0  0.66233  0.16854  0.16907  1.0000
  H   H1793     1.0  0.65953  0.18200  0.01871  1.0000
  H   H1794     1.0  0.63889  0.37762  1.00000  1.0000
  H   H1795     1.0  0.60637  0.02840  0.00907  1.0000
  C   C2251     1.0  0.51299  0.40973  0.10377  1.0000
  H   H1796     1.0  0.58469  0.32776  0.09453  1.0000
  H   H1797     1.0  0.65875  0.15364  0.23966  1.0000
  H   H1798     1.0  0.49607  0.19877  0.16021  1.0000
  H   H1799     1.0  0.62596  0.20894  0.03281  1.0000
  H   H1800     1.0  0.49394  0.40258  0.05671  1.0000
  C   C2252     1.0  0.65097  0.26569  0.02918  1.0000
  H   H1801     1.0  0.73394  0.38983  0.06539  1.0000
  H   H1802     1.0  0.71137  0.37666  0.04740  1.0000
  H   H1803     1.0  0.61746  0.19227  0.26373  1.0000
  C   C2253     1.0  0.66264  0.24091  0.17987  1.0000
  C   C2254     1.0  0.70706  0.38078  0.06137  1.0000
  C   C2255     1.0  0.71974  0.38820  0.07146  1.0000
  C   C2256     1.0  0.63848  0.43175  0.03177  1.0000
  H   H1804     1.0  0.66137  0.42334  0.04878  1.0000
  C   C2257     1.0  0.61877  0.17984  0.21236  1.0000
  H   H1805     1.0  0.67741  0.20521  0.05284  1.0000
  C   C2258     1.0  0.60039  0.20256  0.04990  1.0000
  C   C2259     1.0  0.50930  0.44315  0.03152  1.0000
  C   C2260     1.0  0.61781  0.18873  0.24941  1.0000
  C   C2261     1.0  0.55869  0.44189  0.12574  1.0000
  H   H1806     1.0  0.60602  0.25415  0.03230  1.0000
  C   C2262     1.0  0.63496  0.18662  0.23845  1.0000
  C   C2263     1.0  0.67393  0.23331  0.19397  1.0000
  H   H1807     1.0  0.58863  0.18070  0.21738  1.0000
  H   H1808     1.0  0.66368  0.25525  0.17378  1.0000
  H   H1809     1.0  0.68364  0.24186  0.19893  1.0000
  C   C2264     1.0  0.67255  0.21480  0.20180  1.0000
  H   H1810     1.0  0.69842  0.18107  0.19971  1.0000
  C   C2265     1.0  0.56841  0.21442  0.11429  1.0000
  C   C2266     1.0  0.56183  0.23295  0.10893  1.0000
  C   C2267     1.0  0.58330  0.20538  0.10357  1.0000
  C   C2268     1.0  0.63261  0.23135  0.07625  1.0000
  C   C2269     1.0  0.64963  0.23953  0.07406  1.0000
  H   H1811     1.0  0.56229  0.20714  0.12703  1.0000
  H   H1812     1.0  0.55059  0.24005  0.11752  1.0000
  H   H1813     1.0  0.58830  0.19114  0.10829  1.0000
  H   H1814     1.0  0.62056  0.23875  0.08336  1.0000
  H   H1815     1.0  0.65038  0.25307  0.07927  1.0000
  C   C2270     1.0  0.63247  0.26386  0.03658  1.0000
  H   H1816     1.0  0.62761  0.26875  0.05017  1.0000
  H   H1817     1.0  0.66041  0.27193  0.03708  1.0000
  C   C2271     1.0  0.60624  0.16398  0.07698  1.0000
  H   H1818     1.0  0.50438  0.03174  0.01896  1.0000
  H   H1819     1.0  0.65705  0.12726  0.15160  1.0000
  C   C2272     1.0  0.66571  0.23022  0.06546  1.0000
  C   C2273     1.0  0.60903  0.14603  0.08633  1.0000
  C   C2274     1.0  0.59394  0.48118  0.01128  1.0000
  H   H1820     1.0  0.64798  0.11841  0.18530  1.0000
  C   C2275     1.0  0.66014  0.20362  0.19523  1.0000
  C   C2276     1.0  0.62023  0.14297  0.10128  1.0000
  H   H1821     1.0  0.63701  0.15566  0.11882  1.0000
  C   C2277     1.0  0.60160  0.18216  0.22330  1.0000
  C   C2278     1.0  0.55530  0.41392  0.11046  1.0000
  H   H1822     1.0  0.68096  0.20941  0.21311  1.0000
  C   C2279     1.0  0.55456  0.01619  0.14996  1.0000
  H   H1823     1.0  0.71750  0.14438  0.24619  1.0000
  C   C2280     1.0  0.57778  0.40932  0.05958  1.0000
  C   C2281     1.0  0.53655  0.02858  0.18335  1.0000
  C   C2282     1.0  0.55415  0.03466  0.17655  1.0000
  C   C2283     1.0  0.56286  0.02868  0.15953  1.0000
  P   P75       1.0  0.56346  0.05302  0.18722  1.0000
  C   C2284     1.0  0.58845  0.05292  0.18141  1.0000
  C   C2285     1.0  0.55117  0.07446  0.17769  1.0000
  C   C2286     1.0  0.55357  0.07952  0.15832  1.0000
  C   C2287     1.0  0.54337  0.09542  0.15038  1.0000
  C   C2288     1.0  0.53066  0.10637  0.16171  1.0000
  C   C2289     1.0  0.52803  0.10137  0.18099  1.0000
  C   C2290     1.0  0.53811  0.08535  0.18897  1.0000
  C   C2291     1.0  0.59980  0.03581  0.18128  1.0000
  C   C2292     1.0  0.61932  0.03568  0.17799  1.0000
  C   C2293     1.0  0.62765  0.05262  0.17524  1.0000
  C   C2294     1.0  0.61647  0.06967  0.17579  1.0000
  C   C2295     1.0  0.59694  0.06984  0.17887  1.0000
  C   C2296     1.0  0.56137  0.05058  0.21252  1.0000
  C   C2297     1.0  0.55727  0.03355  0.22271  1.0000
  H   H1824     1.0  0.51477  0.01129  0.17906  1.0000
  C   C2298     1.0  0.64977  0.23010  0.17376  1.0000
  C   C2299     1.0  0.56532  0.06345  0.24169  1.0000
  C   C2300     1.0  0.56579  0.06539  0.22215  1.0000
  C   C2301     1.0  0.50829  0.99219  0.99577  1.0000
  H   H1825     1.0  0.56484  0.25675  0.08852  1.0000
  H   H1826     1.0  0.52893  0.03404  0.19571  1.0000
  H   H1827     1.0  0.57579  0.03407  0.15323  1.0000
  H   H1828     1.0  0.56329  0.07113  0.14932  1.0000
  H   H1829     1.0  0.54560  0.09946  0.13545  1.0000
  H   H1830     1.0  0.52303  0.11889  0.15558  1.0000
  H   H1831     1.0  0.68996  0.22323  0.98926  1.0000
  H   H1832     1.0  0.53551  0.08153  0.20385  1.0000
  H   H1833     1.0  0.59357  0.02258  0.18366  1.0000
  H   H1834     1.0  0.62798  0.02247  0.17744  1.0000
  H   H1835     1.0  0.64276  0.05257  0.17262  1.0000
  H   H1836     1.0  0.62288  0.08284  0.17385  1.0000
  H   H1837     1.0  0.58856  0.08321  0.17949  1.0000
  P   P76       1.0  0.55068  0.40312  0.08997  1.0000
  H   H1838     1.0  0.65189  0.34735  0.98867  1.0000
  C   C2302     1.0  0.65210  0.13237  0.18073  1.0000
  H   H1839     1.0  0.56859  0.07501  0.24894  1.0000
  H   H1840     1.0  0.56979  0.07841  0.21453  1.0000
  C   C2303     1.0  0.50734  0.03482  0.07323  1.0000
  H   H1841     1.0  0.58782  0.18812  0.25030  1.0000
  C   C2304     1.0  0.72426  0.32969  0.12408  1.0000
  C   C2305     1.0  0.59154  0.21475  0.08717  1.0000
  P   P77       1.0  0.65759  0.17994  0.20555  1.0000
  C   C2306     1.0  0.67472  0.47940  0.99497  1.0000
  C   C2307     1.0  0.49122  0.09319  0.12994  1.0000
  H   H1842     1.0  0.60254  0.35387  0.10066  1.0000
  H   H1843     1.0  0.49743  0.02426  0.07498  1.0000
  S   S309      1.0  0.56827  0.00259  0.03628  1.0000
  H   H1844     1.0  0.50617  0.99136  0.05420  1.0000
  H   H1845     1.0  0.64837  0.14128  0.20848  1.0000
  C   C2308     1.0  0.69104  0.02588  0.99481  1.0000
  H   H1846     1.0  0.64075  0.23609  0.16307  1.0000
  C   C2309     1.0  0.68884  0.37844  0.06942  1.0000
  C   C2310     1.0  0.58384  0.13934  0.28845  1.0000
  C   C2311     1.0  0.64841  0.21159  0.18149  1.0000
  H   H1847     1.0  0.61890  0.17677  0.19791  1.0000
  H   H1848     1.0  0.67912  0.40365  0.02530  1.0000
  H   H1849     1.0  0.49637  0.99894  0.02340  1.0000
  H   H1850     1.0  0.53095  0.00015  0.14948  1.0000
  C   C2312     1.0  0.63090  0.42987  0.01500  1.0000
  H   H1851     1.0  0.63759  0.04699  0.21669  1.0000
  C   C2313     1.0  0.65726  0.25996  0.01143  1.0000
  P   P78       1.0  0.60971  0.20278  0.07227  1.0000
  H   H1852     1.0  0.66224  0.21595  0.01140  1.0000
  H   H1853     1.0  0.64745  0.19048  0.05678  1.0000
  C   C2314     1.0  0.65576  0.42217  0.03557  1.0000
  C   C2315     1.0  0.66571  0.41105  0.02235  1.0000
  C   C2316     1.0  0.50346  0.00412  0.01016  1.0000
  H   H1854     1.0  0.66657  0.18234  0.16420  1.0000
  C   C2317     1.0  0.51860  0.40162  0.07167  1.0000
  H   H1855     1.0  0.62297  0.01727  0.22143  1.0000
  H   H1856     1.0  0.57265  0.19657  0.06231  1.0000
  C   C2318     1.0  0.63561  0.18157  0.22003  1.0000
  H   H1857     1.0  0.56377  0.43747  0.15485  1.0000
  H   H1858     1.0  0.59042  0.24057  0.06888  1.0000
  C   C2319     1.0  0.55732  0.40300  0.12758  1.0000
  H   H1859     1.0  0.63086  0.44058  0.04193  1.0000
  C   C2320     1.0  0.58156  0.19913  0.04940  1.0000
  H   H1860     1.0  0.64401  0.05878  0.05921  1.0000
  C   C2321     1.0  0.61156  0.20588  0.03294  1.0000
  C   C2322     1.0  0.64786  0.20430  0.06143  1.0000
  C   C2323     1.0  0.57803  0.34202  0.09380  1.0000
  C   C2324     1.0  0.66485  0.21256  0.05920  1.0000
  H   H1861     1.0  0.64771  0.18887  0.24437  1.0000
  C   C2325     1.0  0.59496  0.00544  0.27914  1.0000
  C   C2326     1.0  0.57960  0.37513  0.09644  1.0000
  C   C2327     1.0  0.54354  0.08653  0.31591  1.0000
  C   C2328     1.0  0.59940  0.05292  0.31368  1.0000
  H   H1862     1.0  0.57240  0.14281  0.27967  1.0000
  H   H1863     1.0  0.50489  0.06819  0.11877  1.0000
  H   H1864     1.0  0.56126  0.01205  0.13664  1.0000
  H   H1865     1.0  0.66624  0.40072  0.99536  1.0000
  H   H1866     1.0  0.63328  0.37770  0.16213  1.0000
  H   H1867     1.0  0.57145  0.38743  0.00676  1.0000
  C   C2329     1.0  0.63224  0.02318  0.03591  1.0000
  H   H1868     1.0  0.72433  0.16565  0.21743  1.0000
  C   C2330     1.0  0.51896  0.47441  0.08721  1.0000
  C   C2331     1.0  0.70478  0.01364  0.00321  1.0000
  H   H1869     1.0  0.58223  0.44461  0.02467  1.0000
  C   C2332     1.0  0.72787  0.34504  0.11108  1.0000
  S   S310      1.0  0.60256  0.98913  0.07919  1.0000
  C   C2333     1.0  0.64305  0.03665  0.04124  1.0000
  C   C2334     1.0  0.63556  0.04861  0.05489  1.0000
  C   C2335     1.0  0.61728  0.04725  0.06326  1.0000
  C   C2336     1.0  0.60641  0.03403  0.05789  1.0000
  C   C2337     1.0  0.61391  0.02195  0.04440  1.0000
  C   C2338     1.0  0.58848  0.07017  0.31248  1.0000
  C   C2339     1.0  0.49371  0.41256  0.10188  1.0000
  H   H1870     1.0  0.56227  0.40297  0.15662  1.0000
  C   C2340     1.0  0.67111  0.00777  0.30561  1.0000
  C   C2341     1.0  0.69950  0.99920  0.01660  1.0000
  C   C2342     1.0  0.49930  0.40439  0.06988  1.0000
  C   C2343     1.0  0.60683  0.98910  0.27584  1.0000
  H   H1871     1.0  0.59244  0.16744  0.28447  1.0000
  C   C2344     1.0  0.73357  0.41865  0.13944  1.0000
  H   H1872     1.0  0.49308  0.15602  0.19857  1.0000
  H   H1873     1.0  0.60536  0.38613  0.99734  1.0000
  C   C2345     1.0  0.60410  0.20537  0.01581  1.0000
  C   C2346     1.0  0.49342  0.15593  0.18353  1.0000
  C   C2347     1.0  0.52561  0.40444  0.08859  1.0000
  C   C2348     1.0  0.65267  0.00884  0.31398  1.0000
  C   C2349     1.0  0.59884  0.47987  0.99220  1.0000
  H   H1874     1.0  0.65732  0.03778  0.03519  1.0000
  S   S311      1.0  0.68716  0.08253  0.30019  1.0000
  H   H1875     1.0  0.61377  0.05050  0.26745  1.0000
  H   H1876     1.0  0.59229  0.03282  0.06449  1.0000
  H   H1877     1.0  0.60548  0.01143  0.04071  1.0000
  Fe  Fe156     1.0  0.57515  0.99149  0.06596  1.0000
  H   H1878     1.0  0.57967  0.20132  0.00217  1.0000
  C   C2350     1.0  0.50918  0.44568  0.01203  1.0000
  H   H1879     1.0  0.61159  0.05625  0.07411  1.0000
  H   H1880     1.0  0.64509  0.44641  0.08940  1.0000
  C   C2351     1.0  0.66661  0.00916  0.01316  1.0000
  H   H1881     1.0  0.70791  0.37324  0.14934  1.0000
  C   C2352     1.0  0.60648  0.05581  0.28000  1.0000
  C   C2353     1.0  0.59580  0.07319  0.27878  1.0000
  C   C2354     1.0  0.58634  0.08033  0.29497  1.0000
  C   C2355     1.0  0.63029  0.01044  0.99804  1.0000
  P   P79       1.0  0.57268  0.10291  0.29362  1.0000
  C   C2356     1.0  0.58808  0.35672  0.09736  1.0000
  H   H1882     1.0  0.52811  0.39768  0.05976  1.0000
  H   H1883     1.0  0.69457  0.98909  0.29571  1.0000
  C   C2357     1.0  0.56079  0.04663  0.25179  1.0000
  C   C2358     1.0  0.62665  0.24964  0.00889  1.0000
  H   H1884     1.0  0.72622  0.34001  0.06120  1.0000
  H   H1885     1.0  0.51827  0.11007  0.18969  1.0000
  C   C2359     1.0  0.73714  0.13509  0.31280  1.0000
  C   C2360     1.0  0.70612  0.15141  0.23860  1.0000
  H   H1886     1.0  0.58561  0.39654  0.06471  1.0000
  C   C2361     1.0  0.56338  0.10782  0.27099  1.0000
  C   C2362     1.0  0.57510  0.11408  0.25527  1.0000
  C   C2363     1.0  0.56799  0.11856  0.23783  1.0000
  C   C2364     1.0  0.54916  0.11675  0.23587  1.0000
  C   C2365     1.0  0.53741  0.11042  0.25139  1.0000
  C   C2366     1.0  0.54444  0.10600  0.26890  1.0000
  C   C2367     1.0  0.68760  0.14810  0.24476  1.0000
  H   H1887     1.0  0.56048  0.04520  0.26696  1.0000
  C   C2368     1.0  0.51568  0.06560  0.07837  1.0000
  H   H1888     1.0  0.59534  0.08111  0.26524  1.0000
  C   C2369     1.0  0.50805  0.02271  0.00770  1.0000
  C   C2370     1.0  0.70994  0.16343  0.22244  1.0000
  C   C2371     1.0  0.57595  0.43635  0.03665  1.0000
  C   C2372     1.0  0.71464  0.38615  0.14663  1.0000
  H   H1889     1.0  0.55654  0.38796  0.12867  1.0000
  C   C2373     1.0  0.49396  0.15640  0.14475  1.0000
  C   C2374     1.0  0.56716  0.00043  0.99848  1.0000
  C   C2375     1.0  0.65690  0.16371  0.18810  1.0000
  H   H1890     1.0  0.51230  0.07916  0.08380  1.0000
  H   H1891     1.0  0.58971  0.11567  0.25656  1.0000
  H   H1892     1.0  0.57706  0.12362  0.22582  1.0000
  H   H1893     1.0  0.54368  0.12050  0.22236  1.0000
  H   H1894     1.0  0.52274  0.10922  0.24990  1.0000
  H   H1895     1.0  0.53496  0.10144  0.28073  1.0000
  C   C2376     1.0  0.67652  0.16954  0.21901  1.0000
  H   H1896     1.0  0.66599  0.15943  0.14124  1.0000
  C   C2377     1.0  0.52448  0.03145  0.06251  1.0000
  C   C2378     1.0  0.53734  0.04499  0.05995  1.0000
  H   H1897     1.0  0.61715  0.24322  0.00127  1.0000
  C   C2379     1.0  0.58542  0.41958  0.04359  1.0000
  C   C2380     1.0  0.66231  0.15544  0.15595  1.0000
  H   H1898     1.0  0.65509  0.05681  0.24147  1.0000
  H   H1899     1.0  0.52790  0.01826  0.05623  1.0000
  H   H1900     1.0  0.55070  0.04216  0.05180  1.0000
  C   C2381     1.0  0.55859  0.44270  0.04543  1.0000
  H   H1901     1.0  0.59889  0.41466  0.03681  1.0000
  C   C2382     1.0  0.67289  0.15697  0.23493  1.0000
  H   H1902     1.0  0.60203  0.13451  0.08242  1.0000
  C   C2383     1.0  0.65823  0.40927  0.00547  1.0000
  H   H1903     1.0  0.62183  0.12914  0.10884  1.0000
  C   C2384     1.0  0.55586  0.43342  0.10974  1.0000
  C   C2385     1.0  0.64510  0.25192  0.00111  1.0000
  H   H1904     1.0  0.67886  0.23664  0.06389  1.0000
  H   H1905     1.0  0.59401  0.01708  0.26837  1.0000
  C   C2386     1.0  0.57414  0.19869  0.03225  1.0000
  C   C2387     1.0  0.56987  0.24234  0.09260  1.0000
  C   C2388     1.0  0.58542  0.20176  0.01546  1.0000
  C   C2389     1.0  0.58449  0.23320  0.08162  1.0000
  C   C2390     1.0  0.62878  0.15785  0.10686  1.0000
  C   C2391     1.0  0.62032  0.25573  0.02648  1.0000
  C   C2392     1.0  0.61465  0.17906  0.08263  1.0000
  C   C2393     1.0  0.62601  0.17582  0.09759  1.0000
  C   C2394     1.0  0.65230  0.45520  0.11526  1.0000
  C   C2395     1.0  0.63152  0.21376  0.06972  1.0000
  H   H1906     1.0  0.63218  0.18732  0.10258  1.0000
  H   H1907     1.0  0.55965  0.19586  0.03200  1.0000
  C   C2396     1.0  0.56627  0.41686  0.99781  1.0000
  C   C2397     1.0  0.69521  0.17231  0.21254  1.0000
  H   H1908     1.0  0.73207  0.31467  0.15000  1.0000
  H   H1909     1.0  0.66929  0.38098  0.09377  1.0000
  H   H1910     1.0  0.68455  0.13841  0.25703  1.0000
  H   H1911     1.0  0.54294  0.07258  0.06585  1.0000
  C   C2398     1.0  0.68339  0.38320  0.08766  1.0000
  H   H1912     1.0  0.61715  0.03252  0.29846  1.0000
  S   S312      1.0  0.64369  0.07108  0.30688  1.0000
  C   C2399     1.0  0.49271  0.45296  0.00390  1.0000
  S   S313      1.0  0.68283  0.02826  0.29862  1.0000
  H   H1913     1.0  0.57979  0.98827  0.25185  1.0000
  C   C2400     1.0  0.56037  0.41147  0.14354  1.0000
  H   H1914     1.0  0.53661  0.36677  0.08475  1.0000
  H   H1915     1.0  0.66414  0.41637  0.09204  1.0000
  H   H1916     1.0  0.64339  0.46830  0.11414  1.0000
  C   C2401     1.0  0.71416  0.39344  0.08953  1.0000
  H   H1917     1.0  0.71356  0.42795  0.11955  1.0000
  C   C2402     1.0  0.55946  0.34575  0.08932  1.0000
  C   C2403     1.0  0.64155  0.01549  0.26340  1.0000
  H   H1918     1.0  0.55138  0.41745  0.00218  1.0000
  H   H1919     1.0  0.49536  0.20075  0.12575  1.0000
  C   C2404     1.0  0.57758  0.39996  0.00033  1.0000
  H   H1920     1.0  0.72363  0.12970  0.31245  1.0000
  C   C2405     1.0  0.67202  0.02368  0.99978  1.0000
  C   C2406     1.0  0.73019  0.38811  0.15621  1.0000
  H   H1921     1.0  0.54704  0.07448  0.30791  1.0000
  S   S314      1.0  0.62056  0.47789  0.07738  1.0000
  H   H1922     1.0  0.68211  0.46570  0.99801  1.0000
  C   C2407     1.0  0.60832  0.04568  0.29743  1.0000
  C   C2408     1.0  0.51768  0.02948  0.99093  1.0000
  H   H1923     1.0  0.67157  0.26193  0.00589  1.0000
  C   C2409     1.0  0.61327  0.02185  0.99705  1.0000
  H   H1924     1.0  0.56562  0.44632  0.98814  1.0000
  C   C2410     1.0  0.64834  0.17862  0.99276  1.0000
  H   H1925     1.0  0.73067  0.30883  0.07893  1.0000
  P   P80       1.0  0.64200  0.00657  0.01940  1.0000
  H   H1926     1.0  0.50242  0.09472  0.13849  1.0000
  C   C2411     1.0  0.49316  0.44819  0.04303  1.0000
  H   H1927     1.0  0.61845  0.16022  0.30501  1.0000
  Fe  Fe157     1.0  0.67244  0.05647  0.30977  1.0000
  H   H1928     1.0  0.49446  0.00158  0.13870  1.0000
  H   H1929     1.0  0.50291  0.02710  0.11487  1.0000
  H   H1930     1.0  0.57566  0.01975  0.29914  1.0000
  C   C2412     1.0  0.68049  0.99695  0.02159  1.0000
  H   H1931     1.0  0.64738  0.47002  0.00384  1.0000
  C   C2413     1.0  0.65692  0.20816  0.00126  1.0000
  H   H1932     1.0  0.49422  0.15685  0.12966  1.0000
  H   H1933     1.0  0.72573  0.16395  0.31268  1.0000
  C   C2414     1.0  0.49262  0.07828  0.11863  1.0000
  C   C2415     1.0  0.55364  0.10245  0.31203  1.0000
  C   C2416     1.0  0.64201  0.37671  0.98505  1.0000
  C   C2417     1.0  0.73834  0.15436  0.31307  1.0000
  H   H1934     1.0  0.52148  0.04379  0.98912  1.0000
  P   P81       1.0  0.62085  0.98773  0.25365  1.0000
  C   C2418     1.0  0.61285  0.13138  0.31184  1.0000
  C   C2419     1.0  0.65519  0.48179  0.99817  1.0000
  H   H1935     1.0  0.61321  0.47583  0.98711  1.0000
  C   C2420     1.0  0.60960  0.14942  0.30291  1.0000
  H   H1936     1.0  0.73538  0.37672  0.16594  1.0000
  H   H1937     1.0  0.64545  0.02238  0.31675  1.0000
  H   H1938     1.0  0.71951  0.01533  0.99933  1.0000
  C   C2421     1.0  0.49417  0.14964  0.47552  1.0000
  C   C2422     1.0  0.71802  0.13062  0.58022  1.0000
  S   S315      1.0  0.71740  0.10323  0.62967  1.0000
  C   C2423     1.0  0.49894  0.01593  0.50374  1.0000
  S   S316      1.0  0.62100  0.10637  0.62789  1.0000
  Fe  Fe158     1.0  0.52498  0.07131  0.59826  1.0000
  S   S317      1.0  0.52351  0.06187  0.56957  1.0000
  S   S318      1.0  0.55009  0.06301  0.61572  1.0000
  H   H1939     1.0  0.57656  0.99305  0.60082  1.0000
  H   H1940     1.0  0.58147  0.05291  0.63760  1.0000
  Fe  Fe159     1.0  0.50663  0.08927  0.56302  1.0000
  S   S319      1.0  0.51345  0.10323  0.53359  1.0000
  Fe  Fe160     1.0  0.64417  0.07696  0.33688  1.0000
  S   S320      1.0  0.61963  0.06663  0.35659  1.0000
  Fe  Fe161     1.0  0.68576  0.08780  0.33081  1.0000
  S   S321      1.0  0.71395  0.09208  0.34275  1.0000
  C   C2424     1.0  0.53951  0.05706  0.51783  1.0000
  H   H1941     1.0  0.58033  0.10592  0.51752  1.0000
  C   C2425     1.0  0.58756  0.08010  0.53436  1.0000
  S   S322      1.0  0.67241  0.06074  0.34014  1.0000
  H   H1942     1.0  0.57833  0.99371  0.32437  1.0000
  C   C2426     1.0  0.55481  0.00368  0.58308  1.0000
  H   H1943     1.0  0.55671  0.13006  0.32049  1.0000
  C   C2427     1.0  0.51323  0.15104  0.46993  1.0000
  H   H1944     1.0  0.51678  0.03982  0.52474  1.0000
  C   C2428     1.0  0.70877  0.11511  0.57745  1.0000
  Fe  Fe162     1.0  0.51499  0.08450  0.39776  1.0000
  S   S323      1.0  0.53818  0.10261  0.38511  1.0000
  S   S324      1.0  0.51839  0.06019  0.41973  1.0000
  H   H1945     1.0  0.51376  0.09290  0.46676  1.0000
  C   C2429     1.0  0.73463  0.13441  0.56924  1.0000
  H   H1946     1.0  0.67618  0.02432  0.37252  1.0000
  C   C2430     1.0  0.52445  0.10129  0.34100  1.0000
  C   C2431     1.0  0.72819  0.10653  0.35355  1.0000
  H   H1947     1.0  0.64291  0.03620  0.37272  1.0000
  C   C2432     1.0  0.57251  0.00336  0.58956  1.0000
  H   H1948     1.0  0.65397  0.05275  0.60269  1.0000
  H   H1949     1.0  0.71261  0.13942  0.59131  1.0000
  H   H1950     1.0  0.59868  0.07551  0.52412  1.0000
  H   H1951     1.0  0.62913  0.99339  0.32485  1.0000
  H   H1952     1.0  0.62940  0.02167  0.56505  1.0000
  C   C2433     1.0  0.59668  0.07702  0.36296  1.0000
  C   C2434     1.0  0.58344  0.06548  0.37248  1.0000
  C   C2435     1.0  0.56534  0.07306  0.37881  1.0000
  C   C2436     1.0  0.56033  0.09238  0.37592  1.0000
  C   C2437     1.0  0.57342  0.10391  0.36604  1.0000
  C   C2438     1.0  0.59150  0.09628  0.35948  1.0000
  H   H1953     1.0  0.58730  0.05058  0.37524  1.0000
  H   H1954     1.0  0.55541  0.06402  0.38635  1.0000
  H   H1955     1.0  0.56968  0.11887  0.36373  1.0000
  H   H1956     1.0  0.60157  0.10535  0.35231  1.0000
  C   C2439     1.0  0.50599  0.09279  0.51455  1.0000
  H   H1957     1.0  0.51935  0.12034  0.43628  1.0000
  C   C2440     1.0  0.56296  0.04752  0.49329  1.0000
  C   C2441     1.0  0.53597  0.00893  0.44306  1.0000
  C   C2442     1.0  0.57723  0.09741  0.53056  1.0000
  C   C2443     1.0  0.72215  0.12500  0.35761  1.0000
  C   C2444     1.0  0.49554  0.00502  0.58150  1.0000
  H   H1958     1.0  0.54527  0.99354  0.58921  1.0000
  H   H1959     1.0  0.55744  0.04047  0.54973  1.0000
  C   C2445     1.0  0.73199  0.13831  0.62839  1.0000
  C   C2446     1.0  0.53017  0.00136  0.47674  1.0000
  C   C2447     1.0  0.50753  0.08956  0.48083  1.0000
  H   H1960     1.0  0.54764  0.09786  0.57043  1.0000
  C   C2448     1.0  0.49331  0.07739  0.48384  1.0000
  C   C2449     1.0  0.64715  0.02168  0.37024  1.0000
  C   C2450     1.0  0.55338  0.03189  0.49150  1.0000
  H   H1961     1.0  0.62898  0.02185  0.48607  1.0000
  C   C2451     1.0  0.60110  0.09421  0.62529  1.0000
  C   C2452     1.0  0.58761  0.10274  0.61348  1.0000
  C   C2453     1.0  0.57189  0.09351  0.61048  1.0000
  C   C2454     1.0  0.56953  0.07548  0.61914  1.0000
  C   C2455     1.0  0.58307  0.06689  0.63091  1.0000
  C   C2456     1.0  0.59871  0.07619  0.63405  1.0000
  H   H1962     1.0  0.58932  0.11663  0.60658  1.0000
  H   H1963     1.0  0.56162  0.10037  0.60148  1.0000
  C   C2457     1.0  0.71596  0.10348  0.56348  1.0000
  S   S325      1.0  0.65720  0.10450  0.33009  1.0000
  C   C2458     1.0  0.72930  0.03860  0.34562  1.0000
  H   H1964     1.0  0.55439  0.11691  0.54041  1.0000
  C   C2459     1.0  0.58330  0.06890  0.55111  1.0000
  S   S326      1.0  0.51008  0.01647  0.39556  1.0000
  H   H1965     1.0  0.56303  0.07253  0.50746  1.0000
  C   C2460     1.0  0.63227  0.03751  0.50935  1.0000
  H   H1966     1.0  0.70826  0.13092  0.35450  1.0000
  H   H1967     1.0  0.64583  0.04186  0.50358  1.0000
  C   C2461     1.0  0.56900  0.07556  0.56419  1.0000
  H   H1968     1.0  0.52098  0.16027  0.47659  1.0000
  H   H1969     1.0  0.50477  0.01764  0.60445  1.0000
  C   C2462     1.0  0.58491  0.01642  0.58167  1.0000
  H   H1970     1.0  0.59776  0.01219  0.49910  1.0000
  Fe  Fe163     1.0  0.64551  0.09830  0.64600  1.0000
  H   H1971     1.0  0.53705  0.14161  0.45139  1.0000
  C   C2463     1.0  0.56181  0.03016  0.56082  1.0000
  C   C2464     1.0  0.62895  0.03404  0.57260  1.0000
  H   H1972     1.0  0.69620  0.11196  0.58640  1.0000
  H   H1973     1.0  0.71154  0.04237  0.32291  1.0000
  S   S327      1.0  0.50989  0.09978  0.59114  1.0000
  H   H1974     1.0  0.62814  0.07803  0.59988  1.0000
  C   C2465     1.0  0.64292  0.05145  0.59386  1.0000
  H   H1975     1.0  0.62411  0.12833  0.32087  1.0000
  C   C2466     1.0  0.62423  0.04331  0.52658  1.0000
  H   H1976     1.0  0.72918  0.15016  0.36851  1.0000
  Fe  Fe164     1.0  0.49578  0.05181  0.58041  1.0000
  C   C2467     1.0  0.51069  0.98751  0.60724  1.0000
  H   H1977     1.0  0.69642  0.04105  0.64383  1.0000
  H   H1978     1.0  0.73596  0.13046  0.51600  1.0000
  C   C2468     1.0  0.49430  0.98827  0.57358  1.0000
  H   H1979     1.0  0.53551  0.01756  0.56403  1.0000
  H   H1980     1.0  0.65452  0.02448  0.58533  1.0000
  H   H1981     1.0  0.60255  0.07525  0.58051  1.0000
  C   C2469     1.0  0.71531  0.03369  0.33543  1.0000
  Fe  Fe165     1.0  0.50061  0.04595  0.40260  1.0000
  H   H1982     1.0  0.52425  0.10730  0.49357  1.0000
  H   H1983     1.0  0.63165  0.05231  0.53388  1.0000
  C   C2470     1.0  0.49241  0.07992  0.51757  1.0000
  H   H1984     1.0  0.58339  0.02241  0.52927  1.0000
  S   S328      1.0  0.67081  0.07928  0.63724  1.0000
  C   C2471     1.0  0.51358  0.09753  0.49609  1.0000
  H   H1985     1.0  0.49487  0.02428  0.47456  1.0000
  C   C2472     1.0  0.61383  0.06409  0.58114  1.0000
  C   C2473     1.0  0.55594  0.06017  0.50635  1.0000
  C   C2474     1.0  0.54941  0.01713  0.56879  1.0000
  C   C2475     1.0  0.64323  0.03558  0.58404  1.0000
  C   C2476     1.0  0.60660  0.03783  0.53412  1.0000
  P   P82       1.0  0.52385  0.00904  0.49996  1.0000
  H   H1986     1.0  0.59843  0.01594  0.58709  1.0000
  C   C2477     1.0  0.60519  0.02081  0.50682  1.0000
  H   H1987     1.0  0.58211  0.07576  0.32533  1.0000
  C   C2478     1.0  0.54489  0.99151  0.52863  1.0000
  C   C2479     1.0  0.52901  0.08598  0.33037  1.0000
  H   H1988     1.0  0.60900  0.06937  0.64307  1.0000
  C   C2480     1.0  0.52970  0.99060  0.51801  1.0000
  C   C2481     1.0  0.71018  0.00675  0.35798  1.0000
  C   C2482     1.0  0.72454  0.01154  0.36799  1.0000
  H   H1989     1.0  0.55917  0.02219  0.48139  1.0000
  H   H1990     1.0  0.60146  0.04552  0.32732  1.0000
  C   C2483     1.0  0.73462  0.11984  0.62334  1.0000
  S   S329      1.0  0.49939  0.06924  0.37952  1.0000
  H   H1991     1.0  0.53567  0.01913  0.43086  1.0000
  C   C2484     1.0  0.53024  0.01458  0.46094  1.0000
  C   C2485     1.0  0.54898  0.11776  0.32285  1.0000
  C   C2486     1.0  0.57967  0.02994  0.56720  1.0000
  H   H1992     1.0  0.66140  0.03896  0.63901  1.0000
  C   C2487     1.0  0.62276  0.02625  0.49947  1.0000
  C   C2488     1.0  0.66607  0.01488  0.37000  1.0000
  C   C2489     1.0  0.52967  0.04167  0.51588  1.0000
  H   H1993     1.0  0.69445  0.01468  0.33401  1.0000
  H   H1994     1.0  0.61916  0.01540  0.36689  1.0000
  C   C2490     1.0  0.73258  0.10721  0.55247  1.0000
  C   C2491     1.0  0.59710  0.02660  0.52404  1.0000
  C   C2492     1.0  0.62830  0.06570  0.59232  1.0000
  H   H1995     1.0  0.57571  0.04996  0.48438  1.0000
  H   H1996     1.0  0.71910  0.14303  0.63635  1.0000
  C   C2493     1.0  0.70570  0.01794  0.34167  1.0000
  C   C2494     1.0  0.51233  0.12857  0.44723  1.0000
  C   C2495     1.0  0.56271  0.10370  0.54348  1.0000
  H   H1997     1.0  0.53129  0.12864  0.34608  1.0000
  H   H1998     1.0  0.72823  0.00334  0.38073  1.0000
  H   H1999     1.0  0.70882  0.09137  0.56146  1.0000
  H   H2000     1.0  0.55359  0.00309  0.52604  1.0000
  C   C2496     1.0  0.49329  0.00007  0.39972  1.0000
  H   H2001     1.0  0.49793  0.01064  0.53394  1.0000
  S   S330      1.0  0.49843  0.05828  0.60967  1.0000
  H   H2002     1.0  0.56570  0.06732  0.57734  1.0000
  C   C2497     1.0  0.50376  0.00470  0.59832  1.0000
  H   H2003     1.0  0.52598  0.02934  0.46242  1.0000
  C   C2498     1.0  0.63376  0.00991  0.36701  1.0000
  H   H2004     1.0  0.73623  0.05123  0.34109  1.0000
  C   C2499     1.0  0.53445  0.11713  0.33728  1.0000
  C   C2500     1.0  0.61412  0.04828  0.57105  1.0000
  P   P83       1.0  0.59594  0.04617  0.55596  1.0000
  H   H2005     1.0  0.53420  0.06685  0.52803  1.0000
  C   C2501     1.0  0.53639  0.02908  0.50248  1.0000
  C   C2502     1.0  0.55877  0.09288  0.56036  1.0000
  C   C2503     1.0  0.64349  0.99236  0.31864  1.0000
  H   H2006     1.0  0.51352  0.10074  0.35253  1.0000
  C   C2504     1.0  0.67179  0.99619  0.36643  1.0000
  C   C2505     1.0  0.48949  0.02121  0.64848  1.0000
  C   C2506     1.0  0.52229  0.14054  0.45576  1.0000
  C   C2507     1.0  0.63928  0.99122  0.36368  1.0000
  C   C2508     1.0  0.73400  0.02746  0.36182  1.0000
  H   H2007     1.0  0.52147  0.07356  0.33365  1.0000
  C   C2509     1.0  0.73414  0.13594  0.36556  1.0000
  H   H2008     1.0  0.50370  0.01473  0.64929  1.0000
  H   H2009     1.0  0.67821  0.99651  0.40366  1.0000
  C   C2510     1.0  0.54192  0.99012  0.44079  1.0000
  Fe  Fe166     1.0  0.68849  0.10005  0.64679  1.0000
  Fe  Fe167     1.0  0.49088  0.07197  0.43349  1.0000
  C   C2511     1.0  0.49336  0.12689  0.45304  1.0000
  P   P84       1.0  0.69628  0.98753  0.36660  1.0000
  C   C2512     1.0  0.49000  0.01510  0.52203  1.0000
  H   H2010     1.0  0.64727  0.00969  0.65114  1.0000
  H   H2011     1.0  0.51703  0.98720  0.62028  1.0000
  H   H2012     1.0  0.73717  0.12560  0.48240  1.0000
  H   H2013     1.0  0.73824  0.09773  0.54208  1.0000
  Fe  Fe168     1.0  0.66093  0.10510  0.68218  1.0000
  H   H2014     1.0  0.50844  0.03415  0.82238  1.0000
  S   S331      1.0  0.65931  0.12141  0.70829  1.0000
  Fe  Fe169     1.0  0.66851  0.06335  0.66752  1.0000
  C   C2513     1.0  0.55006  0.03780  0.83999  1.0000
  S   S332      1.0  0.68701  0.08575  0.67610  1.0000
  S   S333      1.0  0.64212  0.08421  0.67517  1.0000
  Fe  Fe170     1.0  0.59360  0.14860  0.80555  1.0000
  S   S334      1.0  0.61009  0.14804  0.83071  1.0000
  S   S335      1.0  0.59984  0.13069  0.78026  1.0000
  Fe  Fe171     1.0  0.55923  0.17039  0.82528  1.0000
  S   S336      1.0  0.57347  0.17130  0.85162  1.0000
  S   S337      1.0  0.52955  0.18461  0.82285  1.0000
  Fe  Fe172     1.0  0.59911  0.17875  0.83274  1.0000
  S   S338      1.0  0.62031  0.19962  0.83863  1.0000
  Fe  Fe173     1.0  0.58336  0.14096  0.84791  1.0000
  S   S339      1.0  0.58074  0.11965  0.87354  1.0000
  S   S340      1.0  0.58421  0.17962  0.80619  1.0000
  S   S341      1.0  0.56743  0.13976  0.82298  1.0000
  Fe  Fe174     1.0  0.58126  0.00861  0.89459  1.0000
  S   S342      1.0  0.56998  0.01086  0.92468  1.0000
  S   S343      1.0  0.59164  0.03083  0.87217  1.0000
  H   H2015     1.0  0.49616  0.04809  0.65529  1.0000
  C   C2514     1.0  0.57177  0.18504  0.75427  1.0000
  H   H2016     1.0  0.69137  0.04930  0.75190  1.0000
  H   H2017     1.0  0.63084  0.08159  0.86849  1.0000
  Fe  Fe175     1.0  0.54627  0.99600  0.91726  1.0000
  C   C2515     1.0  0.51122  0.44033  0.96804  1.0000
  Fe  Fe176     1.0  0.64839  0.29484  0.88986  1.0000
  S   S344      1.0  0.67115  0.28849  0.90981  1.0000
  S   S345      1.0  0.62911  0.27454  0.87941  1.0000
  Fe  Fe177     1.0  0.64883  0.33807  0.89232  1.0000
  S   S346      1.0  0.67132  0.33450  0.91223  1.0000
  S   S347      1.0  0.63765  0.36687  0.87942  1.0000
  Fe  Fe178     1.0  0.68526  0.31290  0.89350  1.0000
  S   S348      1.0  0.71707  0.31120  0.88562  1.0000
  Fe  Fe179     1.0  0.65578  0.31078  0.92706  1.0000
  S   S349      1.0  0.64548  0.30822  0.95831  1.0000
  S   S350      1.0  0.66364  0.31770  0.87250  1.0000
  S   S351      1.0  0.63222  0.31588  0.90827  1.0000
  H   H2018     1.0  0.57914  0.10231  0.80545  1.0000
  C   C2516     1.0  0.54437  0.43497  0.95757  1.0000
  C   C2517     1.0  0.65725  0.01073  0.72271  1.0000
  C   C2518     1.0  0.68178  0.05831  0.77919  1.0000
  H   H2019     1.0  0.58924  0.48292  0.96502  1.0000
  C   C2519     1.0  0.66061  0.99600  0.85919  1.0000
  Fe  Fe180     1.0  0.57594  0.46092  0.91292  1.0000
  S   S352      1.0  0.58494  0.42992  0.92067  1.0000
  S   S353      1.0  0.54664  0.46983  0.92499  1.0000
  S   S354      1.0  0.67432  0.01454  0.67827  1.0000
  H   H2020     1.0  0.59456  0.22853  0.76206  1.0000
  C   C2520     1.0  0.61773  0.18478  0.76700  1.0000
  H   H2021     1.0  0.69245  0.06800  0.77886  1.0000
  C   C2521     1.0  0.72034  0.34816  0.87065  1.0000
  H   H2022     1.0  0.70546  0.35077  0.87468  1.0000
  C   C2522     1.0  0.62421  0.38486  0.89143  1.0000
  C   C2523     1.0  0.61926  0.40224  0.88146  1.0000
  C   C2524     1.0  0.60787  0.41660  0.89030  1.0000
  C   C2525     1.0  0.60121  0.41360  0.90917  1.0000
  C   C2526     1.0  0.60679  0.39654  0.91928  1.0000
  C   C2527     1.0  0.61805  0.38214  0.91048  1.0000
  H   H2023     1.0  0.62400  0.40449  0.86673  1.0000
  H   H2024     1.0  0.60377  0.42970  0.88235  1.0000
  H   H2025     1.0  0.60225  0.39447  0.93402  1.0000
  H   H2026     1.0  0.62175  0.36888  0.91835  1.0000
  C   C2528     1.0  0.62547  0.43662  0.94685  1.0000
  H   H2027     1.0  0.68561  0.30389  0.96402  1.0000
  C   C2529     1.0  0.63110  0.08068  0.81470  1.0000
  C   C2530     1.0  0.50064  0.48352  0.95083  1.0000
  C   C2531     1.0  0.50580  0.05687  0.93647  1.0000
  C   C2532     1.0  0.62725  0.20489  0.78866  1.0000
  H   H2028     1.0  0.54116  0.38791  0.92038  1.0000
  C   C2533     1.0  0.62229  0.22037  0.85035  1.0000
  C   C2534     1.0  0.64021  0.22659  0.85103  1.0000
  C   C2535     1.0  0.64262  0.24288  0.85989  1.0000
  C   C2536     1.0  0.62708  0.25350  0.86816  1.0000
  C   C2537     1.0  0.60915  0.24732  0.86745  1.0000
  C   C2538     1.0  0.60676  0.23093  0.85874  1.0000
  H   H2029     1.0  0.65239  0.21869  0.84467  1.0000
  H   H2030     1.0  0.65652  0.24726  0.86019  1.0000
  H   H2031     1.0  0.59695  0.25526  0.87372  1.0000
  H   H2032     1.0  0.59287  0.22653  0.85841  1.0000
  C   C2539     1.0  0.58191  0.09499  0.87274  1.0000
  C   C2540     1.0  0.57960  0.08336  0.88957  1.0000
  C   C2541     1.0  0.58163  0.06363  0.88958  1.0000
  C   C2542     1.0  0.58628  0.05539  0.87274  1.0000
  C   C2543     1.0  0.58804  0.06702  0.85588  1.0000
  C   C2544     1.0  0.58574  0.08673  0.85585  1.0000
  H   H2033     1.0  0.57657  0.08966  0.90270  1.0000
  H   H2034     1.0  0.58028  0.05484  0.90267  1.0000
  H   H2035     1.0  0.59172  0.06077  0.84283  1.0000
  H   H2036     1.0  0.58763  0.09555  0.84284  1.0000
  H   H2037     1.0  0.57279  0.10143  0.77246  1.0000
  C   C2545     1.0  0.50926  0.17304  0.82069  1.0000
  C   C2546     1.0  0.51014  0.15360  0.81981  1.0000
  C   C2547     1.0  0.67760  0.30479  0.97748  1.0000
  H   H2038     1.0  0.52338  0.14517  0.82093  1.0000
  H   H2039     1.0  0.57204  0.05329  0.79847  1.0000
  C   C2548     1.0  0.61453  0.27380  0.94813  1.0000
  C   C2549     1.0  0.62885  0.45149  0.93328  1.0000
  C   C2550     1.0  0.64211  0.12457  0.72773  1.0000
  C   C2551     1.0  0.64684  0.13344  0.74296  1.0000
  C   C2552     1.0  0.63410  0.13560  0.75904  1.0000
  C   C2553     1.0  0.61629  0.12914  0.76003  1.0000
  C   C2554     1.0  0.61153  0.12030  0.74477  1.0000
  C   C2555     1.0  0.62431  0.11806  0.72871  1.0000
  H   H2040     1.0  0.66058  0.13846  0.74242  1.0000
  H   H2041     1.0  0.63817  0.14206  0.77076  1.0000
  H   H2042     1.0  0.59788  0.11511  0.74538  1.0000
  H   H2043     1.0  0.62047  0.11117  0.71717  1.0000
  S   S355      1.0  0.66319  0.12045  0.65323  1.0000
  H   H2044     1.0  0.54990  0.99046  0.83988  1.0000
  H   H2045     1.0  0.51930  0.00056  0.82705  1.0000
  C   C2556     1.0  0.65039  0.04323  0.66890  1.0000
  P   P85       1.0  0.49199  0.45508  0.97875  1.0000
  C   C2557     1.0  0.58195  0.02401  0.79887  1.0000
  H   H2046     1.0  0.72922  0.25739  0.95679  1.0000
  C   C2558     1.0  0.65406  0.03352  0.77989  1.0000
  P   P86       1.0  0.73339  0.34007  0.79958  1.0000
  C   C2559     1.0  0.72245  0.31934  0.80972  1.0000
  C   C2560     1.0  0.63904  0.39261  0.97225  1.0000
  H   H2047     1.0  0.49457  0.41788  0.96375  1.0000
  H   H2048     1.0  0.59931  0.44510  0.97808  1.0000
  C   C2561     1.0  0.49412  0.08888  0.81528  1.0000
  H   H2049     1.0  0.49928  0.08324  0.65960  1.0000
  S   S356      1.0  0.51680  0.00538  0.92746  1.0000
  C   C2562     1.0  0.71733  0.31703  0.82910  1.0000
  C   C2563     1.0  0.70842  0.30132  0.83705  1.0000
  C   C2564     1.0  0.70460  0.28774  0.82574  1.0000
  C   C2565     1.0  0.70979  0.28981  0.80646  1.0000
  C   C2566     1.0  0.71870  0.30554  0.79845  1.0000
  C   C2567     1.0  0.72167  0.36046  0.81013  1.0000
  C   C2568     1.0  0.69340  0.37668  0.82474  1.0000
  C   C2569     1.0  0.73132  0.37627  0.81131  1.0000
  H   H2050     1.0  0.60994  0.02137  0.72953  1.0000
  C   C2570     1.0  0.54746  0.41128  0.90060  1.0000
  C   C2571     1.0  0.56612  0.22037  0.72181  1.0000
  C   C2572     1.0  0.51854  0.33255  0.93713  1.0000
  H   H2051     1.0  0.73009  0.48303  0.89113  1.0000
  C   C2573     1.0  0.62849  0.18740  0.78148  1.0000
  C   C2574     1.0  0.56726  0.09541  0.80225  1.0000
  H   H2052     1.0  0.61520  0.02153  0.69008  1.0000
  H   H2053     1.0  0.70441  0.29972  0.85201  1.0000
  H   H2054     1.0  0.69760  0.27563  0.83196  1.0000
  H   H2055     1.0  0.70682  0.27925  0.79771  1.0000
  H   H2056     1.0  0.72249  0.30686  0.78349  1.0000
  S   S357      1.0  0.58902  0.48019  0.92922  1.0000
  H   H2057     1.0  0.69465  0.34902  0.81574  1.0000
  C   C2575     1.0  0.49373  0.03433  0.88510  1.0000
  H   H2058     1.0  0.61247  0.99075  0.74824  1.0000
  H   H2059     1.0  0.60817  0.31889  0.94940  1.0000
  H   H2060     1.0  0.62547  0.00536  0.80895  1.0000
  H   H2061     1.0  0.66696  0.02724  0.75264  1.0000
  H   H2062     1.0  0.72333  0.37662  0.85884  1.0000
  C   C2576     1.0  0.59191  0.24701  0.71119  1.0000
  H   H2063     1.0  0.64788  0.16708  0.70573  1.0000
  H   H2064     1.0  0.60148  0.06310  0.80706  1.0000
  C   C2577     1.0  0.62360  0.01362  0.73028  1.0000
  C   C2578     1.0  0.61269  0.01606  0.96455  1.0000
  C   C2579     1.0  0.50205  0.99087  0.91910  1.0000
  C   C2580     1.0  0.52965  0.06790  0.86973  1.0000
  C   C2581     1.0  0.53218  0.07638  0.88583  1.0000
  C   C2582     1.0  0.53166  0.09593  0.88526  1.0000
  C   C2583     1.0  0.52814  0.10706  0.86872  1.0000
  H   H2065     1.0  0.53043  0.05274  0.87047  1.0000
  H   H2066     1.0  0.53507  0.06775  0.89864  1.0000
  H   H2067     1.0  0.53439  0.10246  0.89752  1.0000
  H   H2068     1.0  0.67001  0.01629  0.71629  1.0000
  H   H2069     1.0  0.61143  0.22804  0.72617  1.0000
  C   C2584     1.0  0.60371  0.18056  0.72473  1.0000
  H   H2070     1.0  0.68052  0.45357  0.89647  1.0000
  H   H2071     1.0  0.71939  0.31516  0.96129  1.0000
  C   C2585     1.0  0.56588  0.32608  0.88379  1.0000
  C   C2586     1.0  0.57550  0.33979  0.89043  1.0000
  C   C2587     1.0  0.59463  0.34076  0.88457  1.0000
  P   P87       1.0  0.56420  0.35496  0.90767  1.0000
  C   C2588     1.0  0.57783  0.35162  0.92774  1.0000
  C   C2589     1.0  0.56207  0.37938  0.89833  1.0000
  C   C2590     1.0  0.57252  0.38561  0.88172  1.0000
  C   C2591     1.0  0.57040  0.40448  0.87464  1.0000
  H   H2072     1.0  0.54565  0.08550  0.76505  1.0000
  H   H2073     1.0  0.72669  0.43728  0.85731  1.0000
  C   C2592     1.0  0.72938  0.33019  0.87434  1.0000
  C   C2593     1.0  0.58852  0.33445  0.93168  1.0000
  C   C2594     1.0  0.59950  0.33194  0.94683  1.0000
  C   C2595     1.0  0.59978  0.34640  0.95834  1.0000
  C   C2596     1.0  0.58874  0.36331  0.95491  1.0000
  C   C2597     1.0  0.57782  0.36594  0.93966  1.0000
  C   C2598     1.0  0.54072  0.34858  0.91493  1.0000
  C   C2599     1.0  0.52612  0.35482  0.90360  1.0000
  H   H2074     1.0  0.48955  0.03826  0.92484  1.0000
  H   H2075     1.0  0.51564  0.32375  0.95003  1.0000
  C   C2600     1.0  0.70006  0.26627  0.95405  1.0000
  C   C2601     1.0  0.73089  0.46058  0.87300  1.0000
  H   H2076     1.0  0.55123  0.32471  0.88824  1.0000
  H   H2077     1.0  0.60245  0.35088  0.88987  1.0000
  H   H2078     1.0  0.58249  0.37615  0.87418  1.0000
  H   H2079     1.0  0.63741  0.17955  0.96588  1.0000
  H   H2080     1.0  0.50410  0.09819  0.80834  1.0000
  H   H2081     1.0  0.50383  0.39972  0.91798  1.0000
  H   H2082     1.0  0.72982  0.40401  0.82050  1.0000
  H   H2083     1.0  0.58872  0.32303  0.92288  1.0000
  C   C2602     1.0  0.65855  0.99320  0.73309  1.0000
  H   H2084     1.0  0.63609  0.04190  0.66645  1.0000
  H   H2085     1.0  0.63986  0.21326  0.95831  1.0000
  H   H2086     1.0  0.56996  0.37937  0.93689  1.0000
  H   H2087     1.0  0.52889  0.36329  0.89046  1.0000
  C   C2603     1.0  0.64992  0.46282  0.95281  1.0000
  C   C2604     1.0  0.49390  0.14511  0.81711  1.0000
  C   C2605     1.0  0.62335  0.17958  0.72137  1.0000
  H   H2088     1.0  0.49480  0.13015  0.81620  1.0000
  C   C2606     1.0  0.63848  0.00210  0.98195  1.0000
  C   C2607     1.0  0.64678  0.02354  0.83225  1.0000
  S   S358      1.0  0.55621  0.99606  0.88693  1.0000
  C   C2608     1.0  0.63470  0.43438  0.96330  1.0000
  C   C2609     1.0  0.58517  0.48374  0.97959  1.0000
  C   C2610     1.0  0.60062  0.04841  0.80547  1.0000
  C   C2611     1.0  0.72083  0.44639  0.86789  1.0000
  H   H2089     1.0  0.70293  0.27826  0.94414  1.0000
  H   H2090     1.0  0.65928  0.34448  0.95464  1.0000
  H   H2091     1.0  0.52805  0.12222  0.86821  1.0000
  H   H2092     1.0  0.60550  0.01755  0.95188  1.0000
  C   C2612     1.0  0.51798  0.99909  0.97898  1.0000
  C   C2613     1.0  0.49999  0.07311  0.82715  1.0000
  H   H2093     1.0  0.55841  0.08804  0.83109  1.0000
  C   C2614     1.0  0.52537  0.09865  0.85265  1.0000
  C   C2615     1.0  0.63380  0.06369  0.82602  1.0000
  H   H2094     1.0  0.63526  0.20680  0.80018  1.0000
  C   C2616     1.0  0.58422  0.21725  0.72786  1.0000
  H   H2095     1.0  0.56806  0.30268  0.86679  1.0000
  C   C2617     1.0  0.52658  0.07898  0.85292  1.0000
  C   C2618     1.0  0.61395  0.01600  0.80659  1.0000
  C   C2619     1.0  0.62248  0.15839  0.69739  1.0000
  C   C2620     1.0  0.60437  0.21711  0.76695  1.0000
  C   C2621     1.0  0.55640  0.01872  0.84199  1.0000
  H   H2096     1.0  0.57833  0.17202  0.71561  1.0000
  H   H2097     1.0  0.49668  0.35481  0.90024  1.0000
  H   H2098     1.0  0.62602  0.11085  0.81392  1.0000
  C   C2622     1.0  0.54257  0.18794  0.77438  1.0000
  H   H2099     1.0  0.69612  0.40444  0.83235  1.0000
  H   H2100     1.0  0.63549  0.99759  0.95326  1.0000
  H   H2101     1.0  0.67877  0.37673  0.83017  1.0000
  C   C2623     1.0  0.55707  0.15715  0.76775  1.0000
  C   C2624     1.0  0.69118  0.04551  0.67454  1.0000
  C   C2625     1.0  0.67627  0.04716  0.69097  1.0000
  C   C2626     1.0  0.65577  0.04587  0.68838  1.0000
  H   H2102     1.0  0.55742  0.14200  0.77006  1.0000
  P   P88       1.0  0.63815  0.04423  0.70851  1.0000
  C   C2627     1.0  0.63974  0.02096  0.72087  1.0000
  C   C2628     1.0  0.63981  0.05978  0.72648  1.0000
  C   C2629     1.0  0.62694  0.05906  0.74257  1.0000
  C   C2630     1.0  0.62839  0.07017  0.75714  1.0000
  C   C2631     1.0  0.64299  0.08176  0.75600  1.0000
  C   C2632     1.0  0.65583  0.08255  0.74011  1.0000
  C   C2633     1.0  0.65390  0.07213  0.72514  1.0000
  H   H2103     1.0  0.54685  0.23926  0.70627  1.0000
  C   C2634     1.0  0.49969  0.01797  0.87633  1.0000
  C   C2635     1.0  0.61522  0.04907  0.69988  1.0000
  P   P89       1.0  0.63761  0.04166  0.81542  1.0000
  H   H2104     1.0  0.61817  0.17101  0.76210  1.0000
  C   C2636     1.0  0.50948  0.07546  0.93736  1.0000
  C   C2637     1.0  0.58875  0.07125  0.69194  1.0000
  C   C2638     1.0  0.60547  0.06700  0.70050  1.0000
  H   H2105     1.0  0.70584  0.04559  0.67667  1.0000
  H   H2106     1.0  0.68070  0.04773  0.70476  1.0000
  C   C2639     1.0  0.60766  0.03531  0.69112  1.0000
  H   H2107     1.0  0.61562  0.05007  0.74378  1.0000
  H   H2108     1.0  0.61817  0.06989  0.76927  1.0000
  H   H2109     1.0  0.64404  0.09064  0.76708  1.0000
  H   H2110     1.0  0.66679  0.09202  0.73896  1.0000
  H   H2111     1.0  0.66316  0.07426  0.71255  1.0000
  C   C2640     1.0  0.56087  0.23688  0.71083  1.0000
  H   H2112     1.0  0.63086  0.08073  0.79970  1.0000
  C   C2641     1.0  0.59720  0.23051  0.72218  1.0000
  H   H2113     1.0  0.62620  0.11133  0.84840  1.0000
  C   C2642     1.0  0.61580  0.03495  0.80874  1.0000
  H   H2114     1.0  0.58170  0.08533  0.69178  1.0000
  H   H2115     1.0  0.61114  0.07798  0.70685  1.0000
  C   C2643     1.0  0.50838  0.42281  0.96222  1.0000
  H   H2116     1.0  0.64349  0.02386  0.77982  1.0000
  C   C2644     1.0  0.64934  0.35946  0.97871  1.0000
  C   C2645     1.0  0.66517  0.99462  0.67097  1.0000
  H   H2117     1.0  0.55689  0.43208  0.87898  1.0000
  H   H2118     1.0  0.56893  0.06114  0.67570  1.0000
  H   H2119     1.0  0.55320  0.40923  0.94521  1.0000
  H   H2120     1.0  0.70614  0.36253  0.77647  1.0000
  C   C2646     1.0  0.52269  0.01763  0.97662  1.0000
  H   H2121     1.0  0.49155  0.39989  0.88705  1.0000
  H   H2122     1.0  0.64291  0.47664  0.92603  1.0000
  C   C2647     1.0  0.70255  0.36089  0.81671  1.0000
  C   C2648     1.0  0.64084  0.46477  0.93635  1.0000
  H   H2123     1.0  0.55754  0.21135  0.76266  1.0000
  C   C2649     1.0  0.62869  0.09813  0.84206  1.0000
  C   C2650     1.0  0.63268  0.16837  0.70788  1.0000
  C   C2651     1.0  0.59441  0.31461  0.86587  1.0000
  C   C2652     1.0  0.50786  0.35002  0.90907  1.0000
  C   C2653     1.0  0.55727  0.19625  0.76349  1.0000
  H   H2124     1.0  0.62182  0.45288  0.92050  1.0000
  C   C2654     1.0  0.54246  0.16842  0.77649  1.0000
  C   C2655     1.0  0.70316  0.39230  0.82596  1.0000
  C   C2656     1.0  0.54146  0.41764  0.95179  1.0000
  C   C2657     1.0  0.58154  0.05761  0.68289  1.0000
  C   C2658     1.0  0.66854  0.05648  0.79474  1.0000
  C   C2659     1.0  0.54523  0.00528  0.83756  1.0000
  C   C2660     1.0  0.53244  0.04364  0.83352  1.0000
  C   C2661     1.0  0.53651  0.07779  0.79404  1.0000
  C   C2662     1.0  0.64705  0.44756  0.96616  1.0000
  H   H2125     1.0  0.55878  0.04795  0.84389  1.0000
  C   C2663     1.0  0.53683  0.33730  0.93169  1.0000
  C   C2664     1.0  0.65040  0.37342  0.94669  1.0000
  C   C2665     1.0  0.55801  0.41734  0.88415  1.0000
  H   H2126     1.0  0.54787  0.33205  0.94054  1.0000
  H   H2127     1.0  0.51986  0.07860  0.94621  1.0000
  H   H2128     1.0  0.52286  0.10751  0.83989  1.0000
  C   C2666     1.0  0.68121  0.04775  0.76403  1.0000
  C   C2667     1.0  0.61952  0.26807  0.93018  1.0000
  C   C2668     1.0  0.63475  0.25473  0.92712  1.0000
  C   C2669     1.0  0.64493  0.24700  0.94202  1.0000
  C   C2670     1.0  0.63969  0.25224  0.96026  1.0000
  H   H2129     1.0  0.60877  0.34451  0.96973  1.0000
  H   H2130     1.0  0.57883  0.40926  0.86206  1.0000
  H   H2131     1.0  0.55827  0.43988  0.95524  1.0000
  H   H2132     1.0  0.48992  0.33514  0.93003  1.0000
  H   H2133     1.0  0.50525  0.47238  0.94190  1.0000
  H   H2134     1.0  0.56966  0.26299  0.69701  1.0000
  H   H2135     1.0  0.56687  0.00010  0.96847  1.0000
  C   C2671     1.0  0.57536  0.31351  0.87161  1.0000
  H   H2136     1.0  0.65910  0.47321  0.95527  1.0000
  H   H2137     1.0  0.63535  0.05136  0.85473  1.0000
  C   C2672     1.0  0.49957  0.08999  0.92701  1.0000
  H   H2138     1.0  0.61187  0.27426  0.91849  1.0000
  H   H2139     1.0  0.63885  0.25064  0.91307  1.0000
  H   H2140     1.0  0.53055  0.02256  0.96374  1.0000
  C   C2673     1.0  0.57170  0.16542  0.75670  1.0000
  C   C2674     1.0  0.68572  0.04273  0.65539  1.0000
  H   H2141     1.0  0.51172  0.46489  0.90704  1.0000
  C   C2675     1.0  0.52937  0.44626  0.96571  1.0000
  C   C2676     1.0  0.65447  0.04417  0.79514  1.0000
  H   H2142     1.0  0.63154  0.18735  0.72917  1.0000
  P   P90       1.0  0.52439  0.06839  0.83163  1.0000
  H   H2143     1.0  0.59505  0.15204  0.69201  1.0000
  C   C2677     1.0  0.52797  0.01099  0.83048  1.0000
  C   C2678     1.0  0.66620  0.01889  0.83256  1.0000
  C   C2679     1.0  0.59091  0.03961  0.68261  1.0000
  H   H2144     1.0  0.58913  0.37464  0.96368  1.0000
  C   C2680     1.0  0.62497  0.99626  0.74101  1.0000
  H   H2145     1.0  0.60313  0.28461  0.95033  1.0000
  H   H2146     1.0  0.63734  0.17574  0.78756  1.0000
  C   C2681     1.0  0.54938  0.39237  0.90760  1.0000
  C   C2682     1.0  0.68149  0.26269  0.95975  1.0000
  H   H2147     1.0  0.69810  0.47861  0.90577  1.0000
  H   H2148     1.0  0.51423  0.01223  0.87621  1.0000
  C   C2683     1.0  0.64288  0.18755  0.97577  1.0000
  C   C2684     1.0  0.71646  0.35495  0.76734  1.0000
  H   H2149     1.0  0.65704  0.23708  0.93924  1.0000
  C   C2685     1.0  0.70450  0.46954  0.89528  1.0000
  H   H2150     1.0  0.66936  0.06464  0.80644  1.0000
  C   C2686     1.0  0.50406  0.33893  0.92585  1.0000
  C   C2687     1.0  0.69250  0.23528  0.97945  1.0000
  H   H2151     1.0  0.61365  0.23298  0.78766  1.0000
  C   C2688     1.0  0.53969  0.07883  0.81282  1.0000
  H   H2152     1.0  0.61942  0.01785  0.84576  1.0000
  C   C2689     1.0  0.63386  0.06415  0.84549  1.0000
  C   C2690     1.0  0.63139  0.08132  0.85341  1.0000
  C   C2691     1.0  0.63441  0.01431  0.84558  1.0000
  C   C2692     1.0  0.71107  0.23905  0.97389  1.0000
  C   C2693     1.0  0.52170  0.03011  0.82817  1.0000
  C   C2694     1.0  0.67754  0.24705  0.97236  1.0000
  H   H2153     1.0  0.60189  0.30459  0.85680  1.0000
  C   C2695     1.0  0.54838  0.08594  0.77951  1.0000
  H   H2154     1.0  0.62983  0.14943  0.68721  1.0000
  C   C2696     1.0  0.60396  0.32838  0.87217  1.0000
  P   P91       1.0  0.59140  0.19572  0.74140  1.0000
  H   H2155     1.0  0.53816  0.42141  0.90810  1.0000
  H   H2156     1.0  0.53157  0.19656  0.78182  1.0000
  H   H2157     1.0  0.58551  0.02916  0.67526  1.0000
  H   H2158     1.0  0.61877  0.32919  0.86782  1.0000
  C   C2697     1.0  0.52348  0.41149  0.95421  1.0000
  H   H2159     1.0  0.60197  0.25724  0.70692  1.0000
  C   C2698     1.0  0.59705  0.01055  0.80182  1.0000
  C   C2699     1.0  0.66740  0.03534  0.76442  1.0000
  C   C2700     1.0  0.56369  0.09485  0.78363  1.0000
  C   C2701     1.0  0.58379  0.04291  0.80059  1.0000
  C   C2702     1.0  0.72260  0.47206  0.88687  1.0000
  C   C2703     1.0  0.60290  0.15974  0.70024  1.0000
  H   H2160     1.0  0.67608  0.02593  0.82262  1.0000
  C   C2704     1.0  0.49849  0.47213  0.90342  1.0000
  C   C2705     1.0  0.71483  0.35706  0.74802  1.0000
  H   H2161     1.0  0.64117  0.40250  0.94259  1.0000
  C   C2706     1.0  0.60595  0.19971  0.75932  1.0000
  H   H2162     1.0  0.53132  0.16204  0.78537  1.0000
  H   H2163     1.0  0.52475  0.07086  0.79067  1.0000
  H   H2164     1.0  0.58323  0.15643  0.75062  1.0000
  H   H2165     1.0  0.61560  0.42686  0.94450  1.0000
  C   C2707     1.0  0.62847  0.09781  0.82270  1.0000
  C   C2708     1.0  0.61509  0.21968  0.78151  1.0000
  C   C2709     1.0  0.57373  0.25023  0.70558  1.0000
  H   H2166     1.0  0.55611  0.21000  0.72540  1.0000
  C   C2710     1.0  0.72209  0.39211  0.81919  1.0000
  H   H2167     1.0  0.56873  0.01979  0.79552  1.0000
  C   C2711     1.0  0.59352  0.17094  0.71372  1.0000
  H   H2168     1.0  0.56983  0.01435  0.84744  1.0000
  C   C2712     1.0  0.55537  0.08741  0.81679  1.0000
  C   C2713     1.0  0.62961  0.00477  0.96536  1.0000
  C   C2714     1.0  0.67306  0.00511  0.84597  1.0000
  C   C2715     1.0  0.62465  0.26606  0.96310  1.0000
  H   H2169     1.0  0.65357  0.37209  0.93180  1.0000
  H   H2170     1.0  0.73239  0.12392  0.67187  1.0000
  C   C2716     1.0  0.71484  0.25451  0.96115  1.0000
  C   C2717     1.0  0.64324  0.39075  0.95297  1.0000
  C   C2718     1.0  0.65354  0.35783  0.95955  1.0000
  H   H2171     1.0  0.49119  0.99537  0.86253  1.0000
  H   H2172     1.0  0.69507  0.43293  0.87234  1.0000
  H   H2173     1.0  0.52122  0.39801  0.94975  1.0000
  H   H2174     1.0  0.59559  0.99585  0.80071  1.0000
  H   H2175     1.0  0.72157  0.31416  0.92671  1.0000
  C   C2719     1.0  0.73053  0.36281  0.86160  1.0000
  C   C2720     1.0  0.73134  0.34323  0.77463  1.0000
  C   C2721     1.0  0.70278  0.44386  0.87641  1.0000
  H   H2176     1.0  0.72013  0.32745  0.83806  1.0000
  H   H2177     1.0  0.70340  0.36623  0.74245  1.0000
  S   S359      1.0  0.57428  0.48231  0.88766  1.0000
  H   H2178     1.0  0.53190  0.45974  0.97000  1.0000
  C   C2722     1.0  0.69459  0.45546  0.89004  1.0000
  H   H2179     1.0  0.50396  0.04114  0.89132  1.0000
  C   C2723     1.0  0.64129  0.00064  0.85900  1.0000
  H   H2180     1.0  0.68805  0.00159  0.84623  1.0000
  C   C2724     1.0  0.73330  0.31813  0.93335  1.0000
  H   H2181     1.0  0.63156  0.99384  0.86940  1.0000
  C   C2725     1.0  0.65800  0.30730  0.97845  1.0000
  C   C2726     1.0  0.64445  0.20679  0.97146  1.0000
  H   H2182     1.0  0.65152  0.99316  0.98235  1.0000
  C   C2727     1.0  0.73207  0.31873  0.95277  1.0000
  H   H2183     1.0  0.48875  0.08802  0.87529  1.0000
  C   C2728     1.0  0.49355  0.47932  0.96953  1.0000
  C   C2729     1.0  0.66528  0.04149  0.65260  1.0000
  H   H2184     1.0  0.72667  0.34906  0.72093  1.0000
  C   C2730     1.0  0.65236  0.99611  0.65738  1.0000
  H   H2185     1.0  0.72256  0.22996  0.97943  1.0000
  H   H2186     1.0  0.51324  0.04551  0.94456  1.0000
  C   C2731     1.0  0.49246  0.05276  0.92507  1.0000
  H   H2187     1.0  0.62110  0.27149  0.97660  1.0000
  H   H2188     1.0  0.67026  0.27223  0.95430  1.0000
  C   C2732     1.0  0.57307  0.99367  0.98089  1.0000
  P   P92       1.0  0.65344  0.24231  0.97920  1.0000
  C   C2733     1.0  0.72791  0.34736  0.73589  1.0000
  H   H2189     1.0  0.49103  0.19880  0.81999  1.0000
  P   P93       1.0  0.63006  0.41504  0.98073  1.0000
  H   H2190     1.0  0.52233  0.99019  0.96775  1.0000
  C   C2734     1.0  0.60460  0.02469  0.98034  1.0000
  H   H2191     1.0  0.50213  0.10446  0.92796  1.0000
  C   C2735     1.0  0.49187  0.18376  0.81928  1.0000
  H   H2192     1.0  0.65429  0.44626  0.97873  1.0000
  H   H2193     1.0  0.49038  0.05081  0.84724  1.0000
  H   H2194     1.0  0.59119  0.03300  0.97984  1.0000
  C   C2736     1.0  0.48968  0.39613  0.91722  1.0000
  C   C2737     1.0  0.59346  0.43236  0.98418  1.0000
  C   C2738     1.0  0.65166  0.21727  0.98410  1.0000
  H   H2195     1.0  0.69511  0.03707  0.98442  1.0000
  H   H2196     1.0  0.55704  0.83541  0.10729  1.0000
  S   S360      1.0  0.67499  0.90778  0.30570  1.0000
  Fe  Fe181     1.0  0.65351  0.88820  0.30057  1.0000
  S   S361      1.0  0.65037  0.88293  0.27000  1.0000
  Fe  Fe182     1.0  0.59695  0.82235  0.20193  1.0000
  S   S362      1.0  0.61139  0.82625  0.17261  1.0000
  S   S363      1.0  0.60736  0.82540  0.23065  1.0000
  Fe  Fe183     1.0  0.56127  0.80996  0.18729  1.0000
  S   S364      1.0  0.57330  0.81328  0.15735  1.0000
  S   S365      1.0  0.53178  0.80148  0.19752  1.0000
  Fe  Fe184     1.0  0.60028  0.79884  0.16751  1.0000
  S   S366      1.0  0.61944  0.77833  0.14949  1.0000
  Fe  Fe185     1.0  0.58344  0.84012  0.16452  1.0000
  S   S367      1.0  0.57404  0.86740  0.14759  1.0000
  S   S368      1.0  0.58771  0.79406  0.19740  1.0000
  S   S369      1.0  0.56962  0.83765  0.19404  1.0000
  C   C2739     1.0  0.70178  0.66783  0.14084  1.0000
  C   C2740     1.0  0.49560  0.50304  0.03314  1.0000
  H   H2197     1.0  0.68699  0.70934  0.11758  1.0000
  C   C2741     1.0  0.53400  0.75423  0.15350  1.0000
  H   H2198     1.0  0.61954  0.94924  0.24405  1.0000
  C   C2742     1.0  0.51779  0.77908  0.11782  1.0000
  Fe  Fe186     1.0  0.59245  0.96309  0.09561  1.0000
  S   S370      1.0  0.61172  0.93674  0.10208  1.0000
  S   S371      1.0  0.56641  0.96416  0.08063  1.0000
  Fe  Fe187     1.0  0.64877  0.67077  0.11307  1.0000
  S   S372      1.0  0.67282  0.67353  0.09052  1.0000
  S   S373      1.0  0.63183  0.69133  0.13267  1.0000
  Fe  Fe188     1.0  0.64585  0.62946  0.10539  1.0000
  S   S374      1.0  0.66941  0.62937  0.08232  1.0000
  S   S375      1.0  0.62593  0.60693  0.11489  1.0000
  Fe  Fe189     1.0  0.68434  0.64442  0.10184  1.0000
  S   S376      1.0  0.71630  0.63784  0.10289  1.0000
  Fe  Fe190     1.0  0.65646  0.65814  0.07272  1.0000
  S   S377      1.0  0.64928  0.67000  0.04338  1.0000
  S   S378      1.0  0.66141  0.64267  0.12560  1.0000
  S   S379      1.0  0.63184  0.65716  0.09453  1.0000
  Fe  Fe191     1.0  0.60723  0.50548  0.08661  1.0000
  S   S380      1.0  0.63027  0.52423  0.08940  1.0000
  S   S381      1.0  0.58854  0.51015  0.06315  1.0000
  H   H2199     1.0  0.63968  0.95870  0.07385  1.0000
  H   H2200     1.0  0.51604  0.57871  0.04767  1.0000
  C   C2743     1.0  0.64560  0.49947  0.99443  1.0000
  S   S382      1.0  0.58566  0.49175  0.10707  1.0000
  H   H2201     1.0  0.49299  0.79667  0.20913  1.0000
  H   H2202     1.0  0.56083  0.98539  0.22580  1.0000
  C   C2744     1.0  0.65290  0.97457  0.31588  1.0000
  H   H2203     1.0  0.70879  0.61754  0.14017  1.0000
  C   C2745     1.0  0.63101  0.69015  0.19667  1.0000
  C   C2746     1.0  0.51454  0.50301  0.03586  1.0000
  C   C2747     1.0  0.65424  0.65891  0.02226  1.0000
  C   C2748     1.0  0.64714  0.66778  0.00578  1.0000
  C   C2749     1.0  0.66462  0.64140  0.02158  1.0000
  H   H2204     1.0  0.63911  0.68132  0.00620  1.0000
  H   H2205     1.0  0.67016  0.63441  0.03414  1.0000
  C   C2750     1.0  0.62701  0.58450  0.10645  1.0000
  C   C2751     1.0  0.61122  0.57420  0.10999  1.0000
  C   C2752     1.0  0.61171  0.55596  0.10424  1.0000
  C   C2753     1.0  0.62819  0.54776  0.09521  1.0000
  C   C2754     1.0  0.64389  0.55819  0.09138  1.0000
  C   C2755     1.0  0.64328  0.57655  0.09682  1.0000
  H   H2206     1.0  0.59859  0.58027  0.11745  1.0000
  H   H2207     1.0  0.59959  0.54804  0.10736  1.0000
  H   H2208     1.0  0.65669  0.55196  0.08437  1.0000
  H   H2209     1.0  0.65553  0.58434  0.09402  1.0000
  C   C2756     1.0  0.57881  0.56121  0.03136  1.0000
  H   H2210     1.0  0.67930  0.95085  0.27224  1.0000
  C   C2757     1.0  0.67948  0.70127  0.14681  1.0000
  H   H2211     1.0  0.63424  0.97092  0.00549  1.0000
  H   H2212     1.0  0.65417  0.66237  0.16433  1.0000
  H   H2213     1.0  0.59518  0.97102  0.02586  1.0000
  H   H2214     1.0  0.65866  0.97996  0.26771  1.0000
  H   H2215     1.0  0.53662  0.94344  0.06832  1.0000
  C   C2758     1.0  0.62196  0.75414  0.14463  1.0000
  C   C2759     1.0  0.61139  0.74054  0.15482  1.0000
  C   C2760     1.0  0.61453  0.72152  0.15083  1.0000
  C   C2761     1.0  0.62821  0.71572  0.13657  1.0000
  C   C2762     1.0  0.63861  0.72934  0.12625  1.0000
  C   C2763     1.0  0.63555  0.74834  0.13032  1.0000
  H   H2216     1.0  0.60108  0.74458  0.16604  1.0000
  H   H2217     1.0  0.60642  0.71116  0.15898  1.0000
  H   H2218     1.0  0.64913  0.72522  0.11523  1.0000
  H   H2219     1.0  0.64387  0.75864  0.12234  1.0000
  C   C2764     1.0  0.51185  0.80261  0.18448  1.0000
  C   C2765     1.0  0.51311  0.80657  0.16499  1.0000
  C   C2766     1.0  0.72369  0.61562  0.13604  1.0000
  H   H2220     1.0  0.67614  0.61951  0.00412  1.0000
  C   C2767     1.0  0.59602  0.66534  0.00553  1.0000
  H   H2221     1.0  0.52660  0.80876  0.15740  1.0000
  C   C2768     1.0  0.63264  0.94998  0.24992  1.0000
  C   C2769     1.0  0.68468  0.49475  0.98804  1.0000
  C   C2770     1.0  0.60151  0.91775  0.11560  1.0000
  C   C2771     1.0  0.58227  0.91886  0.12121  1.0000
  C   C2772     1.0  0.57426  0.90337  0.13127  1.0000
  C   C2773     1.0  0.58538  0.88667  0.13601  1.0000
  C   C2774     1.0  0.60469  0.88562  0.13070  1.0000
  C   C2775     1.0  0.61272  0.90113  0.12053  1.0000
  H   H2222     1.0  0.57348  0.93156  0.11751  1.0000
  H   H2223     1.0  0.55930  0.90428  0.13520  1.0000
  H   H2224     1.0  0.61333  0.87272  0.13390  1.0000
  H   H2225     1.0  0.62761  0.90013  0.11619  1.0000
  C   C2776     1.0  0.63833  0.86673  0.25939  1.0000
  C   C2777     1.0  0.63742  0.86889  0.23982  1.0000
  C   C2778     1.0  0.62794  0.85656  0.23076  1.0000
  C   C2779     1.0  0.61930  0.84174  0.24117  1.0000
  C   C2780     1.0  0.62027  0.83956  0.26073  1.0000
  C   C2781     1.0  0.62962  0.85196  0.26979  1.0000
  H   H2226     1.0  0.64417  0.88017  0.23160  1.0000
  H   H2227     1.0  0.62749  0.85835  0.21573  1.0000
  H   H2228     1.0  0.61386  0.82805  0.26896  1.0000
  H   H2229     1.0  0.63037  0.84988  0.28475  1.0000
  C   C2782     1.0  0.59526  0.80413  0.11256  1.0000
  C   C2783     1.0  0.55439  0.63099  0.02061  1.0000
  C   C2784     1.0  0.55702  0.89275  0.18640  1.0000
  C   C2785     1.0  0.60106  0.61128  0.98596  1.0000
  H   H2230     1.0  0.69329  0.59289  0.11398  1.0000
  H   H2231     1.0  0.54089  0.58614  0.98879  1.0000
  H   H2232     1.0  0.67469  0.64785  0.24279  1.0000
  H   H2233     1.0  0.56103  0.97047  0.15717  1.0000
  C   C2786     1.0  0.67138  0.97348  0.30765  1.0000
  C   C2787     1.0  0.73084  0.62374  0.11864  1.0000
  S   S383      1.0  0.62979  0.90494  0.31594  1.0000
  C   C2788     1.0  0.54893  0.84605  0.25941  1.0000
  C   C2789     1.0  0.62293  0.87417  0.17496  1.0000
  C   C2790     1.0  0.60575  0.88166  0.18329  1.0000
  C   C2791     1.0  0.58624  0.90975  0.22974  1.0000
  C   C2792     1.0  0.58401  0.92768  0.23631  1.0000
  C   C2793     1.0  0.58795  0.92990  0.25458  1.0000
  C   C2794     1.0  0.59446  0.91434  0.26620  1.0000
  C   C2795     1.0  0.59641  0.89647  0.25984  1.0000
  C   C2796     1.0  0.59240  0.89417  0.24168  1.0000
  C   C2797     1.0  0.55404  0.88457  0.21997  1.0000
  C   C2798     1.0  0.53779  0.87591  0.21829  1.0000
  H   H2234     1.0  0.62321  0.86379  0.16502  1.0000
  H   H2235     1.0  0.65300  0.87412  0.17291  1.0000
  H   H2236     1.0  0.59298  0.87678  0.17964  1.0000
  H   H2237     1.0  0.57970  0.93998  0.22729  1.0000
  H   H2238     1.0  0.58642  0.94373  0.25962  1.0000
  H   H2239     1.0  0.59820  0.91606  0.28010  1.0000
  H   H2240     1.0  0.60152  0.88443  0.26883  1.0000
  H   H2241     1.0  0.59446  0.88024  0.23680  1.0000
  H   H2242     1.0  0.55870  0.88470  0.23375  1.0000
  H   H2243     1.0  0.53020  0.86941  0.23057  1.0000
  C   C2799     1.0  0.66702  0.71483  0.18919  1.0000
  C   C2800     1.0  0.67847  0.72137  0.20138  1.0000
  C   C2801     1.0  0.67637  0.74028  0.20506  1.0000
  C   C2802     1.0  0.66287  0.75278  0.19661  1.0000
  C   C2803     1.0  0.65147  0.74640  0.18448  1.0000
  C   C2804     1.0  0.65353  0.72753  0.18078  1.0000
  H   H2244     1.0  0.70919  0.68331  0.18973  1.0000
  H   H2245     1.0  0.68896  0.71199  0.20816  1.0000
  H   H2246     1.0  0.68517  0.74527  0.21449  1.0000
  H   H2247     1.0  0.66118  0.76743  0.19945  1.0000
  H   H2248     1.0  0.64101  0.75613  0.17792  1.0000
  H   H2249     1.0  0.64456  0.72283  0.17136  1.0000
  H   H2250     1.0  0.67146  0.51540  0.10087  1.0000
  C   C2805     1.0  0.57649  0.55652  0.05071  1.0000
  C   C2806     1.0  0.55916  0.55146  0.05919  1.0000
  C   C2807     1.0  0.54411  0.55123  0.04840  1.0000
  C   C2808     1.0  0.54620  0.55616  0.02895  1.0000
  C   C2809     1.0  0.56376  0.56107  0.02052  1.0000
  P   P94       1.0  0.52638  0.55626  0.01522  1.0000
  C   C2810     1.0  0.58468  0.98228  0.20537  1.0000
  C   C2811     1.0  0.50982  0.57652  0.01914  1.0000
  C   C2812     1.0  0.50763  0.58433  0.03645  1.0000
  C   C2813     1.0  0.60528  0.89527  0.19605  1.0000
  H   H2251     1.0  0.60242  0.54516  0.99610  1.0000
  H   H2252     1.0  0.52380  0.75074  0.14469  1.0000
  C   C2814     1.0  0.49829  0.58413  0.00508  1.0000
  H   H2253     1.0  0.59236  0.56478  0.02476  1.0000
  H   H2254     1.0  0.60039  0.69415  0.00820  1.0000
  C   C2815     1.0  0.57034  0.85242  0.28137  1.0000
  C   C2816     1.0  0.53744  0.86369  0.28588  1.0000
  C   C2817     1.0  0.56588  0.95902  0.16700  1.0000
  C   C2818     1.0  0.53405  0.55730  0.99043  1.0000
  H   H2255     1.0  0.49527  0.93478  0.10985  1.0000
  H   H2256     1.0  0.62313  0.63828  0.01919  1.0000
  H   H2257     1.0  0.63444  0.63039  0.05044  1.0000
  C   C2819     1.0  0.53054  0.94775  0.05523  1.0000
  C   C2820     1.0  0.66092  0.64190  0.98806  1.0000
  H   H2258     1.0  0.62261  0.65216  0.16453  1.0000
  H   H2259     1.0  0.53094  0.54682  0.05529  1.0000
  H   H2260     1.0  0.59610  0.66606  0.18505  1.0000
  H   H2261     1.0  0.71029  0.65483  0.13842  1.0000
  C   C2821     1.0  0.56779  0.93408  0.30476  1.0000
  C   C2822     1.0  0.60819  0.97440  0.29020  1.0000
  H   H2262     1.0  0.57144  0.48723  0.03262  1.0000
  H   H2263     1.0  0.49944  0.57821  0.99171  1.0000
  C   C2823     1.0  0.58342  0.94912  0.16333  1.0000
  H   H2264     1.0  0.57758  0.59421  0.98911  1.0000
  C   C2824     1.0  0.59158  0.60737  0.03734  1.0000
  H   H2265     1.0  0.50985  0.87464  0.11613  1.0000
  C   C2825     1.0  0.56700  0.84462  0.26514  1.0000
  C   C2826     1.0  0.53481  0.63176  0.02140  1.0000
  H   H2266     1.0  0.59220  0.95276  0.15057  1.0000
  C   C2827     1.0  0.63466  0.94714  0.04861  1.0000
  C   C2828     1.0  0.57776  0.92839  0.19172  1.0000
  H   H2267     1.0  0.56609  0.56448  0.00559  1.0000
  C   C2829     1.0  0.56679  0.78796  0.11591  1.0000
  C   C2830     1.0  0.59829  0.60270  0.05497  1.0000
  C   C2831     1.0  0.56154  0.48988  0.00506  1.0000
  H   H2268     1.0  0.53862  0.51863  0.03272  1.0000
  H   H2269     1.0  0.57631  0.98132  0.19388  1.0000
  C   C2832     1.0  0.55549  0.86168  0.29214  1.0000
  H   H2270     1.0  0.63234  0.93341  0.05573  1.0000
  H   H2271     1.0  0.58447  0.85078  0.28549  1.0000
  C   C2833     1.0  0.56366  0.89536  0.30925  1.0000
  C   C2834     1.0  0.63881  0.96145  0.05884  1.0000
  C   C2835     1.0  0.56652  0.48876  0.98589  1.0000
  C   C2836     1.0  0.50872  0.97955  0.10087  1.0000
  H   H2272     1.0  0.56085  0.63239  0.03328  1.0000
  H   H2273     1.0  0.57843  0.83712  0.25714  1.0000
  C   C2837     1.0  0.49592  0.85706  0.16059  1.0000
  C   C2838     1.0  0.61307  0.68418  0.19677  1.0000
  C   C2839     1.0  0.51442  0.53530  0.02201  1.0000
  C   C2840     1.0  0.64296  0.66836  0.17373  1.0000
  C   C2841     1.0  0.68218  0.65553  0.23113  1.0000
  C   C2842     1.0  0.51234  0.94366  0.05310  1.0000
  C   C2843     1.0  0.49547  0.53505  0.01889  1.0000
  C   C2844     1.0  0.51736  0.49395  0.08356  1.0000
  C   C2845     1.0  0.53121  0.87562  0.20075  1.0000
  C   C2846     1.0  0.64444  0.93345  0.25269  1.0000
  C   C2847     1.0  0.49419  0.59945  0.03961  1.0000
  C   C2848     1.0  0.66795  0.63297  0.00455  1.0000
  C   C2849     1.0  0.55627  0.80539  0.11269  1.0000
  C   C2850     1.0  0.53264  0.96377  0.02396  1.0000
  C   C2851     1.0  0.73370  0.55271  0.15422  1.0000
  H   H2274     1.0  0.65706  0.66682  0.21882  1.0000
  C   C2852     1.0  0.48985  0.97680  0.10609  1.0000
  C   C2853     1.0  0.61589  0.62852  0.02911  1.0000
  C   C2854     1.0  0.58934  0.93383  0.17558  1.0000
  S   S384      1.0  0.52483  0.97733  0.11787  1.0000
  H   H2275     1.0  0.62995  0.93956  0.02140  1.0000
  C   C2855     1.0  0.49930  0.77214  0.09357  1.0000
  H   H2276     1.0  0.59156  0.59269  0.06508  1.0000
  H   H2277     1.0  0.54708  0.49346  0.00999  1.0000
  H   H2278     1.0  0.72702  0.50241  0.17733  1.0000
  H   H2279     1.0  0.59344  0.66213  0.02053  1.0000
  H   H2280     1.0  0.71025  0.60504  0.08478  1.0000
  C   C2856     1.0  0.52824  0.86105  0.13603  1.0000
  C   C2857     1.0  0.52958  0.85191  0.15396  1.0000
  C   C2858     1.0  0.51349  0.85015  0.16629  1.0000
  C   C2859     1.0  0.56537  0.62886  0.00354  1.0000
  H   H2281     1.0  0.59156  0.83428  0.10736  1.0000
  H   H2282     1.0  0.53984  0.94314  0.99416  1.0000
  C   C2860     1.0  0.49954  0.50336  0.08106  1.0000
  C   C2861     1.0  0.59978  0.68360  0.99857  1.0000
  H   H2283     1.0  0.49561  0.90514  0.13039  1.0000
  H   H2284     1.0  0.60015  0.86977  0.30455  1.0000
  C   C2862     1.0  0.63973  0.88010  0.17932  1.0000
  C   C2863     1.0  0.58905  0.97740  0.01338  1.0000
  H   H2285     1.0  0.51706  0.74614  0.17892  1.0000
  C   C2864     1.0  0.66636  0.95069  0.26577  1.0000
  C   C2865     1.0  0.53415  0.85571  0.26970  1.0000
  C   C2866     1.0  0.49679  0.80823  0.15536  1.0000
  C   C2867     1.0  0.71482  0.59131  0.09135  1.0000
  C   C2868     1.0  0.62501  0.66244  0.17386  1.0000
  C   C2869     1.0  0.52604  0.63095  0.00508  1.0000
  H   H2286     1.0  0.54088  0.86270  0.12667  1.0000
  H   H2287     1.0  0.54310  0.84621  0.15840  1.0000
  H   H2288     1.0  0.51462  0.84283  0.18011  1.0000
  H   H2289     1.0  0.61033  0.80362  0.11311  1.0000
  C   C2870     1.0  0.70519  0.58430  0.10802  1.0000
  H   H2290     1.0  0.73172  0.54252  0.11498  1.0000
  C   C2871     1.0  0.56380  0.89309  0.20397  1.0000
  S   S385      1.0  0.57864  0.97874  0.11935  1.0000
  H   H2291     1.0  0.54656  0.93590  0.28543  1.0000
  H   H2292     1.0  0.73030  0.59937  0.16184  1.0000
  C   C2872     1.0  0.51450  0.95939  0.02154  1.0000
  H   H2293     1.0  0.51087  0.63186  0.00566  1.0000
  H   H2294     1.0  0.65244  0.89815  0.19548  1.0000
  H   H2295     1.0  0.54040  0.75299  0.19981  1.0000
  C   C2873     1.0  0.72883  0.51649  0.17089  1.0000
  H   H2296     1.0  0.62226  0.91187  0.20996  1.0000
  C   C2874     1.0  0.59996  0.62082  0.02451  1.0000
  H   H2297     1.0  0.70719  0.67978  0.11243  1.0000
  C   C2875     1.0  0.66129  0.93379  0.26063  1.0000
  C   C2876     1.0  0.63672  0.54789  0.00588  1.0000
  H   H2298     1.0  0.49813  0.51848  0.07819  1.0000
  C   C2877     1.0  0.63215  0.57504  0.02407  1.0000
  C   C2878     1.0  0.62894  0.56329  0.04051  1.0000
  C   C2879     1.0  0.62894  0.54397  0.03959  1.0000
  C   C2880     1.0  0.63287  0.53625  0.02242  1.0000
  C   C2881     1.0  0.59585  0.65140  0.99320  1.0000
  C   C2882     1.0  0.58470  0.82137  0.10937  1.0000
  H   H2299     1.0  0.52009  0.85678  0.26529  1.0000
  H   H2300     1.0  0.55748  0.54716  0.07412  1.0000
  C   C2883     1.0  0.69232  0.67031  0.15847  1.0000
  H   H2301     1.0  0.56423  0.89926  0.17383  1.0000
  C   C2884     1.0  0.52395  0.51903  0.03031  1.0000
  C   C2885     1.0  0.72690  0.55620  0.10855  1.0000
  C   C2886     1.0  0.55434  0.95380  0.18308  1.0000
  C   C2887     1.0  0.49433  0.86606  0.14249  1.0000
  H   H2302     1.0  0.55463  0.96143  0.04237  1.0000
  C   C2888     1.0  0.62251  0.62389  0.04674  1.0000
  C   C2889     1.0  0.61362  0.61112  0.05973  1.0000
  H   H2303     1.0  0.49261  0.84383  0.11343  1.0000
  H   H2304     1.0  0.53594  0.88377  0.17111  1.0000
  C   C2890     1.0  0.59519  0.97083  0.99573  1.0000
  H   H2305     1.0  0.64041  0.92021  0.24906  1.0000
  H   H2306     1.0  0.63217  0.59004  0.02471  1.0000
  H   H2307     1.0  0.62646  0.56908  0.05399  1.0000
  H   H2308     1.0  0.62612  0.53485  0.05224  1.0000
  H   H2309     1.0  0.63293  0.52121  0.02228  1.0000
  H   H2310     1.0  0.51395  0.75528  0.07257  1.0000
  H   H2311     1.0  0.67024  0.92085  0.26306  1.0000
  H   H2312     1.0  0.61865  0.60781  0.07348  1.0000
  C   C2891     1.0  0.63565  0.96855  0.02035  1.0000
  H   H2313     1.0  0.54646  0.83958  0.24700  1.0000
  H   H2314     1.0  0.49246  0.60525  0.05308  1.0000
  H   H2315     1.0  0.64553  0.50874  0.12511  1.0000
  C   C2892     1.0  0.51068  0.86801  0.13024  1.0000
  C   C2893     1.0  0.62225  0.90129  0.20026  1.0000
  C   C2894     1.0  0.63566  0.56744  0.00678  1.0000
  H   H2316     1.0  0.58822  0.55629  0.05911  1.0000
  H   H2317     1.0  0.57969  0.60075  0.03388  1.0000
  C   C2895     1.0  0.54084  0.88404  0.18481  1.0000
  H   H2318     1.0  0.67876  0.95989  0.30546  1.0000
  C   C2896     1.0  0.70005  0.68196  0.12617  1.0000
  H   H2319     1.0  0.60145  0.69046  0.20553  1.0000
  Fe  Fe192     1.0  0.55334  0.98178  0.10332  1.0000
  C   C2897     1.0  0.55299  0.90739  0.29695  1.0000
  C   C2898     1.0  0.58638  0.78752  0.11583  1.0000
  H   H2320     1.0  0.63795  0.57686  0.99423  1.0000
  C   C2899     1.0  0.58693  0.71574  0.11674  1.0000
  C   C2900     1.0  0.59764  0.71850  0.09956  1.0000
  C   C2901     1.0  0.59503  0.73548  0.08844  1.0000
  C   C2902     1.0  0.58190  0.74981  0.09462  1.0000
  C   C2903     1.0  0.57142  0.74732  0.11211  1.0000
  C   C2904     1.0  0.57386  0.73005  0.12302  1.0000
  P   P95       1.0  0.55542  0.76637  0.12059  1.0000
  C   C2905     1.0  0.55067  0.76179  0.14570  1.0000
  C   C2906     1.0  0.54341  0.75493  0.18472  1.0000
  C   C2907     1.0  0.56042  0.76144  0.17704  1.0000
  C   C2908     1.0  0.56401  0.76503  0.15763  1.0000
  C   C2909     1.0  0.53362  0.76874  0.10967  1.0000
  C   C2910     1.0  0.53213  0.76019  0.09325  1.0000
  C   C2911     1.0  0.51502  0.76193  0.08523  1.0000
  H   H2321     1.0  0.72167  0.95657  0.30954  1.0000
  H   H2322     1.0  0.58932  0.70267  0.12547  1.0000
  H   H2323     1.0  0.60821  0.70756  0.09509  1.0000
  H   H2324     1.0  0.60349  0.73762  0.07520  1.0000
  H   H2325     1.0  0.58027  0.76301  0.08598  1.0000
  H   H2326     1.0  0.56610  0.72770  0.13660  1.0000
  H   H2327     1.0  0.54118  0.80637  0.11298  1.0000
  H   H2328     1.0  0.57072  0.76395  0.18619  1.0000
  H   H2329     1.0  0.57721  0.77030  0.15203  1.0000
  H   H2330     1.0  0.54407  0.75211  0.08666  1.0000
  C   C2912     1.0  0.60647  0.98559  0.23489  1.0000
  H   H2331     1.0  0.52578  0.87105  0.29370  1.0000
  C   C2913     1.0  0.56522  0.82199  0.10940  1.0000
  P   P96       1.0  0.66916  0.69034  0.18460  1.0000
  C   C2914     1.0  0.68135  0.68721  0.16172  1.0000
  H   H2332     1.0  0.67062  0.71415  0.14861  1.0000
  C   C2915     1.0  0.61006  0.67040  0.18530  1.0000
  H   H2333     1.0  0.63306  0.70089  0.20559  1.0000
  C   C2916     1.0  0.68184  0.67620  0.20226  1.0000
  H   H2334     1.0  0.63028  0.98136  0.21430  1.0000
  H   H2335     1.0  0.60255  0.92585  0.17183  1.0000
  P   P97       1.0  0.58335  0.90659  0.20565  1.0000
  C   C2917     1.0  0.65453  0.52595  0.14473  1.0000
  C   C2918     1.0  0.65602  0.51770  0.12783  1.0000
  C   C2919     1.0  0.67072  0.52145  0.11415  1.0000
  C   C2920     1.0  0.68389  0.53357  0.11727  1.0000
  C   C2921     1.0  0.68239  0.54205  0.13417  1.0000
  C   C2922     1.0  0.66772  0.53799  0.14796  1.0000
  P   P98       1.0  0.69937  0.55750  0.13870  1.0000
  P   P99       1.0  0.59068  0.62786  0.00218  1.0000
  C   C2923     1.0  0.71123  0.56670  0.11684  1.0000
  C   C2924     1.0  0.55640  0.62871  0.98711  1.0000
  C   C2925     1.0  0.55504  0.92668  0.29473  1.0000
  H   H2336     1.0  0.61763  0.96183  0.28838  1.0000
  P   P100      1.0  0.50426  0.96768  0.99999  1.0000
  Fe  Fe193     1.0  0.56763  0.49450  0.08268  1.0000
  C   C2926     1.0  0.63326  0.95064  0.02934  1.0000
  H   H2337     1.0  0.63046  0.50107  0.99715  1.0000
  H   H2338     1.0  0.49784  0.81194  0.14039  1.0000
  C   C2927     1.0  0.71464  0.52650  0.16100  1.0000
  C   C2928     1.0  0.59785  0.97608  0.30757  1.0000
  C   C2929     1.0  0.68672  0.57664  0.15056  1.0000
  C   C2930     1.0  0.69380  0.58351  0.16574  1.0000
  C   C2931     1.0  0.68402  0.59861  0.17448  1.0000
  C   C2932     1.0  0.66697  0.60674  0.16833  1.0000
  C   C2933     1.0  0.65962  0.59969  0.15352  1.0000
  C   C2934     1.0  0.66944  0.58476  0.14462  1.0000
  H   H2339     1.0  0.50431  0.93634  0.06460  1.0000
  H   H2340     1.0  0.54059  0.97185  0.01294  1.0000
  H   H2341     1.0  0.54056  0.96119  0.18562  1.0000
  H   H2342     1.0  0.69495  0.53650  0.10635  1.0000
  H   H2343     1.0  0.66634  0.54432  0.16113  1.0000
  C   C2935     1.0  0.65027  0.65925  0.98880  1.0000
  C   C2936     1.0  0.73062  0.58099  0.08345  1.0000
  C   C2937     1.0  0.71143  0.66468  0.21484  1.0000
  C   C2938     1.0  0.71698  0.54472  0.15256  1.0000
  C   C2939     1.0  0.49414  0.79979  0.19406  1.0000
  H   H2344     1.0  0.54278  0.90197  0.28939  1.0000
  H   H2345     1.0  0.64295  0.52325  0.15519  1.0000
  C   C2940     1.0  0.61510  0.98248  0.21692  1.0000
  S   S386      1.0  0.53722  0.50708  0.08183  1.0000
  H   H2346     1.0  0.70199  0.51988  0.15990  1.0000
  H   H2347     1.0  0.70690  0.57739  0.17081  1.0000
  H   H2348     1.0  0.68974  0.60406  0.18596  1.0000
  H   H2349     1.0  0.65944  0.61852  0.17498  1.0000
  H   H2350     1.0  0.64638  0.60595  0.14871  1.0000
  H   H2351     1.0  0.66359  0.57972  0.13296  1.0000
  H   H2352     1.0  0.55081  0.93410  0.20738  1.0000
  H   H2353     1.0  0.69344  0.65889  0.16942  1.0000
  H   H2354     1.0  0.52642  0.63333  0.03463  1.0000
  C   C2941     1.0  0.65455  0.96727  0.26309  1.0000
  C   C2942     1.0  0.63940  0.89366  0.19198  1.0000
  C   C2943     1.0  0.70177  0.65466  0.22979  1.0000
  C   C2944     1.0  0.68877  0.69860  0.12911  1.0000
  H   H2355     1.0  0.60609  0.95936  0.99472  1.0000
  C   C2945     1.0  0.54065  0.95787  0.04067  1.0000
  H   H2356     1.0  0.51868  0.78569  0.13052  1.0000
  C   C2946     1.0  0.64605  0.68244  0.18495  1.0000
  C   C2947     1.0  0.67222  0.66630  0.21747  1.0000
  H   H2357     1.0  0.72882  0.87429  0.30418  1.0000
  C   C2948     1.0  0.56024  0.93855  0.19541  1.0000
  C   C2949     1.0  0.50069  0.78070  0.10990  1.0000
  H   H2358     1.0  0.59486  0.77440  0.11877  1.0000
  H   H2359     1.0  0.51869  0.86882  0.19951  1.0000
  C   C2950     1.0  0.63758  0.96710  0.25502  1.0000
  H   H2360     1.0  0.56925  0.94903  0.30324  1.0000
  C   C2951     1.0  0.53025  0.75120  0.17294  1.0000
  C   C2952     1.0  0.70152  0.67551  0.20118  1.0000
  C   C2953     1.0  0.50429  0.94949  0.03635  1.0000
  C   C2954     1.0  0.60423  0.98096  0.20220  1.0000
  C   C2955     1.0  0.65548  0.51505  0.98779  1.0000
  C   C2956     1.0  0.51457  0.98456  0.08208  1.0000
  H   H2361     1.0  0.61096  0.97872  0.18832  1.0000
  H   H2362     1.0  0.52872  0.52867  0.98687  1.0000
  H   H2363     1.0  0.48999  0.94659  0.03528  1.0000
  H   H2364     1.0  0.52186  0.49071  0.04275  1.0000
  C   C2957     1.0  0.53683  0.62957  0.98792  1.0000
  C   C2958     1.0  0.57599  0.98476  0.22332  1.0000
  H   H2365     1.0  0.70947  0.64628  0.24036  1.0000
  P   P101      1.0  0.55935  0.87091  0.31380  1.0000
  C   C2959     1.0  0.57854  0.92218  0.31694  1.0000
  C   C2960     1.0  0.73592  0.60523  0.14828  1.0000
  H   H2366     1.0  0.67330  0.55936  0.99095  1.0000
  H   H2367     1.0  0.72662  0.66404  0.21382  1.0000
  H   H2368     1.0  0.52913  0.98652  0.07785  1.0000
  C   C2961     1.0  0.59738  0.85958  0.31639  1.0000
  H   H2369     1.0  0.69984  0.49292  0.98558  1.0000
  H   H2370     1.0  0.73826  0.58676  0.07078  1.0000
  H   H2371     1.0  0.48852  0.78852  0.11656  1.0000
  H   H2372     1.0  0.73595  0.56664  0.14766  1.0000
  C   C2962     1.0  0.64112  0.97939  0.04992  1.0000
  C   C2963     1.0  0.73663  0.56339  0.09200  1.0000
  H   H2373     1.0  0.67675  0.98567  0.03198  1.0000
  C   C2964     1.0  0.58681  0.98644  0.23806  1.0000
  C   C2965     1.0  0.63913  0.98321  0.03066  1.0000
  S   S387      1.0  0.66309  0.89209  0.63500  1.0000
  H   H2374     1.0  0.49722  0.91133  0.46457  1.0000
  S   S388      1.0  0.62510  0.85836  0.62880  1.0000
  C   C2966     1.0  0.70029  0.93478  0.34888  1.0000
  H   H2375     1.0  0.56019  0.97849  0.55154  1.0000
  Fe  Fe194     1.0  0.52198  0.88457  0.59165  1.0000
  S   S389      1.0  0.52700  0.91112  0.57354  1.0000
  S   S390      1.0  0.54566  0.86152  0.59560  1.0000
  H   H2376     1.0  0.64112  0.87477  0.42532  1.0000
  H   H2377     1.0  0.58881  0.82381  0.35972  1.0000
  H   H2378     1.0  0.50470  0.95253  0.44256  1.0000
  H   H2379     1.0  0.50691  0.97436  0.51384  1.0000
  C   C2967     1.0  0.60443  0.89403  0.45316  1.0000
  C   C2968     1.0  0.53779  0.94819  0.41219  1.0000
  H   H2380     1.0  0.53932  0.89610  0.34081  1.0000
  S   S391      1.0  0.61491  0.87415  0.36266  1.0000
  C   C2969     1.0  0.54181  0.97684  0.45637  1.0000
  H   H2381     1.0  0.71524  0.86641  0.61051  1.0000
  H   H2382     1.0  0.58450  0.89405  0.32916  1.0000
  H   H2383     1.0  0.66213  0.97005  0.36006  1.0000
  S   S392      1.0  0.65745  0.90564  0.34954  1.0000
  H   H2384     1.0  0.62125  0.82796  0.34578  1.0000
  P   P102      1.0  0.69343  0.81219  0.60253  1.0000
  C   C2970     1.0  0.69607  0.86514  0.57554  1.0000
  C   C2971     1.0  0.62747  0.88185  0.42930  1.0000
  H   H2385     1.0  0.58925  0.94701  0.49373  1.0000
  H   H2386     1.0  0.61893  0.88458  0.40122  1.0000
  H   H2387     1.0  0.55924  0.94607  0.51401  1.0000
  Fe  Fe195     1.0  0.50603  0.90603  0.39622  1.0000
  S   S393      1.0  0.53319  0.91562  0.38061  1.0000
  H   H2388     1.0  0.51245  0.97796  0.38888  1.0000
  H   H2389     1.0  0.50522  0.98696  0.43577  1.0000
  C   C2972     1.0  0.57036  0.95325  0.40338  1.0000
  C   C2973     1.0  0.53172  0.88381  0.34099  1.0000
  C   C2974     1.0  0.49440  0.96190  0.44985  1.0000
  C   C2975     1.0  0.59227  0.88583  0.36771  1.0000
  C   C2976     1.0  0.58877  0.90530  0.36411  1.0000
  C   C2977     1.0  0.57062  0.91413  0.36827  1.0000
  C   C2978     1.0  0.55579  0.90365  0.37609  1.0000
  C   C2979     1.0  0.55930  0.88418  0.37977  1.0000
  C   C2980     1.0  0.57750  0.87536  0.37577  1.0000
  H   H2390     1.0  0.60006  0.91354  0.35811  1.0000
  H   H2391     1.0  0.56804  0.92919  0.36538  1.0000
  H   H2392     1.0  0.54798  0.87591  0.38554  1.0000
  H   H2393     1.0  0.58011  0.86031  0.37870  1.0000
  C   C2981     1.0  0.52258  0.96147  0.53634  1.0000
  H   H2394     1.0  0.69829  0.77310  0.59347  1.0000
  H   H2395     1.0  0.69617  0.92108  0.35450  1.0000
  C   C2982     1.0  0.72605  0.84690  0.34876  1.0000
  C   C2983     1.0  0.56214  0.92927  0.42830  1.0000
  H   H2396     1.0  0.71448  0.84273  0.34215  1.0000
  C   C2984     1.0  0.70162  0.96792  0.35243  1.0000
  C   C2985     1.0  0.53834  0.86920  0.32977  1.0000
  H   H2397     1.0  0.65650  0.82038  0.58720  1.0000
  H   H2398     1.0  0.55568  0.88329  0.47627  1.0000
  H   H2399     1.0  0.49198  0.86623  0.36253  1.0000
  C   C2986     1.0  0.67388  0.76842  0.58034  1.0000
  H   H2400     1.0  0.53257  0.86798  0.41759  1.0000
  S   S394      1.0  0.51830  0.94937  0.61021  1.0000
  C   C2987     1.0  0.55391  0.89186  0.44668  1.0000
  C   C2988     1.0  0.54763  0.88711  0.43011  1.0000
  C   C2989     1.0  0.49818  0.83933  0.64764  1.0000
  C   C2990     1.0  0.70973  0.96698  0.42696  1.0000
  H   H2401     1.0  0.53699  0.86252  0.63491  1.0000
  C   C2991     1.0  0.59114  0.83356  0.34742  1.0000
  H   H2402     1.0  0.67854  0.75384  0.57853  1.0000
  Fe  Fe196     1.0  0.67994  0.88873  0.33225  1.0000
  H   H2403     1.0  0.60032  0.89583  0.46780  1.0000
  C   C2992     1.0  0.51868  0.97536  0.52186  1.0000
  C   C2993     1.0  0.60303  0.86144  0.61920  1.0000
  C   C2994     1.0  0.58945  0.87663  0.62209  1.0000
  C   C2995     1.0  0.57179  0.87739  0.61463  1.0000
  C   C2996     1.0  0.56776  0.86288  0.60430  1.0000
  C   C2997     1.0  0.58155  0.84804  0.60126  1.0000
  C   C2998     1.0  0.59902  0.84744  0.60841  1.0000
  H   H2404     1.0  0.59258  0.88772  0.63002  1.0000
  H   H2405     1.0  0.56129  0.88898  0.61709  1.0000
  H   H2406     1.0  0.57867  0.83679  0.59334  1.0000
  H   H2407     1.0  0.60938  0.83573  0.60594  1.0000
  Fe  Fe197     1.0  0.49947  0.90785  0.56236  1.0000
  C   C2999     1.0  0.67205  0.84679  0.60276  1.0000
  C   C3000     1.0  0.55499  0.92042  0.65038  1.0000
  C   C3001     1.0  0.52684  0.85482  0.64392  1.0000
  H   H2408     1.0  0.73299  0.95005  0.41399  1.0000
  C   C3002     1.0  0.68809  0.80855  0.62761  1.0000
  C   C3003     1.0  0.71695  0.96647  0.39340  1.0000
  H   H2409     1.0  0.50998  0.85243  0.62139  1.0000
  H   H2410     1.0  0.54716  0.96822  0.38979  1.0000
  C   C3004     1.0  0.71800  0.80541  0.59618  1.0000
  C   C3005     1.0  0.69325  0.82139  0.63915  1.0000
  C   C3006     1.0  0.71474  0.95475  0.32358  1.0000
  C   C3007     1.0  0.50498  0.86696  0.35351  1.0000
  C   C3008     1.0  0.68838  0.83683  0.59510  1.0000
  C   C3009     1.0  0.53747  0.96264  0.54707  1.0000
  C   C3010     1.0  0.67908  0.79287  0.63585  1.0000
  H   H2411     1.0  0.53312  0.93038  0.50426  1.0000
  H   H2412     1.0  0.63704  0.80095  0.57253  1.0000
  H   H2413     1.0  0.67482  0.78278  0.62733  1.0000
  C   C3011     1.0  0.66757  0.86561  0.59650  1.0000
  C   C3012     1.0  0.53730  0.87162  0.43042  1.0000
  Fe  Fe198     1.0  0.50962  0.92524  0.59658  1.0000
  H   H2414     1.0  0.49091  0.95320  0.39824  1.0000
  H   H2415     1.0  0.49988  0.92862  0.49223  1.0000
  H   H2416     1.0  0.70553  0.87233  0.56522  1.0000
  C   C3013     1.0  0.70950  0.93707  0.33089  1.0000
  H   H2417     1.0  0.52447  0.84923  0.44760  1.0000
  C   C3014     1.0  0.72104  0.96020  0.41169  1.0000
  C   C3015     1.0  0.57793  0.93998  0.48955  1.0000
  C   C3016     1.0  0.53302  0.86086  0.44728  1.0000
  C   C3017     1.0  0.72674  0.86589  0.35133  1.0000
  P   P103      1.0  0.56875  0.91075  0.44581  1.0000
  S   S395      1.0  0.49733  0.91727  0.42420  1.0000
  C   C3018     1.0  0.61500  0.88743  0.41570  1.0000
  S   S396      1.0  0.49553  0.87771  0.40532  1.0000
  H   H2418     1.0  0.58767  0.90016  0.41004  1.0000
  C   C3019     1.0  0.59730  0.89638  0.42076  1.0000
  C   C3020     1.0  0.55138  0.95762  0.40075  1.0000
  C   C3021     1.0  0.51505  0.88270  0.35271  1.0000
  C   C3022     1.0  0.62216  0.88507  0.44804  1.0000
  H   H2419     1.0  0.59053  0.93597  0.41900  1.0000
  C   C3023     1.0  0.49224  0.88536  0.48073  1.0000
  C   C3024     1.0  0.59205  0.90013  0.43947  1.0000
  H   H2420     1.0  0.53597  0.97187  0.48608  1.0000
  C   C3025     1.0  0.56100  0.93953  0.50094  1.0000
  H   H2421     1.0  0.53684  0.91568  0.47448  1.0000
  S   S397      1.0  0.49529  0.88000  0.57906  1.0000
  C   C3026     1.0  0.57643  0.90292  0.31925  1.0000
  H   H2422     1.0  0.54622  0.98584  0.42687  1.0000
  C   C3027     1.0  0.54313  0.93419  0.42602  1.0000
  H   H2423     1.0  0.50091  0.95834  0.57587  1.0000
  C   C3028     1.0  0.55029  0.88046  0.46344  1.0000
  H   H2424     1.0  0.68906  0.94803  0.37347  1.0000
  C   C3029     1.0  0.58032  0.93122  0.47284  1.0000
  C   C3030     1.0  0.72819  0.85921  0.61498  1.0000
  C   C3031     1.0  0.54629  0.93070  0.49544  1.0000
  C   C3032     1.0  0.50963  0.97077  0.59915  1.0000
  C   C3033     1.0  0.54857  0.92211  0.47866  1.0000
  C   C3034     1.0  0.57576  0.93920  0.41721  1.0000
  H   H2425     1.0  0.68848  0.95998  0.63614  1.0000
  H   H2426     1.0  0.51392  0.94987  0.53947  1.0000
  H   H2427     1.0  0.50995  0.89410  0.36119  1.0000
  H   H2428     1.0  0.72592  0.96117  0.38170  1.0000
  Fe  Fe199     1.0  0.63729  0.88658  0.34161  1.0000
  S   S398      1.0  0.70956  0.88414  0.34324  1.0000
  H   H2429     1.0  0.71412  0.80185  0.56734  1.0000
  C   C3035     1.0  0.67962  0.87483  0.58302  1.0000
  C   C3036     1.0  0.56584  0.92176  0.46754  1.0000
  H   H2430     1.0  0.65471  0.87305  0.60220  1.0000
  H   H2431     1.0  0.54019  0.95204  0.55856  1.0000
  H   H2432     1.0  0.55080  0.89529  0.41690  1.0000
  C   C3037     1.0  0.68508  0.77941  0.58869  1.0000
  H   H2433     1.0  0.50388  0.83994  0.34344  1.0000
  H   H2434     1.0  0.58090  0.96055  0.39448  1.0000
  C   C3038     1.0  0.49593  0.90420  0.47846  1.0000
  C   C3039     1.0  0.69433  0.98007  0.42395  1.0000
  C   C3040     1.0  0.72407  0.80120  0.57776  1.0000
  H   H2435     1.0  0.59344  0.93185  0.46405  1.0000
  C   C3041     1.0  0.57593  0.84420  0.33974  1.0000
  C   C3042     1.0  0.71077  0.97016  0.33426  1.0000
  H   H2436     1.0  0.63170  0.88035  0.45862  1.0000
  C   C3043     1.0  0.49866  0.98155  0.39573  1.0000
  H   H2437     1.0  0.53247  0.92689  0.43467  1.0000
  H   H2438     1.0  0.52313  0.95127  0.40995  1.0000
  C   C3044     1.0  0.53951  0.86528  0.46379  1.0000
  H   H2439     1.0  0.53605  0.85698  0.47687  1.0000
  C   C3045     1.0  0.70040  0.84618  0.58145  1.0000
  C   C3046     1.0  0.60942  0.83584  0.33955  1.0000
  S   S399      1.0  0.50635  0.89897  0.61541  1.0000
  C   C3047     1.0  0.49760  0.91388  0.49418  1.0000
  C   C3048     1.0  0.49481  0.98131  0.44614  1.0000
  H   H2440     1.0  0.56197  0.84232  0.34630  1.0000
  H   H2441     1.0  0.66258  0.83999  0.61341  1.0000
  C   C3049     1.0  0.51168  0.85218  0.34270  1.0000
  H   H2442     1.0  0.71325  0.83906  0.57548  1.0000
  C   C3050     1.0  0.49328  0.88557  0.51465  1.0000
  C   C3051     1.0  0.67920  0.79837  0.59097  1.0000
  C   C3052     1.0  0.50145  0.97117  0.58232  1.0000
  C   C3053     1.0  0.65823  0.98440  0.36323  1.0000
  C   C3054     1.0  0.69634  0.95010  0.35960  1.0000
  C   C3055     1.0  0.66169  0.80598  0.58525  1.0000
  C   C3056     1.0  0.65051  0.79494  0.57694  1.0000
  H   H2443     1.0  0.54619  0.96220  0.45454  1.0000
  H   H2444     1.0  0.52584  0.92175  0.64557  1.0000
  C   C3057     1.0  0.57891  0.85726  0.32408  1.0000
  C   C3058     1.0  0.65662  0.77620  0.57442  1.0000
  S   S400      1.0  0.49668  0.91819  0.53162  1.0000
  C   C3059     1.0  0.73038  0.85586  0.63417  1.0000
  H   H2445     1.0  0.67621  0.88951  0.57846  1.0000
  H   H2446     1.0  0.58835  0.92785  0.32488  1.0000
  S   S401      1.0  0.65997  0.86823  0.32597  1.0000
  H   H2447     1.0  0.64792  0.76768  0.56798  1.0000
  C   C3060     1.0  0.52833  0.85323  0.33091  1.0000
  C   C3061     1.0  0.49134  0.87596  0.49887  1.0000
  H   H2448     1.0  0.71292  0.96211  0.44112  1.0000
  Fe  Fe200     1.0  0.65145  0.92315  0.32273  1.0000
  H   H2449     1.0  0.68587  0.92580  0.63788  1.0000
  H   H2450     1.0  0.53336  0.84164  0.32264  1.0000
  C   C3062     1.0  0.54870  0.97758  0.54313  1.0000
  H   H2451     1.0  0.70001  0.83365  0.63307  1.0000
  C   C3063     1.0  0.49604  0.90471  0.51237  1.0000
  H   H2452     1.0  0.72730  0.80873  0.62335  1.0000
  H   H2453     1.0  0.58896  0.81337  0.63450  1.0000
  C   C3064     1.0  0.73133  0.80503  0.60922  1.0000
  C   C3065     1.0  0.51147  0.84918  0.63625  1.0000
  C   C3066     1.0  0.58809  0.82179  0.64628  1.0000
  C   C3067     1.0  0.53591  0.98240  0.47427  1.0000
  H   H2454     1.0  0.62899  0.98211  0.36083  1.0000
  C   C3068     1.0  0.70139  0.97948  0.39027  1.0000
  S   S402      1.0  0.64087  0.95428  0.32301  1.0000
  H   H2455     1.0  0.63658  0.98114  0.64079  1.0000
  H   H2456     1.0  0.55988  0.83294  0.64261  1.0000
  C   C3069     1.0  0.61252  0.84881  0.32404  1.0000
  C   C3070     1.0  0.69016  0.98633  0.40568  1.0000
  C   C3071     1.0  0.69963  0.95023  0.64147  1.0000
  H   H2457     1.0  0.71244  0.92509  0.32264  1.0000
  H   H2458     1.0  0.49213  0.87832  0.52857  1.0000
  H   H2459     1.0  0.68560  0.98539  0.43578  1.0000
  C   C3072     1.0  0.69816  0.93092  0.64246  1.0000
  H   H2460     1.0  0.59952  0.96493  0.31879  1.0000
  H   H2461     1.0  0.55656  0.93469  0.64434  1.0000
  H   H2462     1.0  0.71477  0.98372  0.32820  1.0000
  Fe  Fe201     1.0  0.64025  0.87417  0.64769  1.0000
  S   S403      1.0  0.64525  0.94197  0.65032  1.0000
  H   H2463     1.0  0.48865  0.86131  0.50078  1.0000
  C   C3073     1.0  0.57157  0.83306  0.65090  1.0000
  H   H2464     1.0  0.71094  0.90334  0.65031  1.0000
  H   H2465     1.0  0.71607  0.97195  0.64735  1.0000
  C   C3074     1.0  0.71234  0.91827  0.64960  1.0000
  C   C3075     1.0  0.53765  0.91310  0.65110  1.0000
  C   C3076     1.0  0.71521  0.95693  0.64778  1.0000
  H   H2466     1.0  0.62672  0.85082  0.31823  1.0000
  Fe  Fe202     1.0  0.64919  0.87746  0.68796  1.0000
  C   C3077     1.0  0.52915  0.85061  0.66304  1.0000
  S   S404      1.0  0.64573  0.87050  0.71984  1.0000
  H   H2467     1.0  0.66590  0.98546  0.86969  1.0000
  P   P104      1.0  0.49320  0.87872  0.79192  1.0000
  S   S405      1.0  0.62842  0.89358  0.66951  1.0000
  S   S406      1.0  0.67248  0.89591  0.67778  1.0000
  Fe  Fe203     1.0  0.57837  0.82776  0.80501  1.0000
  S   S407      1.0  0.60207  0.82219  0.82358  1.0000
  S   S408      1.0  0.57894  0.83529  0.77321  1.0000
  Fe  Fe204     1.0  0.54854  0.82186  0.83819  1.0000
  S   S409      1.0  0.57028  0.81587  0.85913  1.0000
  S   S410      1.0  0.51744  0.82593  0.84879  1.0000
  Fe  Fe205     1.0  0.58379  0.84053  0.84331  1.0000
  S   S411      1.0  0.59580  0.86203  0.85919  1.0000
  Fe  Fe206     1.0  0.58683  0.79776  0.83814  1.0000
  S   S412      1.0  0.60355  0.76836  0.84266  1.0000
  S   S413      1.0  0.56121  0.84754  0.82382  1.0000
  S   S414      1.0  0.56402  0.80237  0.81807  1.0000
  Fe  Fe207     1.0  0.57124  0.96759  0.89420  1.0000
  S   S415      1.0  0.55876  0.96666  0.92428  1.0000
  S   S416      1.0  0.56750  0.94781  0.87183  1.0000
  Fe  Fe208     1.0  0.67460  0.63994  0.89697  1.0000
  S   S417      1.0  0.64632  0.64651  0.88496  1.0000
  S   S418      1.0  0.70497  0.63960  0.88330  1.0000
  Fe  Fe209     1.0  0.65710  0.64060  0.93773  1.0000
  S   S419      1.0  0.62807  0.64740  0.92876  1.0000
  S   S420      1.0  0.66586  0.63072  0.96702  1.0000
  Fe  Fe210     1.0  0.63585  0.62543  0.90842  1.0000
  S   S421      1.0  0.61239  0.60580  0.91003  1.0000
  Fe  Fe211     1.0  0.64005  0.66816  0.90601  1.0000
  S   S422      1.0  0.62372  0.69780  0.90295  1.0000
  S   S423      1.0  0.66434  0.61757  0.91853  1.0000
  S   S424      1.0  0.66879  0.66277  0.91681  1.0000
  Fe  Fe212     1.0  0.58535  0.50238  0.90540  1.0000
  S   S425      1.0  0.61065  0.51924  0.89730  1.0000
  S   S426      1.0  0.55690  0.51373  0.91738  1.0000
  C   C3078     1.0  0.62507  0.89430  0.79272  1.0000
  H   H2468     1.0  0.66581  0.69821  0.89269  1.0000
  C   C3079     1.0  0.72146  0.62197  0.87370  1.0000
  C   C3080     1.0  0.71596  0.60735  0.86465  1.0000
  H   H2469     1.0  0.51297  0.85950  0.82317  1.0000
  H   H2470     1.0  0.70118  0.60586  0.86433  1.0000
  C   C3081     1.0  0.61276  0.58141  0.90744  1.0000
  C   C3082     1.0  0.59608  0.57261  0.91220  1.0000
  C   C3083     1.0  0.59533  0.55352  0.90956  1.0000
  C   C3084     1.0  0.61125  0.54302  0.90199  1.0000
  C   C3085     1.0  0.62807  0.55167  0.89772  1.0000
  C   C3086     1.0  0.62886  0.57075  0.90048  1.0000
  H   H2471     1.0  0.58358  0.58073  0.91762  1.0000
  H   H2472     1.0  0.58233  0.54707  0.91295  1.0000
  H   H2473     1.0  0.64046  0.54369  0.89184  1.0000
  H   H2474     1.0  0.64173  0.57737  0.89666  1.0000
  C   C3087     1.0  0.50105  0.58406  0.89093  1.0000
  C   C3088     1.0  0.71659  0.77212  0.89644  1.0000
  C   C3089     1.0  0.51575  0.84064  0.67444  1.0000
  H   H2475     1.0  0.64451  0.66609  0.97630  1.0000
  H   H2476     1.0  0.63630  0.52018  0.95038  1.0000
  H   H2477     1.0  0.64810  0.90998  0.72120  1.0000
  H   H2478     1.0  0.54520  0.87552  0.76917  1.0000
  C   C3090     1.0  0.68139  0.71916  0.84247  1.0000
  C   C3091     1.0  0.51512  0.95501  0.98063  1.0000
  H   H2479     1.0  0.60266  0.94919  0.76078  1.0000
  C   C3092     1.0  0.60850  0.74874  0.85970  1.0000
  C   C3093     1.0  0.60195  0.74870  0.87873  1.0000
  C   C3094     1.0  0.60684  0.73312  0.89162  1.0000
  C   C3095     1.0  0.61812  0.71712  0.88579  1.0000
  C   C3096     1.0  0.62450  0.71709  0.86674  1.0000
  C   C3097     1.0  0.61988  0.73279  0.85391  1.0000
  H   H2480     1.0  0.59326  0.76076  0.88357  1.0000
  H   H2481     1.0  0.60172  0.73346  0.90624  1.0000
  H   H2482     1.0  0.63289  0.70493  0.86181  1.0000
  H   H2483     1.0  0.62505  0.73249  0.83929  1.0000
  C   C3098     1.0  0.58740  0.88579  0.86264  1.0000
  C   C3099     1.0  0.57459  0.89625  0.85138  1.0000
  C   C3100     1.0  0.56880  0.91520  0.85435  1.0000
  C   C3101     1.0  0.57534  0.92383  0.86887  1.0000
  C   C3102     1.0  0.58801  0.91332  0.88021  1.0000
  C   C3103     1.0  0.59411  0.89450  0.87698  1.0000
  H   H2484     1.0  0.56933  0.88978  0.84029  1.0000
  H   H2485     1.0  0.55920  0.92327  0.84535  1.0000
  H   H2486     1.0  0.59325  0.91972  0.89137  1.0000
  H   H2487     1.0  0.60404  0.88657  0.88577  1.0000
  S   S427      1.0  0.59722  0.98018  0.90037  1.0000
  C   C3104     1.0  0.58624  0.84437  0.67592  1.0000
  H   H2488     1.0  0.51713  0.83714  0.68922  1.0000
  C   C3105     1.0  0.64243  0.98598  0.74229  1.0000
  H   H2489     1.0  0.51513  0.80210  0.81853  1.0000
  C   C3106     1.0  0.60307  0.68818  0.97926  1.0000
  C   C3107     1.0  0.51203  0.81828  0.77703  1.0000
  H   H2490     1.0  0.50753  0.50521  0.92909  1.0000
  C   C3108     1.0  0.62707  0.86045  0.73433  1.0000
  C   C3109     1.0  0.62820  0.85763  0.75384  1.0000
  C   C3110     1.0  0.61370  0.84984  0.76590  1.0000
  C   C3111     1.0  0.59790  0.84465  0.75858  1.0000
  C   C3112     1.0  0.59679  0.84743  0.73905  1.0000
  C   C3113     1.0  0.61123  0.85535  0.72699  1.0000
  H   H2491     1.0  0.64042  0.86140  0.75970  1.0000
  H   H2492     1.0  0.61478  0.84778  0.78086  1.0000
  H   H2493     1.0  0.58472  0.84343  0.73320  1.0000
  H   H2494     1.0  0.61018  0.85738  0.71204  1.0000
  C   C3114     1.0  0.60376  0.82208  0.65619  1.0000
  H   H2495     1.0  0.60613  0.70229  0.97388  1.0000
  C   C3115     1.0  0.71407  0.73594  0.88635  1.0000
  S   S428      1.0  0.71255  0.86323  0.65194  1.0000
  C   C3116     1.0  0.67297  0.72203  0.91711  1.0000
  C   C3117     1.0  0.68884  0.71337  0.92550  1.0000
  C   C3118     1.0  0.62159  0.53399  0.97377  1.0000
  C   C3119     1.0  0.66884  0.69773  0.95007  1.0000
  C   C3120     1.0  0.65299  0.70619  0.94176  1.0000
  C   C3121     1.0  0.65504  0.71835  0.92540  1.0000
  C   C3122     1.0  0.64835  0.76245  0.87876  1.0000
  C   C3123     1.0  0.63462  0.77770  0.87880  1.0000
  H   H2496     1.0  0.66729  0.68813  0.96262  1.0000
  H   H2497     1.0  0.52428  0.97612  0.90238  1.0000
  C   C3124     1.0  0.53338  0.54180  0.98016  1.0000
  H   H2498     1.0  0.63909  0.70300  0.94770  1.0000
  H   H2499     1.0  0.65218  0.75600  0.86582  1.0000
  H   H2500     1.0  0.62825  0.78283  0.86601  1.0000
  C   C3125     1.0  0.71020  0.88156  0.70415  1.0000
  C   C3126     1.0  0.63084  0.86658  0.81442  1.0000
  C   C3127     1.0  0.58685  0.89452  0.75994  1.0000
  C   C3128     1.0  0.60135  0.92943  0.79800  1.0000
  C   C3129     1.0  0.61099  0.93032  0.81388  1.0000
  C   C3130     1.0  0.60424  0.94294  0.82712  1.0000
  C   C3131     1.0  0.58794  0.95487  0.82459  1.0000
  C   C3132     1.0  0.57826  0.95412  0.80886  1.0000
  C   C3133     1.0  0.58487  0.94141  0.79565  1.0000
  H   H2501     1.0  0.62548  0.85550  0.82425  1.0000
  H   H2502     1.0  0.60348  0.87827  0.80819  1.0000
  H   H2503     1.0  0.59800  0.89573  0.74872  1.0000
  H   H2504     1.0  0.57036  0.88036  0.74349  1.0000
  H   H2505     1.0  0.62339  0.92093  0.81647  1.0000
  H   H2506     1.0  0.61126  0.94305  0.83975  1.0000
  H   H2507     1.0  0.58253  0.96424  0.83520  1.0000
  H   H2508     1.0  0.56533  0.96300  0.80725  1.0000
  H   H2509     1.0  0.57685  0.94053  0.78388  1.0000
  H   H2510     1.0  0.63175  0.78548  0.92481  1.0000
  H   H2511     1.0  0.68528  0.72506  0.82833  1.0000
  C   C3134     1.0  0.57399  0.89813  0.79197  1.0000
  C   C3135     1.0  0.60283  0.83335  0.67103  1.0000
  C   C3136     1.0  0.73148  0.74334  0.88468  1.0000
  H   H2512     1.0  0.68315  0.52421  0.97928  1.0000
  C   C3137     1.0  0.54255  0.86999  0.88478  1.0000
  S   S429      1.0  0.51859  0.50209  0.88846  1.0000
  H   H2513     1.0  0.73240  0.53131  0.84805  1.0000
  H   H2514     1.0  0.50264  0.84964  0.88165  1.0000
  H   H2515     1.0  0.49926  0.91826  0.71920  1.0000
  P   P105      1.0  0.67536  0.73684  0.89530  1.0000
  H   H2516     1.0  0.66457  0.57238  0.92327  1.0000
  C   C3138     1.0  0.55123  0.88291  0.66453  1.0000
  C   C3139     1.0  0.58750  0.97913  0.97933  1.0000
  H   H2517     1.0  0.68876  0.58750  0.93714  1.0000
  C   C3140     1.0  0.59865  0.65627  0.97378  1.0000
  C   C3141     1.0  0.50857  0.55215  0.90402  1.0000
  C   C3142     1.0  0.72337  0.64279  0.82854  1.0000
  H   H2518     1.0  0.67196  0.88362  0.79648  1.0000
  C   C3143     1.0  0.53243  0.94417  0.98172  1.0000
  H   H2519     1.0  0.49004  0.82731  0.67553  1.0000
  H   H2520     1.0  0.55765  0.86697  0.88261  1.0000
  C   C3144     1.0  0.61834  0.87965  0.80523  1.0000
  H   H2521     1.0  0.52015  0.90466  0.77305  1.0000
  C   C3145     1.0  0.67048  0.70419  0.87883  1.0000
  C   C3146     1.0  0.62279  0.52469  0.95739  1.0000
  H   H2522     1.0  0.55537  0.82588  0.69970  1.0000
  H   H2523     1.0  0.63711  0.94231  0.70923  1.0000
  C   C3147     1.0  0.54594  0.85561  0.69792  1.0000
  C   C3148     1.0  0.53909  0.87081  0.70825  1.0000
  C   C3149     1.0  0.55027  0.83787  0.70741  1.0000
  C   C3150     1.0  0.51438  0.56938  0.89603  1.0000
  S   S430      1.0  0.59708  0.97171  0.95716  1.0000
  H   H2524     1.0  0.65976  0.85766  0.81825  1.0000
  C   C3151     1.0  0.65656  0.75562  0.89528  1.0000
  C   C3152     1.0  0.49803  0.91094  0.73313  1.0000
  H   H2525     1.0  0.55254  0.82204  0.73432  1.0000
  C   C3153     1.0  0.61907  0.92225  0.75950  1.0000
  C   C3154     1.0  0.49833  0.81848  0.83855  1.0000
  C   C3155     1.0  0.53902  0.54300  0.96093  1.0000
  H   H2526     1.0  0.63606  0.89676  0.75240  1.0000
  C   C3156     1.0  0.50045  0.85471  0.78714  1.0000
  H   H2527     1.0  0.52924  0.57116  0.89329  1.0000
  C   C3157     1.0  0.61928  0.94773  0.73447  1.0000
  C   C3158     1.0  0.63220  0.93684  0.72330  1.0000
  C   C3159     1.0  0.66502  0.96031  0.67323  1.0000
  C   C3160     1.0  0.54573  0.55946  0.95188  1.0000
  C   C3161     1.0  0.55838  0.88916  0.78890  1.0000
  H   H2528     1.0  0.67675  0.69219  0.83394  1.0000
  C   C3162     1.0  0.53728  0.86840  0.72786  1.0000
  H   H2529     1.0  0.55166  0.58771  0.95493  1.0000
  Fe  Fe213     1.0  0.65241  0.91068  0.65806  1.0000
  H   H2530     1.0  0.49682  0.53124  0.94894  1.0000
  C   C3163     1.0  0.50644  0.88710  0.80887  1.0000
  H   H2531     1.0  0.57394  0.53771  0.98315  1.0000
  Fe  Fe214     1.0  0.58339  0.98140  0.93016  1.0000
  C   C3164     1.0  0.52460  0.90015  0.83712  1.0000
  C   C3165     1.0  0.52371  0.88093  0.83643  1.0000
  C   C3166     1.0  0.51429  0.87443  0.82270  1.0000
  C   C3167     1.0  0.50959  0.90335  0.76371  1.0000
  H   H2532     1.0  0.71587  0.63110  0.82597  1.0000
  H   H2533     1.0  0.58388  0.91484  0.65636  1.0000
  P   P106      1.0  0.54898  0.85845  0.67265  1.0000
  H   H2534     1.0  0.65661  0.75912  0.92483  1.0000
  S   S431      1.0  0.65924  0.85653  0.66710  1.0000
  C   C3168     1.0  0.51428  0.94659  0.94886  1.0000
  H   H2535     1.0  0.70285  0.71562  0.91932  1.0000
  C   C3169     1.0  0.68674  0.70132  0.94195  1.0000
  C   C3170     1.0  0.52493  0.82909  0.78307  1.0000
  C   C3171     1.0  0.51924  0.84731  0.78789  1.0000
  C   C3172     1.0  0.65015  0.86791  0.81115  1.0000
  C   C3173     1.0  0.49583  0.51681  0.95467  1.0000
  P   P107      1.0  0.60881  0.91186  0.78174  1.0000
  C   C3174     1.0  0.65740  0.55340  0.96854  1.0000
  H   H2536     1.0  0.61680  0.81400  0.65204  1.0000
  H   H2537     1.0  0.53143  0.90506  0.84821  1.0000
  H   H2538     1.0  0.53009  0.87094  0.84671  1.0000
  C   C3175     1.0  0.51130  0.86024  0.88465  1.0000
  H   H2539     1.0  0.52210  0.88921  0.65868  1.0000
  H   H2540     1.0  0.52235  0.92182  0.74167  1.0000
  H   H2541     1.0  0.68116  0.97529  0.68951  1.0000
  H   H2542     1.0  0.61767  0.79753  0.89533  1.0000
  H   H2543     1.0  0.60757  0.51406  0.93715  1.0000
  H   H2544     1.0  0.54160  0.84906  0.75231  1.0000
  H   H2545     1.0  0.67012  0.94656  0.67923  1.0000
  H   H2546     1.0  0.50318  0.95682  0.88924  1.0000
  H   H2547     1.0  0.53937  0.82331  0.78413  1.0000
  H   H2548     1.0  0.52958  0.85540  0.79234  1.0000
  H   H2549     1.0  0.69421  0.82834  0.66738  1.0000
  C   C3176     1.0  0.50941  0.97773  0.90657  1.0000
  C   C3177     1.0  0.72364  0.67239  0.84176  1.0000
  C   C3178     1.0  0.53080  0.85638  0.88210  1.0000
  H   H2550     1.0  0.66748  0.67884  0.86628  1.0000
  H   H2551     1.0  0.50562  0.59724  0.88423  1.0000
  C   C3179     1.0  0.67128  0.97663  0.67898  1.0000
  H   H2552     1.0  0.61408  0.96163  0.72890  1.0000
  C   C3180     1.0  0.65519  0.55715  0.94931  1.0000
  C   C3181     1.0  0.67659  0.70066  0.84560  1.0000
  H   H2553     1.0  0.55048  0.56014  0.93705  1.0000
  H   H2554     1.0  0.53545  0.88454  0.70122  1.0000
  C   C3182     1.0  0.54051  0.93455  0.96649  1.0000
  C   C3183     1.0  0.58837  0.90086  0.77750  1.0000
  H   H2555     1.0  0.69907  0.65741  0.84239  1.0000
  C   C3184     1.0  0.59117  0.59652  0.98188  1.0000
  H   H2556     1.0  0.53242  0.88017  0.73584  1.0000
  H   H2557     1.0  0.66832  0.77812  0.66166  1.0000
  C   C3185     1.0  0.61281  0.94056  0.75253  1.0000
  C   C3186     1.0  0.63172  0.91126  0.74792  1.0000
  H   H2558     1.0  0.57508  0.90240  0.80581  1.0000
  C   C3187     1.0  0.55695  0.88299  0.77137  1.0000
  H   H2559     1.0  0.67802  0.80081  0.68184  1.0000
  C   C3188     1.0  0.50103  0.80708  0.82369  1.0000
  C   C3189     1.0  0.67537  0.72274  0.87585  1.0000
  S   S432      1.0  0.54930  0.49354  0.97005  1.0000
  C   C3190     1.0  0.57050  0.84448  0.66577  1.0000
  H   H2560     1.0  0.67212  0.98525  0.73393  1.0000
  H   H2561     1.0  0.65005  0.90730  0.78082  1.0000
  H   H2562     1.0  0.50744  0.94781  0.93602  1.0000
  C   C3191     1.0  0.53569  0.89452  0.65835  1.0000
  C   C3192     1.0  0.60239  0.67455  0.96687  1.0000
  P   P108      1.0  0.64279  0.53792  0.98369  1.0000
  H   H2563     1.0  0.72511  0.58431  0.84776  1.0000
  C   C3193     1.0  0.66657  0.56927  0.93803  1.0000
  C   C3194     1.0  0.69776  0.74660  0.89312  1.0000
  C   C3195     1.0  0.54851  0.83556  0.72698  1.0000
  C   C3196     1.0  0.65699  0.88253  0.79890  1.0000
  H   H2564     1.0  0.64452  0.55120  0.94287  1.0000
  H   H2565     1.0  0.54775  0.88645  0.80033  1.0000
  C   C3197     1.0  0.59846  0.58516  0.96768  1.0000
  C   C3198     1.0  0.61594  0.58799  0.95805  1.0000
  C   C3199     1.0  0.62642  0.60178  0.96297  1.0000
  H   H2566     1.0  0.53850  0.53095  0.95312  1.0000
  H   H2567     1.0  0.72860  0.49728  0.85219  1.0000
  H   H2568     1.0  0.71190  0.90943  0.69070  1.0000
  C   C3200     1.0  0.60652  0.52102  0.94992  1.0000
  H   H2569     1.0  0.62719  0.62423  0.98031  1.0000
  C   C3201     1.0  0.62860  0.78596  0.89537  1.0000
  H   H2570     1.0  0.71631  0.68359  0.84941  1.0000
  C   C3202     1.0  0.68243  0.57427  0.96490  1.0000
  C   C3203     1.0  0.68095  0.73011  0.85754  1.0000
  H   H2571     1.0  0.64259  0.72450  0.91896  1.0000
  C   C3204     1.0  0.56851  0.89056  0.66414  1.0000
  H   H2572     1.0  0.71755  0.78615  0.90035  1.0000
  C   C3205     1.0  0.71387  0.65767  0.83772  1.0000
  C   C3206     1.0  0.69916  0.76475  0.89816  1.0000
  C   C3207     1.0  0.58892  0.52605  0.95900  1.0000
  H   H2573     1.0  0.71161  0.85241  0.71480  1.0000
  H   H2574     1.0  0.59042  0.57450  0.96368  1.0000
  H   H2575     1.0  0.62120  0.57979  0.94649  1.0000
  H   H2576     1.0  0.64004  0.60393  0.95554  1.0000
  C   C3208     1.0  0.63651  0.77913  0.91194  1.0000
  C   C3209     1.0  0.51622  0.91295  0.82384  1.0000
  C   C3210     1.0  0.63844  0.91863  0.73006  1.0000
  H   H2577     1.0  0.53678  0.84291  0.87758  1.0000
  C   C3211     1.0  0.54041  0.57397  0.98115  1.0000
  H   H2578     1.0  0.57638  0.52276  0.95335  1.0000
  H   H2579     1.0  0.51649  0.92789  0.82473  1.0000
  H   H2580     1.0  0.59801  0.64601  0.96388  1.0000
  H   H2581     1.0  0.60481  0.67815  0.95186  1.0000
  Fe  Fe215     1.0  0.68148  0.87569  0.65562  1.0000
  C   C3212     1.0  0.72819  0.92484  0.65576  1.0000
  H   H2582     1.0  0.56456  0.62813  0.97362  1.0000
  C   C3213     1.0  0.49801  0.49031  0.89431  1.0000
  Fe  Fe216     1.0  0.55984  0.49009  0.93991  1.0000
  C   C3214     1.0  0.58758  0.53459  0.97573  1.0000
  H   H2583     1.0  0.69259  0.58142  0.97098  1.0000
  H   H2584     1.0  0.51641  0.80403  0.77365  1.0000
  C   C3215     1.0  0.50334  0.87748  0.89090  1.0000
  C   C3216     1.0  0.65050  0.76410  0.91190  1.0000
  H   H2585     1.0  0.51890  0.54045  0.90714  1.0000
  C   C3217     1.0  0.68018  0.57782  0.94581  1.0000
  C   C3218     1.0  0.51100  0.91299  0.74581  1.0000
  H   H2586     1.0  0.53777  0.92838  0.93826  1.0000
  C   C3219     1.0  0.71848  0.86309  0.70568  1.0000
  C   C3220     1.0  0.54223  0.85085  0.73718  1.0000
  H   H2587     1.0  0.54398  0.89824  0.89169  1.0000
  H   H2588     1.0  0.58580  0.85289  0.68756  1.0000
  C   C3221     1.0  0.64451  0.89582  0.78989  1.0000
  H   H2589     1.0  0.69693  0.88512  0.71215  1.0000
  C   C3222     1.0  0.60382  0.53866  0.98307  1.0000
  C   C3223     1.0  0.67132  0.69314  0.86380  1.0000
  H   H2590     1.0  0.68686  0.77330  0.90340  1.0000
  C   C3224     1.0  0.71866  0.89524  0.69186  1.0000
  C   C3225     1.0  0.53481  0.88755  0.88997  1.0000
  C   C3226     1.0  0.67128  0.56196  0.97617  1.0000
  H   H2591     1.0  0.55404  0.92649  0.96726  1.0000
  C   C3227     1.0  0.61909  0.61329  0.97700  1.0000
  C   C3228     1.0  0.49333  0.82556  0.77612  1.0000
  C   C3229     1.0  0.65264  0.96186  0.65926  1.0000
  H   H2592     1.0  0.58080  0.88212  0.66869  1.0000
  C   C3230     1.0  0.53137  0.93562  0.95014  1.0000
  H   H2593     1.0  0.69899  0.69447  0.94827  1.0000
  H   H2594     1.0  0.71335  0.72183  0.88253  1.0000
  C   C3231     1.0  0.57110  0.88579  0.75687  1.0000
  C   C3232     1.0  0.72949  0.94432  0.65484  1.0000
  C   C3233     1.0  0.51530  0.89128  0.89309  1.0000
  H   H2595     1.0  0.68479  0.74440  0.85492  1.0000
  C   C3234     1.0  0.72960  0.59519  0.85517  1.0000
  C   C3235     1.0  0.73544  0.89049  0.68085  1.0000
  C   C3236     1.0  0.50710  0.90648  0.80979  1.0000
  C   C3237     1.0  0.48944  0.54966  0.90716  1.0000
  H   H2596     1.0  0.50007  0.91661  0.80005  1.0000
  C   C3238     1.0  0.50184  0.50217  0.94348  1.0000
  C   C3239     1.0  0.68992  0.81841  0.65862  1.0000
  H   H2597     1.0  0.53003  0.62952  0.97516  1.0000
  C   C3240     1.0  0.68087  0.80287  0.66674  1.0000
  C   C3241     1.0  0.73274  0.76143  0.88971  1.0000
  C   C3242     1.0  0.57035  0.90924  0.65711  1.0000
  H   H2598     1.0  0.61509  0.83381  0.67851  1.0000
  C   C3243     1.0  0.54642  0.57495  0.96199  1.0000
  C   C3244     1.0  0.48852  0.51280  0.97321  1.0000
  H   H2599     1.0  0.49321  0.96517  0.96256  1.0000
  C   C3245     1.0  0.49489  0.89193  0.76920  1.0000
  C   C3246     1.0  0.50626  0.95638  0.96396  1.0000
  C   C3247     1.0  0.50031  0.83506  0.66673  1.0000
  C   C3248     1.0  0.49748  0.96673  0.89919  1.0000
  C   C3249     1.0  0.73542  0.85836  0.69516  1.0000
  H   H2600     1.0  0.64352  0.97240  0.75036  1.0000
  H   H2601     1.0  0.50973  0.90493  0.89722  1.0000
  Fe  Fe217     1.0  0.54579  0.49244  0.90149  1.0000
  C   C3250     1.0  0.67513  0.51253  0.98450  1.0000
  C   C3251     1.0  0.67540  0.79013  0.65535  1.0000
  C   C3252     1.0  0.64622  0.97982  0.65155  1.0000
  Fe  Fe218     1.0  0.79139  0.37739  0.15015  1.0000
  S   S433      1.0  0.82081  0.36380  0.15299  1.0000
  S   S434      1.0  0.76951  0.36909  0.13195  1.0000
  Fe  Fe219     1.0  0.80126  0.41390  0.16466  1.0000
  S   S435      1.0  0.83109  0.40282  0.16812  1.0000
  S   S436      1.0  0.78835  0.44382  0.16799  1.0000
  Fe  Fe220     1.0  0.83054  0.39134  0.14028  1.0000
  S   S437      1.0  0.85541  0.39410  0.11842  1.0000
  Fe  Fe221     1.0  0.81933  0.37600  0.18110  1.0000
  S   S438      1.0  0.83402  0.35676  0.20436  1.0000
  S   S439      1.0  0.80166  0.40436  0.13598  1.0000
  S   S440      1.0  0.78890  0.38783  0.17909  1.0000
  C   C3253     1.0  0.81646  0.41631  0.24811  1.0000
  C   C3254     1.0  0.96359  0.38266  0.00355  1.0000
  S   S441      1.0  0.93949  0.38104  0.01166  1.0000
  H   H2602     1.0  0.82351  0.41540  0.26078  1.0000
  H   H2603     1.0  0.76188  0.29705  0.08927  1.0000
  C   C3255     1.0  0.77067  0.12934  0.31486  1.0000
  Fe  Fe222     1.0  0.87037  0.39804  0.00905  1.0000
  S   S442      1.0  0.84554  0.40079  0.03112  1.0000
  S   S443      1.0  0.89535  0.41454  0.00710  1.0000
  H   H2604     1.0  0.81360  0.31835  0.00985  1.0000
  S   S444      1.0  0.89453  0.30491  0.29816  1.0000
  S   S445      1.0  0.85444  0.34791  0.29049  1.0000
  H   H2605     1.0  0.86997  0.39010  0.23855  1.0000
  H   H2606     1.0  0.88159  0.37553  0.26787  1.0000
  C   C3256     1.0  0.88233  0.42219  0.17857  1.0000
  C   C3257     1.0  0.76687  0.41633  0.06803  1.0000
  H   H2607     1.0  0.89933  0.47268  0.03017  1.0000
  C   C3258     1.0  0.82535  0.44627  0.10616  1.0000
  C   C3259     1.0  0.83486  0.27835  0.30609  1.0000
  H   H2608     1.0  0.98290  0.33248  0.29251  1.0000
  C   C3260     1.0  0.81044  0.25053  0.31717  1.0000
  C   C3261     1.0  0.84020  0.35528  0.22815  1.0000
  C   C3262     1.0  0.83190  0.36764  0.24114  1.0000
  C   C3263     1.0  0.83651  0.36525  0.25998  1.0000
  C   C3264     1.0  0.84960  0.35054  0.26625  1.0000
  C   C3265     1.0  0.85819  0.33843  0.25317  1.0000
  C   C3266     1.0  0.85345  0.34073  0.23437  1.0000
  H   H2609     1.0  0.82159  0.37876  0.23674  1.0000
  H   H2610     1.0  0.82978  0.37481  0.26982  1.0000
  H   H2611     1.0  0.86839  0.32721  0.25762  1.0000
  H   H2612     1.0  0.86006  0.33108  0.22456  1.0000
  C   C3267     1.0  0.80189  0.46305  0.16855  1.0000
  C   C3268     1.0  0.82107  0.46035  0.17093  1.0000
  C   C3269     1.0  0.76001  0.31073  0.08150  1.0000
  H   H2613     1.0  0.82810  0.44631  0.17195  1.0000
  H   H2614     1.0  0.85001  0.45160  0.01464  1.0000
  C   C3270     1.0  0.84861  0.39887  0.05531  1.0000
  C   C3271     1.0  0.83269  0.39914  0.06837  1.0000
  C   C3272     1.0  0.83456  0.39756  0.08774  1.0000
  C   C3273     1.0  0.85241  0.39601  0.09420  1.0000
  C   C3274     1.0  0.86831  0.39607  0.08113  1.0000
  C   C3275     1.0  0.86644  0.39742  0.06175  1.0000
  H   H2615     1.0  0.81884  0.40033  0.06350  1.0000
  H   H2616     1.0  0.82222  0.39736  0.09764  1.0000
  H   H2617     1.0  0.88216  0.39486  0.08600  1.0000
  H   H2618     1.0  0.87879  0.39734  0.05181  1.0000
  Fe  Fe223     1.0  0.91235  0.38859  0.99735  1.0000
  H   H2619     1.0  0.84588  0.47359  0.17469  1.0000
  H   H2620     1.0  0.87874  0.39324  0.29587  1.0000
  C   C3276     1.0  0.83532  0.48397  0.21827  1.0000
  H   H2621     1.0  0.79370  0.19507  0.29663  1.0000
  H   H2622     1.0  0.75639  0.17610  0.31450  1.0000
  H   H2623     1.0  0.78543  0.37912  0.09504  1.0000
  C   C3277     1.0  0.92600  0.46576  0.99616  1.0000
  H   H2624     1.0  0.75634  0.33565  0.15475  1.0000
  H   H2625     1.0  0.82023  0.44553  0.07741  1.0000
  H   H2626     1.0  0.75203  0.40555  0.15969  1.0000
  H   H2627     1.0  0.83227  0.37360  0.00711  1.0000
  C   C3278     1.0  0.76821  0.40845  0.05090  1.0000
  C   C3279     1.0  0.80239  0.34370  0.10000  1.0000
  H   H2628     1.0  0.86418  0.42617  0.29436  1.0000
  H   H2629     1.0  0.78297  0.11938  0.31545  1.0000
  H   H2630     1.0  0.84384  0.34166  0.11945  1.0000
  H   H2631     1.0  0.79583  0.32320  0.04042  1.0000
  C   C3280     1.0  0.85002  0.45267  0.22659  1.0000
  C   C3281     1.0  0.75482  0.34633  0.06219  1.0000
  C   C3282     1.0  0.77505  0.32188  0.07769  1.0000
  C   C3283     1.0  0.98344  0.32229  0.30461  1.0000
  H   H2632     1.0  0.77649  0.38386  0.03630  1.0000
  C   C3284     1.0  0.80220  0.16564  0.29352  1.0000
  H   H2633     1.0  0.89058  0.43101  0.16852  1.0000
  H   H2634     1.0  0.78861  0.31639  0.08219  1.0000
  C   C3285     1.0  0.83405  0.34342  0.10877  1.0000
  C   C3286     1.0  0.82378  0.34578  0.00634  1.0000
  H   H2635     1.0  0.81890  0.18275  0.24211  1.0000
  C   C3287     1.0  0.81613  0.42239  0.21444  1.0000
  H   H2636     1.0  0.78986  0.41976  0.20348  1.0000
  H   H2637     1.0  0.97165  0.38307  0.03152  1.0000
  C   C3288     1.0  0.86615  0.46066  0.23029  1.0000
  C   C3289     1.0  0.82750  0.35203  0.07654  1.0000
  C   C3290     1.0  0.82287  0.45434  0.08804  1.0000
  S   S446      1.0  0.88725  0.37133  0.00137  1.0000
  C   C3291     1.0  0.96752  0.42810  0.01155  1.0000
  H   H2638     1.0  0.93559  0.45918  0.00602  1.0000
  H   H2639     1.0  0.82127  0.47964  0.06967  1.0000
  C   C3292     1.0  0.86569  0.41853  0.28198  1.0000
  H   H2640     1.0  0.84464  0.28892  0.30210  1.0000
  C   C3293     1.0  0.87562  0.39006  0.26701  1.0000
  C   C3294     1.0  0.81579  0.15881  0.26236  1.0000
  H   H2641     1.0  0.75252  0.36002  0.05468  1.0000
  H   H2642     1.0  0.83200  0.34346  0.99316  1.0000
  C   C3295     1.0  0.84020  0.34914  0.09025  1.0000
  H   H2643     1.0  0.78768  0.34232  0.10428  1.0000
  C   C3296     1.0  0.77302  0.40558  0.08388  1.0000
  H   H2644     1.0  0.79063  0.40818  0.26312  1.0000
  H   H2645     1.0  0.76116  0.43078  0.06904  1.0000
  H   H2646     1.0  0.75222  0.10767  0.31370  1.0000
  H   H2647     1.0  0.87435  0.44398  0.19679  1.0000
  C   C3297     1.0  0.77565  0.38979  0.04964  1.0000
  H   H2648     1.0  0.85473  0.35191  0.08662  1.0000
  H   H2649     1.0  0.95498  0.42341  0.01952  1.0000
  C   C3298     1.0  0.80013  0.18484  0.28731  1.0000
  C   C3299     1.0  0.74853  0.33833  0.14255  1.0000
  H   H2650     1.0  0.77205  0.41154  0.09725  1.0000
  C   C3300     1.0  0.81517  0.34057  0.11360  1.0000
  C   C3301     1.0  0.87307  0.42949  0.19470  1.0000
  C   C3302     1.0  0.80575  0.24419  0.23781  1.0000
  C   C3303     1.0  0.81938  0.23015  0.23200  1.0000
  C   C3304     1.0  0.83755  0.22943  0.23748  1.0000
  C   C3305     1.0  0.84222  0.24294  0.24848  1.0000
  C   C3306     1.0  0.82874  0.25739  0.25395  1.0000
  C   C3307     1.0  0.81036  0.25770  0.24885  1.0000
  P   P109      1.0  0.83465  0.27515  0.26786  1.0000
  C   C3308     1.0  0.82768  0.26920  0.29241  1.0000
  C   C3309     1.0  0.85975  0.27650  0.26466  1.0000
  C   C3310     1.0  0.87151  0.26511  0.27647  1.0000
  C   C3311     1.0  0.89094  0.26599  0.27397  1.0000
  C   C3312     1.0  0.89881  0.27815  0.25961  1.0000
  C   C3313     1.0  0.88724  0.28936  0.24766  1.0000
  C   C3314     1.0  0.86779  0.28848  0.25009  1.0000
  H   H2651     1.0  0.82294  0.42656  0.20078  1.0000
  Fe  Fe224     1.0  0.87453  0.32837  0.30885  1.0000
  C   C3315     1.0  0.79773  0.41222  0.24953  1.0000
  C   C3316     1.0  0.82375  0.47369  0.08369  1.0000
  C   C3317     1.0  0.79307  0.48148  0.16709  1.0000
  C   C3318     1.0  0.82302  0.29758  0.25969  1.0000
  C   C3319     1.0  0.82047  0.30169  0.24055  1.0000
  C   C3320     1.0  0.81135  0.31889  0.23413  1.0000
  C   C3321     1.0  0.80475  0.33216  0.24672  1.0000
  C   C3322     1.0  0.80753  0.32837  0.26569  1.0000
  C   C3323     1.0  0.81665  0.31118  0.27217  1.0000
  H   H2652     1.0  0.79164  0.24476  0.23361  1.0000
  H   H2653     1.0  0.81585  0.21985  0.22323  1.0000
  H   H2654     1.0  0.84813  0.21851  0.23305  1.0000
  H   H2655     1.0  0.85641  0.24217  0.25249  1.0000
  H   H2656     1.0  0.79967  0.26853  0.25322  1.0000
  H   H2657     1.0  0.86573  0.25568  0.28779  1.0000
  H   H2658     1.0  0.89982  0.25759  0.28356  1.0000
  H   H2659     1.0  0.91383  0.27916  0.25801  1.0000
  H   H2660     1.0  0.89330  0.29900  0.23669  1.0000
  H   H2661     1.0  0.85912  0.29739  0.24074  1.0000
  C   C3324     1.0  0.75226  0.35353  0.12944  1.0000
  C   C3325     1.0  0.80625  0.19099  0.26886  1.0000
  C   C3326     1.0  0.83460  0.46449  0.22053  1.0000
  H   H2662     1.0  0.81023  0.33651  0.12802  1.0000
  C   C3327     1.0  0.87394  0.40003  0.28285  1.0000
  H   H2663     1.0  0.82584  0.29178  0.23048  1.0000
  H   H2664     1.0  0.80995  0.32229  0.21929  1.0000
  H   H2665     1.0  0.79822  0.34571  0.24159  1.0000
  H   H2666     1.0  0.80317  0.33901  0.27530  1.0000
  H   H2667     1.0  0.81894  0.30884  0.28685  1.0000
  C   C3328     1.0  0.86049  0.41702  0.24929  1.0000
  C   C3329     1.0  0.81416  0.17799  0.25641  1.0000
  C   C3330     1.0  0.78818  0.41332  0.23344  1.0000
  H   H2668     1.0  0.81440  0.37875  0.03747  1.0000
  H   H2669     1.0  0.83508  0.14842  0.30900  1.0000
  H   H2670     1.0  0.76357  0.41681  0.03857  1.0000
  C   C3331     1.0  0.86213  0.41819  0.20767  1.0000
  C   C3332     1.0  0.86043  0.39965  0.20403  1.0000
  C   C3333     1.0  0.87006  0.39225  0.18817  1.0000
  C   C3334     1.0  0.88088  0.40355  0.17534  1.0000
  Fe  Fe225     1.0  0.91603  0.31540  0.31442  1.0000
  P   P110      1.0  0.84978  0.42740  0.22849  1.0000
  H   H2671     1.0  0.77365  0.41025  0.23451  1.0000
  H   H2672     1.0  0.85147  0.39091  0.21335  1.0000
  H   H2673     1.0  0.86852  0.37789  0.18553  1.0000
  H   H2674     1.0  0.88785  0.39793  0.16275  1.0000
  C   C3335     1.0  0.77245  0.34000  0.06843  1.0000
  H   H2675     1.0  0.82486  0.43126  0.10953  1.0000
  C   C3336     1.0  0.82831  0.45756  0.12004  1.0000
  C   C3337     1.0  0.85891  0.42697  0.26531  1.0000
  C   C3338     1.0  0.80971  0.15263  0.28082  1.0000
  C   C3339     1.0  0.73967  0.40431  0.15261  1.0000
  C   C3340     1.0  0.79735  0.41853  0.21593  1.0000
  H   H2676     1.0  0.80478  0.20584  0.26424  1.0000
  C   C3341     1.0  0.73991  0.33499  0.06572  1.0000
  H   H2677     1.0  0.82172  0.14870  0.25267  1.0000
  H   H2678     1.0  0.81089  0.13771  0.28523  1.0000
  H   H2679     1.0  0.85196  0.44108  0.26513  1.0000
  H   H2680     1.0  0.82209  0.45886  0.21719  1.0000
  C   C3342     1.0  0.93942  0.41712  0.08292  1.0000
  C   C3343     1.0  0.94074  0.40639  0.06760  1.0000
  C   C3344     1.0  0.92949  0.41183  0.05294  1.0000
  C   C3345     1.0  0.91699  0.42801  0.05345  1.0000
  C   C3346     1.0  0.91540  0.43877  0.06889  1.0000
  C   C3347     1.0  0.92679  0.43325  0.08358  1.0000
  P   P111      1.0  0.89904  0.45955  0.06999  1.0000
  C   C3348     1.0  0.91106  0.48060  0.06414  1.0000
  C   C3349     1.0  0.88233  0.45874  0.05304  1.0000
  C   C3350     1.0  0.86607  0.44933  0.05775  1.0000
  C   C3351     1.0  0.85431  0.44711  0.04397  1.0000
  C   C3352     1.0  0.85872  0.45409  0.02540  1.0000
  C   C3353     1.0  0.87478  0.46358  0.02062  1.0000
  C   C3354     1.0  0.88656  0.46591  0.03434  1.0000
  C   C3355     1.0  0.75331  0.12263  0.31356  1.0000
  C   C3356     1.0  0.86894  0.39846  0.25031  1.0000
  H   H2681     1.0  0.87830  0.45179  0.23469  1.0000
  C   C3357     1.0  0.83116  0.47587  0.17234  1.0000
  C   C3358     1.0  0.86682  0.48017  0.22795  1.0000
  C   C3359     1.0  0.88752  0.45904  0.09359  1.0000
  C   C3360     1.0  0.88494  0.47525  0.10334  1.0000
  C   C3361     1.0  0.87703  0.47440  0.12196  1.0000
  C   C3362     1.0  0.87168  0.45739  0.13102  1.0000
  C   C3363     1.0  0.87412  0.44122  0.12144  1.0000
  C   C3364     1.0  0.88203  0.44201  0.10283  1.0000
  H   H2682     1.0  0.94810  0.41284  0.09432  1.0000
  H   H2683     1.0  0.95038  0.39378  0.06707  1.0000
  H   H2684     1.0  0.93037  0.40341  0.04117  1.0000
  H   H2685     1.0  0.90852  0.43184  0.04183  1.0000
  H   H2686     1.0  0.92584  0.44138  0.09558  1.0000
  H   H2687     1.0  0.86273  0.44307  0.07184  1.0000
  H   H2688     1.0  0.84218  0.43922  0.04751  1.0000
  H   H2689     1.0  0.82977  0.45125  0.13419  1.0000
  H   H2690     1.0  0.87846  0.46860  0.00615  1.0000
  C   C3365     1.0  0.98326  0.43041  0.02069  1.0000
  C   C3366     1.0  0.97659  0.38310  0.01682  1.0000
  H   H2691     1.0  0.74114  0.43108  0.13656  1.0000
  H   H2692     1.0  0.83260  0.35697  0.06245  1.0000
  H   H2693     1.0  0.83189  0.48520  0.12680  1.0000
  H   H2694     1.0  0.93918  0.46681  0.06588  1.0000
  H   H2695     1.0  0.98289  0.42760  0.03578  1.0000
  H   H2696     1.0  0.80971  0.24788  0.28792  1.0000
  H   H2697     1.0  0.86540  0.45678  0.14539  1.0000
  H   H2698     1.0  0.86979  0.42803  0.12838  1.0000
  H   H2699     1.0  0.88393  0.42924  0.09574  1.0000
  C   C3367     1.0  0.81345  0.33165  0.01579  1.0000
  C   C3368     1.0  0.82587  0.42125  0.23050  1.0000
  C   C3369     1.0  0.82389  0.36278  0.01415  1.0000
  C   C3370     1.0  0.81371  0.36569  0.03138  1.0000
  C   C3371     1.0  0.80328  0.35161  0.04097  1.0000
  C   C3372     1.0  0.80334  0.33448  0.03311  1.0000
  P   P112      1.0  0.79164  0.35481  0.06405  1.0000
  C   C3373     1.0  0.80846  0.34932  0.08131  1.0000
  C   C3374     1.0  0.78203  0.37895  0.06548  1.0000
  C   C3375     1.0  0.78062  0.38703  0.08259  1.0000
  S   S447      1.0  0.94558  0.32152  0.30202  1.0000
  H   H2700     1.0  0.77825  0.48371  0.16523  1.0000
  C   C3376     1.0  0.82958  0.47685  0.11571  1.0000
  C   C3377     1.0  0.81538  0.25525  0.29809  1.0000
  C   C3378     1.0  0.93070  0.47995  0.06329  1.0000
  H   H2701     1.0  0.74479  0.36830  0.10335  1.0000
  C   C3379     1.0  0.96810  0.43123  0.99204  1.0000
  C   C3380     1.0  0.77193  0.14864  0.31568  1.0000
  C   C3381     1.0  0.74191  0.35671  0.11365  1.0000
  C   C3382     1.0  0.96685  0.31461  0.31251  1.0000
  C   C3383     1.0  0.92239  0.48532  0.99421  1.0000
  C   C3384     1.0  0.82771  0.48507  0.09736  1.0000
  P   P113      1.0  0.79431  0.15751  0.31725  1.0000
  H   H2702     1.0  0.91974  0.43961  0.98705  1.0000
  C   C3385     1.0  0.74243  0.31732  0.07560  1.0000
  C   C3386     1.0  0.75570  0.16114  0.31430  1.0000
  C   C3387     1.0  0.91683  0.45470  0.98562  1.0000
  H   H2703     1.0  0.87933  0.48630  0.23063  1.0000
  H   H2704     1.0  0.95580  0.42913  0.98532  1.0000
  H   H2705     1.0  0.87506  0.48694  0.12942  1.0000
  Fe  Fe226     1.0  0.83002  0.18004  0.55409  1.0000
  S   S448      1.0  0.82242  0.15141  0.56589  1.0000
  S   S449      1.0  0.82804  0.19262  0.52377  1.0000
  Fe  Fe227     1.0  0.84423  0.18872  0.59121  1.0000
  S   S450      1.0  0.83758  0.16029  0.60545  1.0000
  S   S451      1.0  0.86212  0.20775  0.60454  1.0000
  Fe  Fe228     1.0  0.85016  0.14870  0.57853  1.0000
  S   S452      1.0  0.86925  0.12189  0.57376  1.0000
  Fe  Fe229     1.0  0.81017  0.16498  0.59184  1.0000
  S   S453      1.0  0.78049  0.16158  0.60716  1.0000
  S   S454      1.0  0.85839  0.17652  0.56511  1.0000
  S   S455      1.0  0.81623  0.19432  0.57924  1.0000
  Fe  Fe230     1.0  0.81498  0.15027  0.42714  1.0000
  S   S456      1.0  0.81208  0.12632  0.40989  1.0000
  S   S457      1.0  0.81089  0.14386  0.45902  1.0000
  Fe  Fe231     1.0  0.82433  0.17702  0.39220  1.0000
  S   S458      1.0  0.82208  0.15505  0.37244  1.0000
  S   S459      1.0  0.82950  0.20821  0.38619  1.0000
  Fe  Fe232     1.0  0.79586  0.14704  0.39055  1.0000
  S   S460      1.0  0.76689  0.14349  0.37985  1.0000
  Fe  Fe233     1.0  0.83828  0.13554  0.39313  1.0000
  S   S461      1.0  0.86088  0.11273  0.38415  1.0000
  S   S462      1.0  0.79706  0.17060  0.40907  1.0000
  S   S463      1.0  0.84224  0.15799  0.41156  1.0000
  H   H2706     1.0  0.98071  0.01401  0.60196  1.0000
  C   C3388     1.0  0.85626  0.43474  0.52357  1.0000
  H   H2707     1.0  0.87375  0.21798  0.32942  1.0000
  C   C3389     1.0  0.75159  0.11418  0.61287  1.0000
  C   C3390     1.0  0.79286  0.17612  0.33255  1.0000
  Fe  Fe234     1.0  0.97014  0.08788  0.40236  1.0000
  S   S464      1.0  0.94802  0.11070  0.39221  1.0000
  S   S465      1.0  0.96644  0.05910  0.41703  1.0000
  Fe  Fe235     1.0  0.97584  0.08817  0.59308  1.0000
  C   C3391     1.0  0.94748  0.30272  0.37631  1.0000
  S   S466      1.0  0.94846  0.10123  0.60730  1.0000
  C   C3392     1.0  0.78153  0.11221  0.50911  1.0000
  H   H2708     1.0  0.91077  0.23266  0.33532  1.0000
  H   H2709     1.0  0.90103  0.20558  0.35631  1.0000
  C   C3393     1.0  0.94769  0.22625  0.36192  1.0000
  H   H2710     1.0  0.97492  0.35656  0.52940  1.0000
  Fe  Fe236     1.0  0.89503  0.34157  0.63398  1.0000
  S   S467      1.0  0.90379  0.31103  0.63142  1.0000
  S   S468      1.0  0.90293  0.36338  0.60998  1.0000
  Fe  Fe237     1.0  0.88822  0.32040  0.34904  1.0000
  S   S469      1.0  0.90873  0.29639  0.34011  1.0000
  S   S470      1.0  0.89105  0.32184  0.38028  1.0000
  H   H2711     1.0  0.81399  0.25598  0.34546  1.0000
  H   H2712     1.0  0.93283  0.38408  0.42326  1.0000
  S   S471      1.0  0.86425  0.31084  0.33537  1.0000
  Fe  Fe238     1.0  0.92264  0.38189  0.48306  1.0000
  S   S472      1.0  0.89589  0.36828  0.48369  1.0000
  S   S473      1.0  0.95049  0.36511  0.48484  1.0000
  Fe  Fe239     1.0  0.90361  0.42186  0.48124  1.0000
  S   S474      1.0  0.87502  0.41146  0.48181  1.0000
  S   S475      1.0  0.91450  0.45087  0.47828  1.0000
  Fe  Fe240     1.0  0.88480  0.38928  0.50431  1.0000
  S   S476      1.0  0.86779  0.38001  0.53156  1.0000
  Fe  Fe241     1.0  0.88865  0.39117  0.46121  1.0000
  S   S477      1.0  0.87581  0.38815  0.43410  1.0000
  S   S478      1.0  0.91217  0.40114  0.50504  1.0000
  S   S479      1.0  0.91646  0.40319  0.45915  1.0000
  C   C3394     1.0  0.96751  0.38027  0.48717  1.0000
  H   H2713     1.0  0.94909  0.40562  0.48309  1.0000
  C   C3395     1.0  0.88805  0.34103  0.39434  1.0000
  C   C3396     1.0  0.89415  0.33833  0.41246  1.0000
  C   C3397     1.0  0.89098  0.35276  0.42464  1.0000
  C   C3398     1.0  0.88154  0.37003  0.41884  1.0000
  C   C3399     1.0  0.87564  0.37278  0.40064  1.0000
  C   C3400     1.0  0.87900  0.35843  0.38838  1.0000
  H   H2714     1.0  0.90111  0.32491  0.41722  1.0000
  H   H2715     1.0  0.89540  0.35037  0.43866  1.0000
  H   H2716     1.0  0.86822  0.38605  0.39607  1.0000
  H   H2717     1.0  0.87413  0.36066  0.37453  1.0000
  H   H2718     1.0  0.94416  0.36707  0.63103  1.0000
  C   C3401     1.0  0.74880  0.12419  0.50903  1.0000
  C   C3402     1.0  0.89359  0.36577  0.58791  1.0000
  C   C3403     1.0  0.90400  0.37428  0.57238  1.0000
  C   C3404     1.0  0.89652  0.37812  0.55492  1.0000
  C   C3405     1.0  0.87833  0.37385  0.55289  1.0000
  C   C3406     1.0  0.86800  0.36504  0.56839  1.0000
  C   C3407     1.0  0.87567  0.36081  0.58577  1.0000
  H   H2719     1.0  0.91787  0.37806  0.57397  1.0000
  H   H2720     1.0  0.90465  0.38483  0.54317  1.0000
  H   H2721     1.0  0.85389  0.36169  0.56704  1.0000
  H   H2722     1.0  0.86744  0.35433  0.59765  1.0000
  C   C3408     1.0  0.82965  0.27380  0.32510  1.0000
  H   H2723     1.0  0.81338  0.10494  0.36296  1.0000
  H   H2724     1.0  0.86879  0.17597  0.43941  1.0000
  C   C3409     1.0  0.90395  0.19039  0.40733  1.0000
  H   H2725     1.0  0.86130  0.47825  0.54982  1.0000
  P   P114      1.0  0.91875  0.18268  0.38720  1.0000
  C   C3410     1.0  0.84417  0.22126  0.36937  1.0000
  C   C3411     1.0  0.84470  0.24056  0.37094  1.0000
  C   C3412     1.0  0.85595  0.25161  0.35792  1.0000
  C   C3413     1.0  0.86639  0.24361  0.34277  1.0000
  C   C3414     1.0  0.86577  0.22433  0.34111  1.0000
  C   C3415     1.0  0.85486  0.21318  0.35438  1.0000
  H   H2726     1.0  0.83641  0.24702  0.38238  1.0000
  H   H2727     1.0  0.85642  0.26636  0.35954  1.0000
  Fe  Fe242     1.0  0.88536  0.28800  0.32522  1.0000
  H   H2728     1.0  0.85439  0.19845  0.35279  1.0000
  C   C3416     1.0  0.88456  0.11060  0.38971  1.0000
  C   C3417     1.0  0.89158  0.12387  0.39943  1.0000
  C   C3418     1.0  0.91099  0.12300  0.40139  1.0000
  C   C3419     1.0  0.92350  0.10863  0.39401  1.0000
  C   C3420     1.0  0.91628  0.09475  0.38527  1.0000
  C   C3421     1.0  0.89694  0.09580  0.38307  1.0000
  H   H2729     1.0  0.88218  0.13529  0.40458  1.0000
  H   H2730     1.0  0.91644  0.13396  0.40790  1.0000
  H   H2731     1.0  0.92575  0.08380  0.37924  1.0000
  H   H2732     1.0  0.89166  0.08543  0.37557  1.0000
  C   C3422     1.0  0.85996  0.23052  0.61300  1.0000
  C   C3423     1.0  0.87566  0.23681  0.61988  1.0000
  C   C3424     1.0  0.87458  0.25441  0.62733  1.0000
  C   C3425     1.0  0.85771  0.26600  0.62805  1.0000
  C   C3426     1.0  0.84320  0.24230  0.61337  1.0000
  H   H2733     1.0  0.88870  0.22787  0.61969  1.0000
  H   H2734     1.0  0.76896  0.15589  0.51109  1.0000
  C   C3427     1.0  0.81660  0.15757  0.47650  1.0000
  C   C3428     1.0  0.82149  0.17600  0.47237  1.0000
  C   C3429     1.0  0.82511  0.18655  0.48693  1.0000
  C   C3430     1.0  0.82411  0.17873  0.50570  1.0000
  C   C3431     1.0  0.81957  0.16020  0.50973  1.0000
  C   C3432     1.0  0.81574  0.14975  0.49524  1.0000
  H   H2735     1.0  0.82215  0.18221  0.45802  1.0000
  H   H2736     1.0  0.82859  0.20086  0.48362  1.0000
  H   H2737     1.0  0.81870  0.15408  0.52407  1.0000
  H   H2738     1.0  0.81205  0.13553  0.49856  1.0000
  C   C3433     1.0  0.89155  0.11694  0.58266  1.0000
  C   C3434     1.0  0.89714  0.12723  0.59628  1.0000
  C   C3435     1.0  0.91469  0.12239  0.60348  1.0000
  C   C3436     1.0  0.92708  0.10756  0.59682  1.0000
  C   C3437     1.0  0.92159  0.09745  0.58297  1.0000
  C   C3438     1.0  0.90379  0.10196  0.57617  1.0000
  H   H2739     1.0  0.88781  0.13872  0.60150  1.0000
  H   H2740     1.0  0.91870  0.13018  0.61431  1.0000
  H   H2741     1.0  0.93088  0.08590  0.57787  1.0000
  H   H2742     1.0  0.89945  0.09389  0.56577  1.0000
  H   H2743     1.0  0.94063  0.39566  0.55457  1.0000
  S   S480      1.0  0.89660  0.33995  0.32377  1.0000
  C   C3439     1.0  0.75238  0.12872  0.36981  1.0000
  C   C3440     1.0  0.93510  0.35739  0.43971  1.0000
  C   C3441     1.0  0.95360  0.34604  0.36549  1.0000
  C   C3442     1.0  0.98713  0.21826  0.61217  1.0000
  H   H2744     1.0  0.79061  0.12855  0.34841  1.0000
  H   H2745     1.0  0.79249  0.21311  0.36857  1.0000
  H   H2746     1.0  0.96786  0.01474  0.40241  1.0000
  C   C3443     1.0  0.90233  0.47227  0.48483  1.0000
  H   H2747     1.0  0.87522  0.46180  0.49143  1.0000
  C   C3444     1.0  0.76315  0.14505  0.61298  1.0000
  C   C3445     1.0  0.76572  0.12662  0.60773  1.0000
  H   H2748     1.0  0.77859  0.12194  0.59973  1.0000
  C   C3446     1.0  0.98746  0.32215  0.59961  1.0000
  C   C3447     1.0  0.84210  0.25986  0.62087  1.0000
  H   H2749     1.0  0.98321  0.15170  0.37760  1.0000
  C   C3448     1.0  0.87989  0.42303  0.58158  1.0000
  H   H2750     1.0  0.81982  0.11305  0.59971  1.0000
  H   H2751     1.0  0.95681  0.25555  0.38585  1.0000
  C   C3449     1.0  0.92560  0.20287  0.37190  1.0000
  C   C3450     1.0  0.77784  0.17828  0.34643  1.0000
  H   H2752     1.0  0.91633  0.45486  0.52025  1.0000
  H   H2753     1.0  0.78560  0.16923  0.64423  1.0000
  C   C3451     1.0  0.97116  0.43350  0.40566  1.0000
  C   C3452     1.0  0.95426  0.44460  0.40932  1.0000
  C   C3453     1.0  0.94524  0.44413  0.42750  1.0000
  C   C3454     1.0  0.95319  0.43270  0.44202  1.0000
  C   C3455     1.0  0.96996  0.42151  0.43836  1.0000
  C   C3456     1.0  0.85188  0.10770  0.63186  1.0000
  C   C3457     1.0  0.80774  0.18750  0.33178  1.0000
  S   S481      1.0  0.86692  0.33668  0.64923  1.0000
  C   C3458     1.0  0.97274  0.14920  0.40667  1.0000
  C   C3459     1.0  0.88108  0.20221  0.43877  1.0000
  C   C3460     1.0  0.74644  0.09930  0.35780  1.0000
  C   C3461     1.0  0.97939  0.43926  0.53159  1.0000
  H   H2754     1.0  0.74159  0.14627  0.57212  1.0000
  H   H2755     1.0  0.92552  0.34917  0.37971  1.0000
  H   H2756     1.0  0.93209  0.45263  0.43045  1.0000
  H   H2757     1.0  0.94631  0.43251  0.45614  1.0000
  C   C3462     1.0  0.98568  0.37283  0.49049  1.0000
  P   P115      1.0  0.89393  0.45114  0.55610  1.0000
  H   H2758     1.0  0.80524  0.12741  0.54147  1.0000
  C   C3463     1.0  0.94607  0.28348  0.37610  1.0000
  C   C3464     1.0  0.93723  0.43136  0.52009  1.0000
  H   H2759     1.0  0.88234  0.27543  0.59099  1.0000
  C   C3465     1.0  0.94225  0.21084  0.37399  1.0000
  C   C3466     1.0  0.84916  0.31534  0.59366  1.0000
  H   H2760     1.0  0.96851  0.47745  0.44254  1.0000
  C   C3467     1.0  0.91954  0.22658  0.34615  1.0000
  C   C3468     1.0  0.90885  0.28601  0.59269  1.0000
  C   C3469     1.0  0.92079  0.29988  0.58611  1.0000
  C   C3470     1.0  0.91559  0.31364  0.57197  1.0000
  H   H2761     1.0  0.91248  0.27574  0.60415  1.0000
  H   H2762     1.0  0.93379  0.30026  0.59238  1.0000
  H   H2763     1.0  0.92451  0.32480  0.56727  1.0000
  H   H2764     1.0  0.83762  0.32737  0.61898  1.0000
  H   H2765     1.0  0.86062  0.30753  0.60051  1.0000
  H   H2766     1.0  0.88258  0.42334  0.53327  1.0000
  C   C3471     1.0  0.81514  0.12289  0.62715  1.0000
  H   H2767     1.0  0.95781  0.00094  0.44169  1.0000
  C   C3472     1.0  0.98690  0.00177  0.59521  1.0000
  C   C3473     1.0  0.88571  0.24564  0.39056  1.0000
  C   C3474     1.0  0.89955  0.25814  0.38692  1.0000
  C   C3475     1.0  0.89931  0.27308  0.39798  1.0000
  C   C3476     1.0  0.88507  0.27574  0.41243  1.0000
  C   C3477     1.0  0.87053  0.26380  0.41557  1.0000
  C   C3478     1.0  0.87130  0.24838  0.40487  1.0000
  P   P116      1.0  0.85109  0.26825  0.43310  1.0000
  C   C3479     1.0  0.85584  0.25498  0.45508  1.0000
  C   C3480     1.0  0.84792  0.29313  0.43622  1.0000
  C   C3481     1.0  0.84997  0.30649  0.42065  1.0000
  C   C3482     1.0  0.84835  0.32567  0.42310  1.0000
  C   C3483     1.0  0.84462  0.33172  0.44105  1.0000
  C   C3484     1.0  0.84215  0.31858  0.45658  1.0000
  C   C3485     1.0  0.84378  0.29935  0.45421  1.0000
  C   C3486     1.0  0.84104  0.24858  0.46760  1.0000
  C   C3487     1.0  0.84479  0.23792  0.48439  1.0000
  C   C3488     1.0  0.86326  0.23379  0.48893  1.0000
  C   C3489     1.0  0.87802  0.24057  0.47681  1.0000
  C   C3490     1.0  0.87433  0.25124  0.45999  1.0000
  C   C3491     1.0  0.83020  0.26100  0.42488  1.0000
  C   C3492     1.0  0.81762  0.27408  0.41558  1.0000
  C   C3493     1.0  0.80181  0.26819  0.40883  1.0000
  C   C3494     1.0  0.79846  0.24924  0.41129  1.0000
  C   C3495     1.0  0.81086  0.23616  0.42056  1.0000
  C   C3496     1.0  0.82671  0.24196  0.42724  1.0000
  H   H2768     1.0  0.88577  0.23410  0.38193  1.0000
  H   H2769     1.0  0.91021  0.25642  0.37531  1.0000
  H   H2770     1.0  0.90972  0.28313  0.39497  1.0000
  H   H2771     1.0  0.88514  0.28759  0.42060  1.0000
  H   H2772     1.0  0.86064  0.23859  0.40716  1.0000
  H   H2773     1.0  0.85313  0.30215  0.40658  1.0000
  H   H2774     1.0  0.85027  0.33587  0.41106  1.0000
  H   H2775     1.0  0.84370  0.34662  0.44285  1.0000
  H   H2776     1.0  0.83900  0.32334  0.47046  1.0000
  H   H2777     1.0  0.84188  0.28944  0.46644  1.0000
  H   H2778     1.0  0.82659  0.25171  0.46442  1.0000
  H   H2779     1.0  0.83337  0.23270  0.49391  1.0000
  H   H2780     1.0  0.86605  0.22534  0.50188  1.0000
  H   H2781     1.0  0.89233  0.23748  0.48046  1.0000
  H   H2782     1.0  0.88589  0.25650  0.45083  1.0000
  H   H2783     1.0  0.81997  0.28879  0.41332  1.0000
  H   H2784     1.0  0.79224  0.27831  0.40153  1.0000
  H   H2785     1.0  0.78638  0.24459  0.40584  1.0000
  H   H2786     1.0  0.80848  0.22138  0.42209  1.0000
  H   H2787     1.0  0.83637  0.23146  0.43393  1.0000
  C   C3497     1.0  0.80505  0.12735  0.34242  1.0000
  C   C3498     1.0  0.97860  0.38918  0.59153  1.0000
  C   C3499     1.0  0.90287  0.47390  0.55533  1.0000
  H   H2788     1.0  0.79533  0.10512  0.48236  1.0000
  H   H2789     1.0  0.97817  0.35180  0.45213  1.0000
  H   H2790     1.0  0.94047  0.24609  0.33863  1.0000
  C   C3500     1.0  0.76620  0.11463  0.48041  1.0000
  C   C3501     1.0  0.81759  0.25978  0.33067  1.0000
  C   C3502     1.0  0.97304  0.36788  0.61963  1.0000
  C   C3503     1.0  0.97157  0.15524  0.38775  1.0000
  C   C3504     1.0  0.96772  0.30144  0.32817  1.0000
  H   H2791     1.0  0.91175  0.12963  0.35011  1.0000
  H   H2792     1.0  0.80112  0.23965  0.32154  1.0000
  C   C3505     1.0  0.97500  0.43396  0.57072  1.0000
  C   C3506     1.0  0.93587  0.40895  0.54745  1.0000
  H   H2793     1.0  0.74476  0.03140  0.36976  1.0000
  C   C3507     1.0  0.88328  0.45217  0.59464  1.0000
  C   C3508     1.0  0.75838  0.11021  0.36586  1.0000
  H   H2794     1.0  0.98562  0.28527  0.34741  1.0000
  H   H2795     1.0  0.74387  0.16490  0.62747  1.0000
  C   C3509     1.0  0.97916  0.00920  0.51547  1.0000
  C   C3510     1.0  0.96151  0.33954  0.58435  1.0000
  C   C3511     1.0  0.94918  0.33467  0.59995  1.0000
  C   C3512     1.0  0.95602  0.32422  0.61564  1.0000
  H   H2796     1.0  0.95989  0.46152  0.56932  1.0000
  H   H2797     1.0  0.87755  0.13747  0.34856  1.0000
  H   H2798     1.0  0.98645  0.07046  0.53136  1.0000
  C   C3513     1.0  0.87226  0.43542  0.53291  1.0000
  C   C3514     1.0  0.96950  0.45321  0.54184  1.0000
  C   C3515     1.0  0.93427  0.35176  0.36673  1.0000
  C   C3516     1.0  0.89457  0.21354  0.42970  1.0000
  C   C3517     1.0  0.94941  0.33094  0.42335  1.0000
  H   H2799     1.0  0.77221  0.10423  0.36908  1.0000
  H   H2800     1.0  0.88924  0.16522  0.41224  1.0000
  C   C3518     1.0  0.88314  0.47392  0.49072  1.0000
  H   H2801     1.0  0.97902  0.34386  0.34645  1.0000
  C   C3519     1.0  0.87683  0.44423  0.61240  1.0000
  H   H2802     1.0  0.88063  0.41467  0.56975  1.0000
  H   H2803     1.0  0.91939  0.46609  0.57885  1.0000
  C   C3520     1.0  0.96776  0.99746  0.54677  1.0000
  H   H2804     1.0  0.83534  0.28090  0.33552  1.0000
  H   H2805     1.0  0.95621  0.34814  0.57246  1.0000
  H   H2806     1.0  0.93437  0.33929  0.60005  1.0000
  H   H2807     1.0  0.94651  0.32096  0.62797  1.0000
  H   H2808     1.0  0.87526  0.45252  0.62432  1.0000
  C   C3521     1.0  0.92509  0.13692  0.54944  1.0000
  C   C3522     1.0  0.87367  0.41508  0.59935  1.0000
  H   H2809     1.0  0.86637  0.10237  0.63332  1.0000
  C   C3523     1.0  0.94635  0.10943  0.52955  1.0000
  C   C3524     1.0  0.92755  0.11433  0.52609  1.0000
  C   C3525     1.0  0.91698  0.12828  0.53609  1.0000
  P   P117      1.0  0.91687  0.10153  0.51020  1.0000
  C   C3526     1.0  0.92466  0.10779  0.48589  1.0000
  C   C3527     1.0  0.92342  0.07674  0.51569  1.0000
  C   C3528     1.0  0.92520  0.06953  0.53436  1.0000
  C   C3529     1.0  0.93060  0.05046  0.53869  1.0000
  C   C3530     1.0  0.93435  0.03844  0.52440  1.0000
  C   C3531     1.0  0.93289  0.04552  0.50577  1.0000
  C   C3532     1.0  0.92737  0.06456  0.50141  1.0000
  C   C3533     1.0  0.91301  0.10578  0.47179  1.0000
  C   C3534     1.0  0.91939  0.10922  0.45287  1.0000
  C   C3535     1.0  0.93751  0.11447  0.44786  1.0000
  C   C3536     1.0  0.94920  0.11644  0.46177  1.0000
  C   C3537     1.0  0.94284  0.11311  0.48071  1.0000
  C   C3538     1.0  0.89168  0.10655  0.51358  1.0000
  C   C3539     1.0  0.88312  0.12318  0.50490  1.0000
  C   C3540     1.0  0.86369  0.12744  0.50767  1.0000
  C   C3541     1.0  0.85269  0.11522  0.51923  1.0000
  C   C3542     1.0  0.86112  0.09875  0.52808  1.0000
  C   C3543     1.0  0.88056  0.09444  0.52534  1.0000
  H   H2810     1.0  0.91662  0.14709  0.55765  1.0000
  S   S482      1.0  0.96885  0.06299  0.46950  1.0000
  C   C3544     1.0  0.93631  0.23414  0.34802  1.0000
  H   H2811     1.0  0.95464  0.09851  0.52228  1.0000
  H   H2812     1.0  0.90229  0.13207  0.53429  1.0000
  H   H2813     1.0  0.92266  0.07870  0.54556  1.0000
  H   H2814     1.0  0.93215  0.04510  0.55312  1.0000
  H   H2815     1.0  0.93872  0.02374  0.52772  1.0000
  H   H2816     1.0  0.93657  0.03643  0.49458  1.0000
  H   H2817     1.0  0.92678  0.06974  0.48681  1.0000
  H   H2818     1.0  0.89915  0.10108  0.47533  1.0000
  H   H2819     1.0  0.91048  0.10737  0.44203  1.0000
  H   H2820     1.0  0.94257  0.11657  0.43315  1.0000
  H   H2821     1.0  0.96345  0.11998  0.45790  1.0000
  H   H2822     1.0  0.95239  0.11417  0.49114  1.0000
  H   H2823     1.0  0.89148  0.13297  0.49614  1.0000
  H   H2824     1.0  0.85716  0.14032  0.50098  1.0000
  H   H2825     1.0  0.83767  0.11867  0.52146  1.0000
  H   H2826     1.0  0.85265  0.08944  0.53731  1.0000
  H   H2827     1.0  0.88683  0.08182  0.53261  1.0000
  H   H2828     1.0  0.82899  0.26872  0.62126  1.0000
  C   C3545     1.0  0.82046  0.19829  0.63858  1.0000
  C   C3546     1.0  0.77851  0.17620  0.55669  1.0000
  C   C3547     1.0  0.84254  0.44996  0.52307  1.0000
  C   C3548     1.0  0.91559  0.47698  0.56803  1.0000
  C   C3549     1.0  0.96128  0.30902  0.38601  1.0000
  H   H2829     1.0  0.78122  0.18195  0.56937  1.0000
  C   C3550     1.0  0.90485  0.14214  0.35597  1.0000
  H   H2830     1.0  0.85762  0.12450  0.32357  1.0000
  H   H2831     1.0  0.91732  0.01818  0.46173  1.0000
  S   S483      1.0  0.97989  0.07084  0.56843  1.0000
  C   C3551     1.0  0.98063  0.33350  0.58426  1.0000
  H   H2832     1.0  0.96084  0.23195  0.36315  1.0000
  C   C3552     1.0  0.83681  0.11281  0.34373  1.0000
  H   H2833     1.0  0.79192  0.20114  0.63131  1.0000
  C   C3553     1.0  0.98714  0.07611  0.51700  1.0000
  H   H2834     1.0  0.82337  0.21220  0.63245  1.0000
  C   C3554     1.0  0.81793  0.11400  0.35072  1.0000
  H   H2835     1.0  0.95556  0.40580  0.52320  1.0000
  H   H2836     1.0  0.86735  0.41940  0.62854  1.0000
  S   S484      1.0  0.88006  0.25708  0.32537  1.0000
  C   C3555     1.0  0.95921  0.39451  0.59214  1.0000
  C   C3556     1.0  0.94690  0.38663  0.60640  1.0000
  C   C3557     1.0  0.80733  0.20112  0.34442  1.0000
  H   H2837     1.0  0.97963  0.24674  0.60122  1.0000
  C   C3558     1.0  0.95575  0.35707  0.33238  1.0000
  C   C3559     1.0  0.93771  0.36930  0.42330  1.0000
  H   H2838     1.0  0.75141  0.08509  0.35482  1.0000
  C   C3560     1.0  0.96907  0.99656  0.50796  1.0000
  H   H2839     1.0  0.96988  0.38104  0.55147  1.0000
  H   H2840     1.0  0.95347  0.40456  0.58157  1.0000
  H   H2841     1.0  0.93189  0.39052  0.60666  1.0000
  C   C3561     1.0  0.74614  0.15073  0.62330  1.0000
  C   C3562     1.0  0.92547  0.98830  0.50060  1.0000
  C   C3563     1.0  0.84453  0.46569  0.53240  1.0000
  H   H2842     1.0  0.95118  0.20502  0.38479  1.0000
  C   C3564     1.0  0.96740  0.45061  0.56141  1.0000
  C   C3565     1.0  0.98387  0.37452  0.54838  1.0000
  H   H2843     1.0  0.76378  0.09284  0.57055  1.0000
  H   H2844     1.0  0.76661  0.16916  0.34790  1.0000
  C   C3566     1.0  0.97639  0.00145  0.40228  1.0000
  H   H2845     1.0  0.82981  0.10853  0.55860  1.0000
  H   H2846     1.0  0.78401  0.20133  0.53887  1.0000
  H   H2847     1.0  0.77779  0.18808  0.50988  1.0000
  C   C3567     1.0  0.90597  0.16865  0.37424  1.0000
  C   C3568     1.0  0.95523  0.16536  0.38188  1.0000
  C   C3569     1.0  0.97855  0.06732  0.50413  1.0000
  C   C3570     1.0  0.84396  0.10584  0.61530  1.0000
  C   C3571     1.0  0.88663  0.17319  0.37293  1.0000
  C   C3572     1.0  0.87650  0.16208  0.36352  1.0000
  H   H2848     1.0  0.98689  0.01917  0.50622  1.0000
  H   H2849     1.0  0.97349  0.43223  0.58589  1.0000
  C   C3573     1.0  0.91502  0.15311  0.36551  1.0000
  H   H2850     1.0  0.95455  0.16985  0.36713  1.0000
  C   C3574     1.0  0.94637  0.36210  0.40692  1.0000
  H   H2851     1.0  0.85440  0.42225  0.51694  1.0000
  H   H2852     1.0  0.87923  0.18511  0.37946  1.0000
  H   H2853     1.0  0.86149  0.16520  0.36320  1.0000
  H   H2854     1.0  0.83103  0.23782  0.60803  1.0000
  C   C3575     1.0  0.77622  0.17974  0.52325  1.0000
  C   C3576     1.0  0.91412  0.21109  0.35807  1.0000
  C   C3577     1.0  0.83607  0.32666  0.60423  1.0000
  C   C3578     1.0  0.77980  0.18719  0.53957  1.0000
  H   H2855     1.0  0.81735  0.25245  0.57076  1.0000
  H   H2856     1.0  0.93992  0.99240  0.47282  1.0000
  C   C3579     1.0  0.96309  0.39974  0.48576  1.0000
  H   H2857     1.0  0.80124  0.12940  0.62480  1.0000
  C   C3580     1.0  0.88541  0.44142  0.57918  1.0000
  H   H2858     1.0  0.96935  0.99677  0.49287  1.0000
  C   C3581     1.0  0.97512  0.31818  0.61559  1.0000
  H   H2859     1.0  0.92989  0.36870  0.32139  1.0000
  H   H2860     1.0  0.84106  0.22523  0.56681  1.0000
  H   H2861     1.0  0.81095  0.34568  0.60413  1.0000
  C   C3582     1.0  0.90596  0.20769  0.41403  1.0000
  H   H2862     1.0  0.89612  0.22696  0.43466  1.0000
  C   C3583     1.0  0.89768  0.00990  0.50646  1.0000
  H   H2863     1.0  0.93789  0.31253  0.36870  1.0000
  C   C3584     1.0  0.97345  0.29577  0.39564  1.0000
  C   C3585     1.0  0.89176  0.28581  0.58509  1.0000
  C   C3586     1.0  0.91038  0.99512  0.51277  1.0000
  H   H2864     1.0  0.89039  0.02971  0.48320  1.0000
  C   C3587     1.0  0.95441  0.11810  0.54289  1.0000
  C   C3588     1.0  0.95212  0.34281  0.40677  1.0000
  C   C3589     1.0  0.95753  0.15331  0.41976  1.0000
  C   C3590     1.0  0.93974  0.16928  0.39489  1.0000
  C   C3591     1.0  0.89860  0.31334  0.56417  1.0000
  C   C3592     1.0  0.82102  0.33686  0.59589  1.0000
  H   H2865     1.0  0.96348  0.46603  0.53459  1.0000
  H   H2866     1.0  0.94814  0.45361  0.39811  1.0000
  C   C3593     1.0  0.90008  0.01809  0.48802  1.0000
  C   C3594     1.0  0.97891  0.42157  0.42013  1.0000
  H   H2867     1.0  0.88670  0.25885  0.63282  1.0000
  H   H2868     1.0  0.77399  0.14911  0.57076  1.0000
  C   C3595     1.0  0.88558  0.14655  0.35509  1.0000
  C   C3596     1.0  0.88667  0.29924  0.57048  1.0000
  H   H2869     1.0  0.88492  0.26212  0.55780  1.0000
  C   C3597     1.0  0.81543  0.10485  0.56077  1.0000
  C   C3598     1.0  0.77129  0.16132  0.52405  1.0000
  C   C3599     1.0  0.77765  0.19166  0.35929  1.0000
  C   C3600     1.0  0.91523  0.01156  0.47591  1.0000
  C   C3601     1.0  0.92797  0.99683  0.48221  1.0000
  C   C3602     1.0  0.77412  0.15762  0.55747  1.0000
  H   H2870     1.0  0.97820  0.43433  0.39161  1.0000
  S   S485      1.0  0.85513  0.28792  0.63820  1.0000
  C   C3603     1.0  0.82565  0.11358  0.61288  1.0000
  H   H2871     1.0  0.93565  0.27878  0.36823  1.0000
  H   H2872     1.0  0.97103  0.05517  0.50882  1.0000
  C   C3604     1.0  0.87453  0.45131  0.54205  1.0000
  H   H2873     1.0  0.89467  0.32439  0.55355  1.0000
  H   H2874     1.0  0.87467  0.23007  0.56078  1.0000
  H   H2875     1.0  0.87210  0.20683  0.45079  1.0000
  H   H2876     1.0  0.75382  0.10001  0.60872  1.0000
  P   P118      1.0  0.76474  0.12592  0.54243  1.0000
  H   H2877     1.0  0.76697  0.11333  0.46546  1.0000
  H   H2878     1.0  0.86997  0.40068  0.60114  1.0000
  C   C3605     1.0  0.94097  0.33826  0.43977  1.0000
  H   H2879     1.0  0.84858  0.19100  0.64618  1.0000
  C   C3606     1.0  0.87013  0.26027  0.56066  1.0000
  C   C3607     1.0  0.84729  0.31404  0.57462  1.0000
  C   C3608     1.0  0.81893  0.33552  0.57699  1.0000
  H   H2880     1.0  0.94980  0.13792  0.56379  1.0000
  C   C3609     1.0  0.80145  0.11567  0.55127  1.0000
  H   H2881     1.0  0.82164  0.08142  0.58095  1.0000
  C   C3610     1.0  0.86439  0.24212  0.56202  1.0000
  H   H2882     1.0  0.98128  0.26642  0.40301  1.0000
  H   H2883     1.0  0.97348  0.42678  0.48640  1.0000
  H   H2884     1.0  0.87137  0.32754  0.48399  1.0000
  C   C3611     1.0  0.97466  0.01749  0.45541  1.0000
  P   P119      1.0  0.96390  0.33379  0.38568  1.0000
  H   H2885     1.0  0.97441  0.38183  0.43262  1.0000
  C   C3612     1.0  0.78220  0.10989  0.48999  1.0000
  H   H2886     1.0  0.95843  0.14852  0.43440  1.0000
  P   P120      1.0  0.86429  0.29930  0.56110  1.0000
  C   C3613     1.0  0.94412  0.41460  0.52968  1.0000
  C   C3614     1.0  0.97994  0.07406  0.48523  1.0000
  C   C3615     1.0  0.87921  0.18483  0.43237  1.0000
  C   C3616     1.0  0.85686  0.27580  0.56316  1.0000
  C   C3617     1.0  0.83192  0.32404  0.56641  1.0000
  H   H2887     1.0  0.80722  0.34338  0.57054  1.0000
  C   C3618     1.0  0.81080  0.08967  0.57349  1.0000
  H   H2888     1.0  0.82993  0.32299  0.55187  1.0000
  C   C3619     1.0  0.84538  0.23936  0.56549  1.0000
  C   C3620     1.0  0.89073  0.17885  0.41684  1.0000
  H   H2889     1.0  0.87025  0.28070  0.52591  1.0000
  C   C3621     1.0  0.94375  0.13174  0.55294  1.0000
  C   C3622     1.0  0.92190  0.44224  0.52816  1.0000
  C   C3623     1.0  0.94103  0.16315  0.41392  1.0000
  C   C3624     1.0  0.86609  0.30816  0.53660  1.0000
  H   H2890     1.0  0.82722  0.28454  0.56871  1.0000
  C   C3625     1.0  0.77010  0.15010  0.54124  1.0000
  H   H2891     1.0  0.96882  0.11393  0.54573  1.0000
  C   C3626     1.0  0.83206  0.25472  0.56778  1.0000
  C   C3627     1.0  0.83775  0.27288  0.56669  1.0000
  H   H2892     1.0  0.93887  0.32915  0.45259  1.0000
  H   H2893     1.0  0.98616  0.35437  0.40781  1.0000
  H   H2894     1.0  0.91086  0.36428  0.35205  1.0000
  H   H2895     1.0  0.84683  0.10266  0.35042  1.0000
  C   C3628     1.0  0.86920  0.29574  0.52245  1.0000
  C   C3629     1.0  0.86510  0.32759  0.53147  1.0000
  C   C3630     1.0  0.78266  0.11159  0.55464  1.0000
  H   H2896     1.0  0.86306  0.33751  0.54204  1.0000
  C   C3631     1.0  0.79236  0.20312  0.35826  1.0000
  H   H2897     1.0  0.95510  0.29543  0.33435  1.0000
  H   H2898     1.0  0.97560  0.39820  0.39027  1.0000
  H   H2899     1.0  0.81891  0.20972  0.34397  1.0000
  C   C3632     1.0  0.92585  0.36026  0.35099  1.0000
  Fe  Fe243     1.0  0.98088  0.06907  0.43980  1.0000
  C   C3633     1.0  0.79215  0.08541  0.57686  1.0000
  C   C3634     1.0  0.87101  0.30270  0.50354  1.0000
  H   H2900     1.0  0.87340  0.29306  0.49271  1.0000
  C   C3635     1.0  0.92099  0.42012  0.55586  1.0000
  C   C3636     1.0  0.83000  0.13858  0.32028  1.0000
  C   C3637     1.0  0.97179  0.27655  0.39562  1.0000
  C   C3638     1.0  0.93656  0.36282  0.33378  1.0000
  H   H2901     1.0  0.88628  0.46672  0.59304  1.0000
  H   H2902     1.0  0.83027  0.44946  0.51561  1.0000
  C   C3639     1.0  0.76486  0.11955  0.51875  1.0000
  H   H2903     1.0  0.97607  0.41293  0.44978  1.0000
  H   H2904     1.0  0.88615  0.01524  0.51595  1.0000
  C   C3640     1.0  0.97081  0.00125  0.44799  1.0000
  H   H2905     1.0  0.92838  0.36294  0.45240  1.0000
  H   H2906     1.0  0.94322  0.43557  0.50606  1.0000
  H   H2907     1.0  0.79426  0.10898  0.51603  1.0000
  C   C3641     1.0  0.87223  0.42563  0.61478  1.0000
  H   H2908     1.0  0.91523  0.41552  0.56979  1.0000
  H   H2909     1.0  0.78850  0.07382  0.58695  1.0000
  H   H2910     1.0  0.98109  0.38386  0.36021  1.0000
  C   C3642     1.0  0.83467  0.18632  0.64647  1.0000
  C   C3643     1.0  0.80275  0.19209  0.63803  1.0000
  C   C3644     1.0  0.86676  0.33447  0.51258  1.0000
  C   C3645     1.0  0.86982  0.32207  0.49861  1.0000
  C   C3646     1.0  0.95808  0.27041  0.38588  1.0000
  C   C3647     1.0  0.77812  0.09628  0.56747  1.0000
  H   H2911     1.0  0.94846  0.37157  0.39437  1.0000
  C   C3648     1.0  0.86027  0.46621  0.54219  1.0000
  H   H2912     1.0  0.92971  0.14874  0.36665  1.0000
  H   H2913     1.0  0.96718  0.99792  0.56183  1.0000
  H   H2914     1.0  0.91622  0.21672  0.40714  1.0000
  H   H2915     1.0  0.96451  0.02969  0.45494  1.0000
  H   H2916     1.0  0.83383  0.47744  0.53214  1.0000
  H   H2917     1.0  0.85225  0.09895  0.60409  1.0000
  C   C3649     1.0  0.96429  0.34871  0.34814  1.0000
  C   C3650     1.0  0.91361  0.43667  0.54608  1.0000
  H   H2918     1.0  0.86577  0.34951  0.50881  1.0000
  H   H2919     1.0  0.95379  0.31608  0.42369  1.0000
  C   C3651     1.0  0.95381  0.37339  0.62018  1.0000
  H   H2920     1.0  0.92932  0.16575  0.42429  1.0000
  S   S486      1.0  0.98288  0.09804  0.42612  1.0000
  C   C3652     1.0  0.97690  0.41172  0.48768  1.0000
  C   C3653     1.0  0.81088  0.13943  0.32684  1.0000
  H   H2921     1.0  0.98656  0.01925  0.54079  1.0000
  H   H2922     1.0  0.76638  0.19262  0.37046  1.0000
  H   H2923     1.0  0.81987  0.18555  0.32172  1.0000
  C   C3654     1.0  0.98533  0.37555  0.60523  1.0000
  Fe  Fe244     1.0  0.87641  0.30572  0.64808  1.0000
  C   C3655     1.0  0.98431  0.41957  0.56046  1.0000
  C   C3656     1.0  0.97875  0.00946  0.53489  1.0000
  H   H2924     1.0  0.98019  0.31057  0.62809  1.0000
  H   H2925     1.0  0.97836  0.35734  0.63015  1.0000
  C   C3657     1.0  0.84139  0.11704  0.64617  1.0000
  C   C3658     1.0  0.82279  0.12439  0.64403  1.0000
  C   C3659     1.0  0.98668  0.36049  0.53601  1.0000
  H   H2926     1.0  0.92725  0.48701  0.47946  1.0000
  H   H2927     1.0  0.98120  0.44129  0.51641  1.0000
  C   C3660     1.0  0.98687  0.42255  0.54083  1.0000
  C   C3661     1.0  0.84287  0.12516  0.32858  1.0000
  C   C3662     1.0  0.79919  0.17393  0.64549  1.0000
  C   C3663     1.0  0.74946  0.12161  0.48996  1.0000
  H   H2928     1.0  0.89045  0.48544  0.52994  1.0000
  H   H2929     1.0  0.98428  0.30031  0.40310  1.0000
  C   C3664     1.0  0.98507  0.29569  0.33549  1.0000
  H   H2930     1.0  0.98531  0.14101  0.41112  1.0000
  C   C3665     1.0  0.74215  0.12266  0.55532  1.0000
  H   H2931     1.0  0.97539  0.21812  0.62289  1.0000
  H   H2932     1.0  0.96386  0.35841  0.31885  1.0000
  C   C3666     1.0  0.98812  0.37684  0.43707  1.0000
  H   H2933     1.0  0.90862  0.98927  0.52725  1.0000
  Fe  Fe245     1.0  0.79270  0.38186  0.83425  1.0000
  S   S487      1.0  0.81927  0.36339  0.83940  1.0000
  S   S488      1.0  0.76178  0.37884  0.84442  1.0000
  Fe  Fe246     1.0  0.81495  0.41419  0.81452  1.0000
  S   S489      1.0  0.84284  0.39778  0.81795  1.0000
  S   S490      1.0  0.81171  0.44438  0.80142  1.0000
  Fe  Fe247     1.0  0.82931  0.37334  0.80918  1.0000
  S   S491      1.0  0.84369  0.35183  0.78904  1.0000
  Fe  Fe248     1.0  0.83067  0.38941  0.84747  1.0000
  S   S492      1.0  0.84301  0.39890  0.87268  1.0000
  S   S493      1.0  0.80198  0.39046  0.80393  1.0000
  S   S494      1.0  0.80349  0.40708  0.84399  1.0000
  Fe  Fe249     1.0  0.88238  0.38173  0.97132  1.0000
  S   S495      1.0  0.87297  0.36370  0.95016  1.0000
  S   S496      1.0  0.90901  0.39637  0.96678  1.0000
  Fe  Fe250     1.0  0.88092  0.33482  0.67628  1.0000
  S   S497      1.0  0.88842  0.30346  0.67620  1.0000
  S   S498      1.0  0.86841  0.35333  0.70004  1.0000
  C   C3667     1.0  0.98056  0.33367  0.67156  1.0000
  C   C3668     1.0  0.79922  0.43411  0.89881  1.0000
  C   C3669     1.0  0.74712  0.12642  0.67021  1.0000
  H   H2934     1.0  0.81154  0.33157  0.80979  1.0000
  H   H2935     1.0  0.75592  0.31331  0.87161  1.0000
  C   C3670     1.0  0.74876  0.32715  0.86891  1.0000
  C   C3671     1.0  0.80519  0.33389  0.93011  1.0000
  C   C3672     1.0  0.85278  0.45004  0.75690  1.0000
  H   H2936     1.0  0.80439  0.47326  0.91808  1.0000
  C   C3673     1.0  0.75290  0.14256  0.67635  1.0000
  C   C3674     1.0  0.90354  0.29288  0.74381  1.0000
  C   C3675     1.0  0.96573  0.32061  0.75675  1.0000
  C   C3676     1.0  0.93364  0.38039  0.68399  1.0000
  P   P121      1.0  0.75424  0.46426  0.86211  1.0000
  C   C3677     1.0  0.96256  0.40248  0.93124  1.0000
  H   H2937     1.0  0.93405  0.40111  0.92547  1.0000
  H   H2938     1.0  0.94394  0.44832  0.95392  1.0000
  C   C3678     1.0  0.85004  0.35246  0.76415  1.0000
  C   C3679     1.0  0.85809  0.33592  0.75631  1.0000
  C   C3680     1.0  0.86369  0.33579  0.73685  1.0000
  C   C3681     1.0  0.86145  0.35230  0.72482  1.0000
  C   C3682     1.0  0.85353  0.36885  0.73270  1.0000
  C   C3683     1.0  0.84784  0.36896  0.75213  1.0000
  H   H2939     1.0  0.86001  0.32306  0.76537  1.0000
  H   H2940     1.0  0.86979  0.32293  0.73116  1.0000
  H   H2941     1.0  0.85172  0.38174  0.72366  1.0000
  H   H2942     1.0  0.84182  0.38185  0.75779  1.0000
  C   C3684     1.0  0.82382  0.45831  0.83195  1.0000
  C   C3685     1.0  0.81545  0.46248  0.81519  1.0000
  C   C3686     1.0  0.84919  0.45248  0.91566  1.0000
  H   H2943     1.0  0.82787  0.44383  0.83674  1.0000
  Fe  Fe251     1.0  0.91539  0.31112  0.65929  1.0000
  C   C3687     1.0  0.84872  0.38815  0.89496  1.0000
  C   C3688     1.0  0.85343  0.36881  0.89836  1.0000
  C   C3689     1.0  0.86033  0.36143  0.91554  1.0000
  C   C3690     1.0  0.86245  0.37325  0.92951  1.0000
  C   C3691     1.0  0.85666  0.39241  0.92649  1.0000
  C   C3692     1.0  0.85003  0.39980  0.90925  1.0000
  H   H2944     1.0  0.85257  0.35967  0.88749  1.0000
  H   H2945     1.0  0.86462  0.34657  0.91778  1.0000
  H   H2946     1.0  0.85808  0.40167  0.93710  1.0000
  H   H2947     1.0  0.84654  0.41476  0.90669  1.0000
  C   C3693     1.0  0.82681  0.47283  0.84269  1.0000
  S   S499      1.0  0.89093  0.44969  0.96150  1.0000
  C   C3694     1.0  0.74986  0.35978  0.85610  1.0000
  C   C3695     1.0  0.75896  0.34187  0.85998  1.0000
  H   H2948     1.0  0.90453  0.37484  0.68546  1.0000
  C   C3696     1.0  0.76345  0.32892  0.95014  1.0000
  H   H2949     1.0  0.77380  0.33937  0.85590  1.0000
  C   C3697     1.0  0.74959  0.32285  0.92233  1.0000
  H   H2950     1.0  0.90670  0.35087  0.71216  1.0000
  C   C3698     1.0  0.76486  0.32821  0.93061  1.0000
  H   H2951     1.0  0.85377  0.44781  0.78681  1.0000
  C   C3699     1.0  0.94364  0.40912  0.93129  1.0000
  H   H2952     1.0  0.78645  0.48624  0.86466  1.0000
  C   C3700     1.0  0.75906  0.46714  0.82283  1.0000
  C   C3701     1.0  0.97612  0.46739  0.95246  1.0000
  H   H2953     1.0  0.85983  0.48160  0.95114  1.0000
  H   H2954     1.0  0.93766  0.37617  0.78730  1.0000
  H   H2955     1.0  0.75994  0.42579  0.85072  1.0000
  H   H2956     1.0  0.92229  0.43064  0.93984  1.0000
  C   C3702     1.0  0.91783  0.37142  0.69147  1.0000
  C   C3703     1.0  0.77154  0.45210  0.87663  1.0000
  C   C3704     1.0  0.92629  0.34971  0.75402  1.0000
  H   H2957     1.0  0.74593  0.38934  0.88866  1.0000
  P   P122      1.0  0.93701  0.33644  0.73505  1.0000
  H   H2958     1.0  0.81045  0.36463  0.90252  1.0000
  C   C3705     1.0  0.93706  0.42572  0.93935  1.0000
  C   C3706     1.0  0.93613  0.35316  0.71467  1.0000
  H   H2959     1.0  0.96495  0.35992  0.71387  1.0000
  C   C3707     1.0  0.79295  0.38803  0.89128  1.0000
  C   C3708     1.0  0.77924  0.11698  0.65890  1.0000
  C   C3709     1.0  0.94941  0.43572  0.94733  1.0000
  C   C3710     1.0  0.78972  0.44716  0.86856  1.0000
  H   H2960     1.0  0.90720  0.48217  0.86841  1.0000
  H   H2961     1.0  0.78917  0.10671  0.65239  1.0000
  P   P123      1.0  0.78553  0.33515  0.91608  1.0000
  C   C3711     1.0  0.90595  0.28539  0.72645  1.0000
  H   H2962     1.0  0.95579  0.32249  0.76890  1.0000
  H   H2963     1.0  0.98273  0.28069  0.66507  1.0000
  H   H2964     1.0  0.75566  0.31698  0.82727  1.0000
  C   C3712     1.0  0.96048  0.32607  0.73859  1.0000
  H   H2965     1.0  0.89771  0.34644  0.74870  1.0000
  C   C3713     1.0  0.76456  0.44041  0.80434  1.0000
  H   H2966     1.0  0.93572  0.31522  0.70281  1.0000
  C   C3714     1.0  0.76738  0.44816  0.89604  1.0000
  C   C3715     1.0  0.83047  0.45654  0.92254  1.0000
  C   C3716     1.0  0.75786  0.45502  0.83941  1.0000
  C   C3717     1.0  0.78508  0.13352  0.66442  1.0000
  C   C3718     1.0  0.77184  0.14600  0.67368  1.0000
  P   P124      1.0  0.80960  0.13778  0.66168  1.0000
  C   C3719     1.0  0.81815  0.13122  0.68431  1.0000
  C   C3720     1.0  0.77483  0.39511  0.88736  1.0000
  C   C3721     1.0  0.76241  0.45983  0.80539  1.0000
  H   H2967     1.0  0.81751  0.43440  0.87319  1.0000
  H   H2968     1.0  0.85299  0.48173  0.78861  1.0000
  C   C3722     1.0  0.80352  0.43829  0.87960  1.0000
  C   C3723     1.0  0.91775  0.29339  0.71185  1.0000
  C   C3724     1.0  0.82057  0.14495  0.69621  1.0000
  C   C3725     1.0  0.82698  0.13964  0.71385  1.0000
  C   C3726     1.0  0.83077  0.12063  0.71980  1.0000
  C   C3727     1.0  0.82802  0.10689  0.70817  1.0000
  C   C3728     1.0  0.82162  0.11215  0.69053  1.0000
  C   C3729     1.0  0.96416  0.32576  0.66834  1.0000
  C   C3730     1.0  0.92406  0.31704  0.73164  1.0000
  C   C3731     1.0  0.97152  0.47470  0.93450  1.0000
  C   C3732     1.0  0.79616  0.36998  0.90017  1.0000
  C   C3733     1.0  0.90949  0.37127  0.78276  1.0000
  C   C3734     1.0  0.85308  0.47664  0.77500  1.0000
  H   H2969     1.0  0.90295  0.37939  0.79397  1.0000
  C   C3735     1.0  0.79664  0.33326  0.80805  1.0000
  H   H2970     1.0  0.77612  0.15850  0.67864  1.0000
  C   C3736     1.0  0.83117  0.16812  0.65389  1.0000
  C   C3737     1.0  0.92902  0.36937  0.77905  1.0000
  C   C3738     1.0  0.90075  0.48276  0.97108  1.0000
  C   C3739     1.0  0.97499  0.41257  0.93899  1.0000
  H   H2971     1.0  0.79792  0.36146  0.93999  1.0000
  H   H2972     1.0  0.81744  0.15973  0.69195  1.0000
  H   H2973     1.0  0.82896  0.15031  0.72292  1.0000
  H   H2974     1.0  0.83575  0.11655  0.73347  1.0000
  H   H2975     1.0  0.83083  0.09214  0.71284  1.0000
  H   H2976     1.0  0.81938  0.10137  0.68170  1.0000
  C   C3740     1.0  0.78115  0.35885  0.90540  1.0000
  C   C3741     1.0  0.96855  0.42937  0.94699  1.0000
  H   H2977     1.0  0.93644  0.46723  0.92217  1.0000
  H   H2978     1.0  0.80990  0.42687  0.90721  1.0000
  C   C3742     1.0  0.82346  0.34843  0.95036  1.0000
  H   H2979     1.0  0.79964  0.35392  0.78445  1.0000
  C   C3743     1.0  0.76343  0.42827  0.82073  1.0000
  C   C3744     1.0  0.96478  0.30655  0.66622  1.0000
  H   H2980     1.0  0.76573  0.35831  0.78036  1.0000
  C   C3745     1.0  0.87471  0.46655  0.83419  1.0000
  C   C3746     1.0  0.78117  0.43906  0.90705  1.0000
  H   H2981     1.0  0.74265  0.15250  0.68302  1.0000
  C   C3747     1.0  0.80778  0.34903  0.94023  1.0000
  H   H2982     1.0  0.83287  0.46935  0.85581  1.0000
  C   C3748     1.0  0.91910  0.35775  0.70664  1.0000
  H   H2983     1.0  0.91125  0.31365  0.76024  1.0000
  C   C3749     1.0  0.78989  0.34594  0.79375  1.0000
  H   H2984     1.0  0.97985  0.34843  0.67366  1.0000
  H   H2985     1.0  0.77894  0.29585  0.91253  1.0000
  C   C3750     1.0  0.93740  0.35881  0.76459  1.0000
  C   C3751     1.0  0.90665  0.35238  0.75734  1.0000
  H   H2986     1.0  0.78938  0.31315  0.83119  1.0000
  C   C3752     1.0  0.90014  0.48415  0.84001  1.0000
  H   H2987     1.0  0.79315  0.45008  0.85365  1.0000
  H   H2988     1.0  0.89451  0.28659  0.75518  1.0000
  C   C3753     1.0  0.89807  0.47765  0.85904  1.0000
  H   H2989     1.0  0.92001  0.28734  0.69850  1.0000
  C   C3754     1.0  0.92667  0.30923  0.71436  1.0000
  C   C3755     1.0  0.89833  0.36290  0.77181  1.0000
  H   H2990     1.0  0.89879  0.27333  0.72430  1.0000
  C   C3756     1.0  0.91285  0.30843  0.74653  1.0000
  C   C3757     1.0  0.95181  0.36270  0.70753  1.0000
  C   C3758     1.0  0.95061  0.37607  0.69205  1.0000
  C   C3759     1.0  0.83382  0.31736  0.94103  1.0000
  C   C3760     1.0  0.81824  0.31794  0.93076  1.0000
  C   C3761     1.0  0.79176  0.31975  0.89759  1.0000
  C   C3762     1.0  0.78675  0.30120  0.89980  1.0000
  C   C3763     1.0  0.79183  0.28932  0.88551  1.0000
  C   C3764     1.0  0.80223  0.29574  0.86907  1.0000
  C   C3765     1.0  0.80758  0.31405  0.86691  1.0000
  C   C3766     1.0  0.80239  0.32601  0.88110  1.0000
  H   H2991     1.0  0.88317  0.36463  0.77451  1.0000
  H   H2992     1.0  0.82589  0.36043  0.95751  1.0000
  H   H2993     1.0  0.95250  0.35792  0.76158  1.0000
  C   C3767     1.0  0.83648  0.33262  0.95074  1.0000
  H   H2994     1.0  0.84408  0.30522  0.94120  1.0000
  H   H2995     1.0  0.81660  0.30605  0.92317  1.0000
  H   H2996     1.0  0.97476  0.47344  0.98162  1.0000
  H   H2997     1.0  0.78770  0.27511  0.88719  1.0000
  H   H2998     1.0  0.80619  0.28652  0.85802  1.0000
  H   H2999     1.0  0.81572  0.31906  0.85421  1.0000
  H   H3000     1.0  0.80669  0.34013  0.87907  1.0000
  H   H3001     1.0  0.77251  0.40886  0.87990  1.0000
  C   C3768     1.0  0.81893  0.47022  0.91286  1.0000
  C   C3769     1.0  0.85353  0.45725  0.77407  1.0000
  H   H3002     1.0  0.96920  0.32511  0.70901  1.0000
  C   C3770     1.0  0.89429  0.47025  0.90393  1.0000
  C   C3771     1.0  0.91271  0.46351  0.90749  1.0000
  P   P125      1.0  0.88094  0.45746  0.89040  1.0000
  C   C3772     1.0  0.88424  0.46554  0.86577  1.0000
  C   C3773     1.0  0.88787  0.43248  0.89426  1.0000
  C   C3774     1.0  0.89203  0.42450  0.91218  1.0000
  C   C3775     1.0  0.89712  0.40522  0.91529  1.0000
  C   C3776     1.0  0.89818  0.39371  0.90066  1.0000
  C   C3777     1.0  0.89410  0.40147  0.88283  1.0000
  C   C3778     1.0  0.88900  0.42074  0.87960  1.0000
  C   C3779     1.0  0.87259  0.46006  0.85318  1.0000
  C   C3780     1.0  0.76297  0.36605  0.90131  1.0000
  H   H3003     1.0  0.76778  0.43476  0.79086  1.0000
  C   C3781     1.0  0.98392  0.31245  0.75935  1.0000
  C   C3782     1.0  0.92259  0.47295  0.91879  1.0000
  C   C3783     1.0  0.85652  0.46203  0.89896  1.0000
  H   H3004     1.0  0.95098  0.33444  0.66793  1.0000
  S   S500      1.0  0.90861  0.34204  0.66074  1.0000
  H   H3005     1.0  0.85052  0.45662  0.72736  1.0000
  C   C3784     1.0  0.98209  0.29554  0.66677  1.0000
  H   H3006     1.0  0.77785  0.43572  0.92194  1.0000
  Fe  Fe252     1.0  0.89047  0.42100  0.97680  1.0000
  H   H3007     1.0  0.84888  0.33240  0.95822  1.0000
  C   C3785     1.0  0.78419  0.32288  0.82003  1.0000
  H   H3008     1.0  0.80465  0.39632  0.88697  1.0000
  H   H3009     1.0  0.91927  0.45070  0.90201  1.0000
  H   H3010     1.0  0.89097  0.43305  0.92388  1.0000
  H   H3011     1.0  0.89940  0.39896  0.92926  1.0000
  H   H3012     1.0  0.90140  0.37866  0.90336  1.0000
  H   H3013     1.0  0.89420  0.39243  0.87163  1.0000
  H   H3014     1.0  0.88565  0.42612  0.86571  1.0000
  H   H3015     1.0  0.86181  0.45074  0.85808  1.0000
  H   H3016     1.0  0.89000  0.48369  0.81288  1.0000
  H   H3017     1.0  0.93265  0.39074  0.67203  1.0000
  H   H3018     1.0  0.82496  0.44903  0.93540  1.0000
  C   C3786     1.0  0.97195  0.47870  0.96746  1.0000
  H   H3019     1.0  0.85786  0.44198  0.92352  1.0000
  H   H3020     1.0  0.86553  0.46235  0.82462  1.0000
  C   C3787     1.0  0.81017  0.48136  0.80925  1.0000
  C   C3788     1.0  0.85149  0.46224  0.74061  1.0000
  C   C3789     1.0  0.97326  0.32205  0.72312  1.0000
  H   H3021     1.0  0.96757  0.38937  0.92540  1.0000
  H   H3022     1.0  0.85273  0.43501  0.75634  1.0000
  H   H3023     1.0  0.84253  0.15880  0.65934  1.0000
  H   H3024     1.0  0.96286  0.38310  0.68638  1.0000
  C   C3790     1.0  0.76030  0.11359  0.66160  1.0000
  H   H3025     1.0  0.77486  0.33319  0.95693  1.0000
  H   H3026     1.0  0.75270  0.32788  0.73369  1.0000
  C   C3791     1.0  0.76028  0.43550  0.83820  1.0000
  S   S501      1.0  0.94440  0.29571  0.66286  1.0000
  H   H3027     1.0  0.96049  0.38195  0.97424  1.0000
  C   C3792     1.0  0.81332  0.16185  0.65362  1.0000
  C   C3793     1.0  0.75985  0.38415  0.89240  1.0000
  C   C3794     1.0  0.82620  0.48004  0.89644  1.0000
  C   C3795     1.0  0.84498  0.47617  0.88967  1.0000
  H   H3028     1.0  0.80353  0.48466  0.79638  1.0000
  H   H3029     1.0  0.75354  0.45192  0.90269  1.0000
  H   H3030     1.0  0.76553  0.41322  0.81991  1.0000
  C   C3796     1.0  0.76498  0.32511  0.81772  1.0000
  H   H3031     1.0  0.97397  0.46600  0.92289  1.0000
  H   H3032     1.0  0.75570  0.10119  0.65666  1.0000
  H   H3033     1.0  0.75018  0.32244  0.90731  1.0000
  H   H3034     1.0  0.98801  0.30849  0.77338  1.0000
  C   C3797     1.0  0.90393  0.46322  0.97333  1.0000
  C   C3798     1.0  0.85087  0.48167  0.74150  1.0000
  C   C3799     1.0  0.75806  0.33779  0.80335  1.0000
  C   C3800     1.0  0.74714  0.32410  0.96116  1.0000
  H   H3035     1.0  0.84802  0.11892  0.65860  1.0000
  H   H3036     1.0  0.75560  0.32384  0.76773  1.0000
  C   C3801     1.0  0.77068  0.34831  0.79146  1.0000
  H   H3037     1.0  0.75786  0.48222  0.82323  1.0000
  H   H3038     1.0  0.75122  0.35765  0.90442  1.0000
  S   S502      1.0  0.86383  0.40705  0.97941  1.0000
  H   H3039     1.0  0.76395  0.46920  0.79270  1.0000
  C   C3802     1.0  0.88848  0.47859  0.82760  1.0000
  H   H3040     1.0  0.74613  0.32463  0.97623  1.0000
  C   C3803     1.0  0.74257  0.33544  0.74308  1.0000
  P   P126      1.0  0.98460  0.44288  0.95652  1.0000
  H   H3041     1.0  0.74608  0.37634  0.80656  1.0000
  H   H3042     1.0  0.85040  0.48436  0.87721  1.0000
  C   C3804     1.0  0.98440  0.43693  0.98151  1.0000
  C   C3805     1.0  0.74423  0.33327  0.76238  1.0000
  C   C3806     1.0  0.97025  0.38252  0.98459  1.0000
  C   C3807     1.0  0.87152  0.62092  0.14936  1.0000
  H   H3043     1.0  0.74894  0.55541  0.08591  1.0000
  H   H3044     1.0  0.85202  0.50691  0.21961  1.0000
  C   C3808     1.0  0.79165  0.55248  0.11047  1.0000
  Fe  Fe253     1.0  0.89218  0.63450  0.30153  1.0000
  S   S503      1.0  0.89006  0.62372  0.27229  1.0000
  S   S504      1.0  0.90680  0.66088  0.30253  1.0000
  Fe  Fe254     1.0  0.80148  0.58024  0.16130  1.0000
  S   S505      1.0  0.82437  0.59943  0.16230  1.0000
  S   S506      1.0  0.76978  0.58835  0.15911  1.0000
  Fe  Fe255     1.0  0.82789  0.54470  0.17048  1.0000
  S   S507      1.0  0.85232  0.56158  0.17215  1.0000
  S   S508      1.0  0.83548  0.51297  0.17463  1.0000
  Fe  Fe256     1.0  0.83256  0.58155  0.18861  1.0000
  S   S509      1.0  0.83659  0.59208  0.21753  1.0000
  Fe  Fe257     1.0  0.84275  0.57792  0.14588  1.0000
  S   S510      1.0  0.86628  0.58345  0.12261  1.0000
  S   S511      1.0  0.80849  0.56350  0.18850  1.0000
  S   S512      1.0  0.81948  0.55995  0.14340  1.0000
  Fe  Fe258     1.0  0.92104  0.52902  0.00150  1.0000
  S   S513      1.0  0.89025  0.53670  0.00107  1.0000
  S   S514      1.0  0.93254  0.49926  0.00830  1.0000
  Fe  Fe259     1.0  0.89540  0.56258  0.01407  1.0000
  S   S515      1.0  0.87079  0.56925  0.03588  1.0000
  S   S516      1.0  0.92618  0.55354  0.01662  1.0000
  H   H3045     1.0  0.81444  0.54151  0.06553  1.0000
  C   C3809     1.0  0.83818  0.65580  0.21179  1.0000
  C   C3810     1.0  0.84647  0.50453  0.05596  1.0000
  C   C3811     1.0  0.86744  0.57822  0.09883  1.0000
  C   C3812     1.0  0.88482  0.57796  0.08786  1.0000
  C   C3813     1.0  0.88625  0.57458  0.06875  1.0000
  C   C3814     1.0  0.87020  0.57181  0.06029  1.0000
  C   C3815     1.0  0.85285  0.57192  0.07130  1.0000
  C   C3816     1.0  0.85149  0.57498  0.09048  1.0000
  H   H3046     1.0  0.89724  0.58053  0.09415  1.0000
  H   H3047     1.0  0.89967  0.57468  0.06047  1.0000
  H   H3048     1.0  0.84033  0.56993  0.06489  1.0000
  H   H3049     1.0  0.83804  0.57544  0.09870  1.0000
  C   C3817     1.0  0.76869  0.51847  0.98943  1.0000
  C   C3818     1.0  0.82465  0.53241  0.05785  1.0000
  C   C3819     1.0  0.97464  0.66741  0.26891  1.0000
  C   C3820     1.0  0.84667  0.64193  0.17365  1.0000
  H   H3050     1.0  0.79626  0.51114  0.16743  1.0000
  C   C3821     1.0  0.96126  0.70235  0.28189  1.0000
  H   H3051     1.0  0.96526  0.57666  0.01303  1.0000
  C   C3822     1.0  0.75538  0.60239  0.14321  1.0000
  C   C3823     1.0  0.76253  0.61043  0.12577  1.0000
  H   H3052     1.0  0.77743  0.60847  0.12162  1.0000
  C   C3824     1.0  0.87491  0.61440  0.25764  1.0000
  C   C3825     1.0  0.85578  0.61272  0.26282  1.0000
  C   C3826     1.0  0.84442  0.60590  0.25044  1.0000
  C   C3827     1.0  0.85188  0.60046  0.23268  1.0000
  C   C3828     1.0  0.87106  0.60200  0.22757  1.0000
  C   C3829     1.0  0.88238  0.60895  0.23988  1.0000
  H   H3053     1.0  0.84966  0.61682  0.27632  1.0000
  H   H3054     1.0  0.82968  0.60482  0.25471  1.0000
  H   H3055     1.0  0.87722  0.59780  0.21412  1.0000
  H   H3056     1.0  0.89710  0.61011  0.23558  1.0000
  H   H3057     1.0  0.90154  0.52759  0.05205  1.0000
  H   H3058     1.0  0.83470  0.52276  0.98757  1.0000
  C   C3830     1.0  0.84834  0.64732  0.15429  1.0000
  C   C3831     1.0  0.80908  0.64167  0.19105  1.0000
  C   C3832     1.0  0.94293  0.60962  0.27938  1.0000
  C   C3833     1.0  0.82752  0.82592  0.25781  1.0000
  C   C3834     1.0  0.75578  0.87631  0.31397  1.0000
  H   H3059     1.0  0.76831  0.60977  0.19201  1.0000
  H   H3060     1.0  0.88924  0.48852  0.09682  1.0000
  H   H3061     1.0  0.80369  0.59046  0.01412  1.0000
  H   H3062     1.0  0.86773  0.65162  0.20200  1.0000
  H   H3063     1.0  0.83799  0.59036  0.01606  1.0000
  H   H3064     1.0  0.93583  0.68948  0.29150  1.0000
  H   H3065     1.0  0.82355  0.49304  0.21322  1.0000
  C   C3835     1.0  0.97812  0.57895  0.00431  1.0000
  H   H3066     1.0  0.73869  0.84432  0.29009  1.0000
  C   C3836     1.0  0.80517  0.62877  0.20658  1.0000
  C   C3837     1.0  0.85180  0.51023  0.03718  1.0000
  C   C3838     1.0  0.90966  0.51432  0.05544  1.0000
  C   C3839     1.0  0.95078  0.59875  0.29431  1.0000
  H   H3067     1.0  0.82411  0.55131  0.03271  1.0000
  H   H3068     1.0  0.81962  0.54980  0.09689  1.0000
  H   H3069     1.0  0.85925  0.52918  0.14480  1.0000
  H   H3070     1.0  0.88091  0.61263  0.13995  1.0000
  C   C3840     1.0  0.82544  0.65966  0.22736  1.0000
  H   H3071     1.0  0.83973  0.65926  0.14843  1.0000
  H   H3072     1.0  0.98839  0.71114  0.27134  1.0000
  C   C3841     1.0  0.95645  0.67013  0.27796  1.0000
  C   C3842     1.0  0.80616  0.68714  0.18161  1.0000
  H   H3073     1.0  0.81049  0.66155  0.22603  1.0000
  H   H3074     1.0  0.77094  0.82921  0.29235  1.0000
  H   H3075     1.0  0.78795  0.60707  0.21875  1.0000
  H   H3076     1.0  0.85528  0.62074  0.19528  1.0000
  C   C3843     1.0  0.77940  0.61894  0.19191  1.0000
  C   C3844     1.0  0.80324  0.49705  0.16830  1.0000
  C   C3845     1.0  0.83930  0.68904  0.17226  1.0000
  H   H3077     1.0  0.83494  0.84470  0.23352  1.0000
  H   H3078     1.0  0.87730  0.60244  0.17397  1.0000
  C   C3846     1.0  0.82458  0.67848  0.18009  1.0000
  C   C3847     1.0  0.81350  0.84072  0.28546  1.0000
  H   H3079     1.0  0.84850  0.53199  0.01459  1.0000
  S   S517      1.0  0.90042  0.57895  0.98562  1.0000
  P   P127      1.0  0.82967  0.65441  0.18923  1.0000
  C   C3848     1.0  0.82228  0.49425  0.17125  1.0000
  C   C3849     1.0  0.83556  0.70783  0.16544  1.0000
  H   H3080     1.0  0.81425  0.73083  0.16135  1.0000
  C   C3850     1.0  0.92920  0.51356  0.05478  1.0000
  H   H3081     1.0  0.94742  0.65881  0.28049  1.0000
  C   C3851     1.0  0.77632  0.54310  0.11845  1.0000
  C   C3852     1.0  0.78332  0.63158  0.17628  1.0000
  H   H3082     1.0  0.75642  0.51684  0.18011  1.0000
  C   C3853     1.0  0.81349  0.58242  0.00485  1.0000
  C   C3854     1.0  0.86082  0.63688  0.14222  1.0000
  H   H3083     1.0  0.92891  0.60758  0.27613  1.0000
  H   H3084     1.0  0.84698  0.71589  0.15932  1.0000
  C   C3855     1.0  0.77669  0.52365  0.11801  1.0000
  C   C3856     1.0  0.79245  0.51355  0.10953  1.0000
  C   C3857     1.0  0.80805  0.52289  0.10168  1.0000
  C   C3858     1.0  0.80755  0.54241  0.10236  1.0000
  P   P128      1.0  0.82911  0.51013  0.09172  1.0000
  Fe  Fe260     1.0  0.93104  0.56789  0.98740  1.0000
  C   C3859     1.0  0.84833  0.51790  0.10251  1.0000
  H   H3085     1.0  0.86600  0.52330  0.07651  1.0000
  C   C3860     1.0  0.83306  0.51574  0.06658  1.0000
  C   C3861     1.0  0.87689  0.53250  0.11902  1.0000
  C   C3862     1.0  0.87875  0.53058  0.09981  1.0000
  C   C3863     1.0  0.86449  0.52354  0.09154  1.0000
  H   H3086     1.0  0.82340  0.87353  0.24909  1.0000
  P   P129      1.0  0.80310  0.83932  0.30938  1.0000
  C   C3864     1.0  0.82245  0.85983  0.25675  1.0000
  H   H3087     1.0  0.73899  0.52694  0.99247  1.0000
  C   C3865     1.0  0.74860  0.85088  0.29708  1.0000
  C   C3866     1.0  0.80246  0.70593  0.17476  1.0000
  C   C3867     1.0  0.81974  0.82445  0.27646  1.0000
  C   C3868     1.0  0.76680  0.84229  0.29856  1.0000
  H   H3088     1.0  0.86190  0.64080  0.12725  1.0000
  C   C3869     1.0  0.86394  0.65522  0.23132  1.0000
  H   H3089     1.0  0.87883  0.65313  0.23305  1.0000
  C   C3870     1.0  0.83192  0.66077  0.24486  1.0000
  C   C3871     1.0  0.83002  0.53804  0.03909  1.0000
  H   H3090     1.0  0.76492  0.51633  0.12456  1.0000
  C   C3872     1.0  0.97497  0.62886  0.20912  1.0000
  H   H3091     1.0  0.83400  0.51664  0.13061  1.0000
  H   H3092     1.0  0.81851  0.81061  0.28366  1.0000
  H   H3093     1.0  0.94630  0.63214  0.25782  1.0000
  H   H3094     1.0  0.88753  0.53879  0.12530  1.0000
  H   H3095     1.0  0.89090  0.53538  0.09120  1.0000
  H   H3096     1.0  0.93624  0.52620  0.05087  1.0000
  C   C3873     1.0  0.98599  0.68245  0.26632  1.0000
  C   C3874     1.0  0.75034  0.62109  0.11365  1.0000
  C   C3875     1.0  0.77392  0.86766  0.31568  1.0000
  H   H3097     1.0  0.83239  0.81333  0.25096  1.0000
  C   C3876     1.0  0.74307  0.86784  0.30486  1.0000
  C   C3877     1.0  0.86957  0.61523  0.16852  1.0000
  C   C3878     1.0  0.85753  0.65406  0.21381  1.0000
  C   C3879     1.0  0.94977  0.68758  0.28428  1.0000
  H   H3098     1.0  0.79466  0.67946  0.18819  1.0000
  C   C3880     1.0  0.82893  0.84359  0.24797  1.0000
  H   H3099     1.0  0.78820  0.71253  0.17586  1.0000
  H   H3100     1.0  0.82205  0.66319  0.25697  1.0000
  H   H3101     1.0  0.81397  0.62677  0.21807  1.0000
  H   H3102     1.0  0.80960  0.87108  0.28202  1.0000
  H   H3103     1.0  0.85622  0.65875  0.26051  1.0000
  C   C3881     1.0  0.85710  0.62563  0.18058  1.0000
  C   C3882     1.0  0.74780  0.54272  0.16420  1.0000
  H   H3104     1.0  0.85368  0.68273  0.17149  1.0000
  H   H3105     1.0  0.77526  0.63205  0.16427  1.0000
  C   C3883     1.0  0.79820  0.64280  0.17576  1.0000
  H   H3106     1.0  0.76434  0.55097  0.12526  1.0000
  C   C3884     1.0  0.81714  0.71626  0.16662  1.0000
  H   H3107     1.0  0.79147  0.56752  0.11119  1.0000
  H   H3108     1.0  0.80159  0.65190  0.16321  1.0000
  H   H3109     1.0  0.79189  0.57219  0.99137  1.0000
  H   H3110     1.0  0.76063  0.54906  0.16547  1.0000
  C   C3885     1.0  0.95286  0.62355  0.26903  1.0000
  C   C3886     1.0  0.85116  0.65842  0.24686  1.0000
  H   H3111     1.0  0.95619  0.71570  0.28722  1.0000
  C   C3887     1.0  0.79037  0.61750  0.20701  1.0000
  H   H3112     1.0  0.86036  0.57243  0.99467  1.0000
  C   C3888     1.0  0.84659  0.51998  0.12183  1.0000
  H   H3113     1.0  0.97433  0.59388  0.31093  1.0000
  H   H3114     1.0  0.83394  0.81094  0.31693  1.0000
  H   H3115     1.0  0.75608  0.62736  0.10027  1.0000
  C   C3889     1.0  0.81468  0.85840  0.27539  1.0000
  C   C3890     1.0  0.77947  0.85038  0.30827  1.0000
  C   C3891     1.0  0.86085  0.52719  0.12999  1.0000
  C   C3892     1.0  0.84374  0.52710  0.02883  1.0000
  H   H3116     1.0  0.76737  0.50493  0.99732  1.0000
  H   H3117     1.0  0.86267  0.50194  0.02927  1.0000
  H   H3118     1.0  0.94280  0.58836  0.30266  1.0000
  C   C3893     1.0  0.97079  0.62669  0.27354  1.0000
  C   C3894     1.0  0.97856  0.61572  0.28858  1.0000
  H   H3119     1.0  0.83980  0.85544  0.30297  1.0000
  C   C3895     1.0  0.74541  0.52459  0.17247  1.0000
  C   C3896     1.0  0.83277  0.58251  0.00586  1.0000
  C   C3897     1.0  0.96858  0.60178  0.29889  1.0000
  H   H3120     1.0  0.79253  0.49848  0.10957  1.0000
  C   C3898     1.0  0.97801  0.62861  0.22803  1.0000
  C   C3899     1.0  0.85143  0.49181  0.22185  1.0000
  C   C3900     1.0  0.90065  0.49789  0.06003  1.0000
  H   H3121     1.0  0.95488  0.49576  0.05757  1.0000
  C   C3901     1.0  0.80687  0.57195  0.99194  1.0000
  H   H3122     1.0  0.85341  0.49180  0.06243  1.0000
  C   C3902     1.0  0.84543  0.57235  0.99381  1.0000
  H   H3123     1.0  0.98031  0.52399  0.00890  1.0000
  H   H3124     1.0  0.97099  0.64609  0.18332  1.0000
  H   H3125     1.0  0.97922  0.61527  0.23649  1.0000
  P   P130      1.0  0.98339  0.64499  0.26036  1.0000
  C   C3903     1.0  0.75271  0.53086  0.98671  1.0000
  H   H3126     1.0  0.97371  0.61582  0.20317  1.0000
  H   H3127     1.0  0.88559  0.49864  0.06024  1.0000
  C   C3904     1.0  0.97937  0.69978  0.27293  1.0000
  C   C3905     1.0  0.93971  0.49639  0.05864  1.0000
  C   C3906     1.0  0.97932  0.64547  0.23596  1.0000
  C   C3907     1.0  0.97344  0.64590  0.19794  1.0000
  H   H3128     1.0  0.97922  0.67568  0.23023  1.0000
  H   H3129     1.0  0.97387  0.67593  0.19697  1.0000
  C   C3908     1.0  0.97504  0.66271  0.20564  1.0000
  C   C3909     1.0  0.97804  0.66251  0.22456  1.0000
  C   C3910     1.0  0.83386  0.85736  0.31713  1.0000
  C   C3911     1.0  0.97795  0.58144  0.98481  1.0000
  H   H3130     1.0  0.90733  0.91509  0.55910  1.0000
  S   S518      1.0  0.89374  0.60466  0.62744  1.0000
  S   S519      1.0  0.92084  0.64743  0.63719  1.0000
  H   H3131     1.0  0.93347  0.49641  0.57647  1.0000
  H   H3132     1.0  0.77520  0.83379  0.63069  1.0000
  Fe  Fe261     1.0  0.88964  0.62783  0.34541  1.0000
  S   S520      1.0  0.88049  0.60763  0.37046  1.0000
  S   S521      1.0  0.90357  0.65364  0.34884  1.0000
  Fe  Fe262     1.0  0.88870  0.55449  0.50167  1.0000
  S   S522      1.0  0.87668  0.58472  0.49584  1.0000
  S   S523      1.0  0.87253  0.52889  0.50135  1.0000
  Fe  Fe263     1.0  0.92650  0.56546  0.50857  1.0000
  S   S524      1.0  0.91820  0.59615  0.50243  1.0000
  S   S525      1.0  0.95428  0.55165  0.51703  1.0000
  Fe  Fe264     1.0  0.89169  0.59063  0.52046  1.0000
  S   S526      1.0  0.88235  0.61348  0.54025  1.0000
  Fe  Fe265     1.0  0.90401  0.58831  0.47829  1.0000
  S   S527      1.0  0.90843  0.60838  0.45184  1.0000
  S   S528      1.0  0.90081  0.56017  0.52793  1.0000
  S   S529      1.0  0.91515  0.55791  0.48280  1.0000
  Fe  Fe266     1.0  0.81568  0.80555  0.42361  1.0000
  S   S530      1.0  0.80885  0.83270  0.40632  1.0000
  S   S531      1.0  0.80415  0.80246  0.45444  1.0000
  Fe  Fe267     1.0  0.83674  0.78706  0.38955  1.0000
  S   S532      1.0  0.83139  0.81339  0.37002  1.0000
  S   S533      1.0  0.85688  0.76055  0.38466  1.0000
  Fe  Fe268     1.0  0.83884  0.82893  0.39369  1.0000
  S   S534      1.0  0.85441  0.85540  0.39221  1.0000
  Fe  Fe269     1.0  0.80160  0.81547  0.38424  1.0000
  S   S535      1.0  0.77392  0.82017  0.36963  1.0000
  S   S536      1.0  0.84587  0.80274  0.41232  1.0000
  S   S537      1.0  0.80672  0.78803  0.40236  1.0000
  Fe  Fe270     1.0  0.80888  0.82380  0.58730  1.0000
  S   S538      1.0  0.81573  0.79598  0.57469  1.0000
  S   S539      1.0  0.77852  0.83839  0.58918  1.0000
  Fe  Fe271     1.0  0.85131  0.82865  0.58816  1.0000
  S   S540      1.0  0.86064  0.80098  0.57643  1.0000
  S   S541      1.0  0.86985  0.85128  0.59394  1.0000
  Fe  Fe272     1.0  0.83866  0.80945  0.55614  1.0000
  S   S542      1.0  0.84951  0.80586  0.52559  1.0000
  Fe  Fe273     1.0  0.83719  0.78937  0.59589  1.0000
  S   S543      1.0  0.83676  0.76000  0.61181  1.0000
  S   S544      1.0  0.83049  0.83769  0.56698  1.0000
  S   S545      1.0  0.82913  0.81658  0.60946  1.0000
  Fe  Fe274     1.0  0.96208  0.87780  0.40357  1.0000
  S   S546      1.0  0.95675  0.89668  0.42696  1.0000
  S   S547      1.0  0.94291  0.85810  0.39336  1.0000
  H   H3133     1.0  0.85148  0.64522  0.58917  1.0000
  H   H3134     1.0  0.75130  0.88932  0.32023  1.0000
  S   S548      1.0  0.95785  0.85917  0.57328  1.0000
  H   H3135     1.0  0.97741  0.61384  0.51420  1.0000
  C   C3912     1.0  0.80978  0.63375  0.61228  1.0000
  H   H3136     1.0  0.82257  0.74478  0.39918  1.0000
  H   H3137     1.0  0.83990  0.66634  0.34724  1.0000
  H   H3138     1.0  0.82498  0.68255  0.44631  1.0000
  C   C3913     1.0  0.80960  0.85297  0.34269  1.0000
  C   C3914     1.0  0.89424  0.85350  0.58745  1.0000
  C   C3915     1.0  0.90222  0.86935  0.59211  1.0000
  C   C3916     1.0  0.92154  0.87151  0.58770  1.0000
  C   C3917     1.0  0.93319  0.85776  0.57856  1.0000
  C   C3918     1.0  0.92514  0.84211  0.57357  1.0000
  C   C3919     1.0  0.90583  0.83996  0.57797  1.0000
  H   H3139     1.0  0.89343  0.87991  0.59945  1.0000
  H   H3140     1.0  0.92747  0.88361  0.59168  1.0000
  H   H3141     1.0  0.93395  0.83143  0.56643  1.0000
  H   H3142     1.0  0.89997  0.82771  0.57425  1.0000
  C   C3920     1.0  0.75594  0.83823  0.36297  1.0000
  H   H3143     1.0  0.78865  0.87787  0.41268  1.0000
  H   H3144     1.0  0.85924  0.49261  0.49991  1.0000
  C   C3921     1.0  0.75659  0.85720  0.36565  1.0000
  H   H3145     1.0  0.78981  0.73640  0.40296  1.0000
  C   C3922     1.0  0.81632  0.85112  0.32391  1.0000
  H   H3146     1.0  0.76824  0.86139  0.37212  1.0000
  C   C3923     1.0  0.81707  0.80364  0.47396  1.0000
  C   C3924     1.0  0.80729  0.80514  0.49178  1.0000
  C   C3925     1.0  0.81696  0.80590  0.50773  1.0000
  C   C3926     1.0  0.83658  0.80480  0.50607  1.0000
  C   C3927     1.0  0.84635  0.80323  0.48826  1.0000
  C   C3928     1.0  0.83668  0.80276  0.47226  1.0000
  H   H3147     1.0  0.79213  0.80583  0.49322  1.0000
  H   H3148     1.0  0.80925  0.80725  0.52130  1.0000
  H   H3149     1.0  0.86151  0.80252  0.48681  1.0000
  H   H3150     1.0  0.84439  0.80158  0.45866  1.0000
  C   C3929     1.0  0.87899  0.85589  0.39300  1.0000
  C   C3930     1.0  0.89150  0.83987  0.39086  1.0000
  C   C3931     1.0  0.91094  0.84088  0.39113  1.0000
  C   C3932     1.0  0.91816  0.85784  0.39366  1.0000
  C   C3933     1.0  0.90565  0.87387  0.39595  1.0000
  C   C3934     1.0  0.88617  0.87288  0.39559  1.0000
  H   H3151     1.0  0.88623  0.82675  0.38867  1.0000
  H   H3152     1.0  0.92050  0.82845  0.38916  1.0000
  H   H3153     1.0  0.91102  0.88704  0.39774  1.0000
  H   H3154     1.0  0.87662  0.88538  0.39714  1.0000
  C   C3935     1.0  0.97170  0.56722  0.51573  1.0000
  C   C3936     1.0  0.96700  0.58658  0.51575  1.0000
  H   H3155     1.0  0.92603  0.52112  0.55088  1.0000
  H   H3156     1.0  0.81488  0.86257  0.36894  1.0000
  H   H3157     1.0  0.95252  0.59211  0.51699  1.0000
  Fe  Fe275     1.0  0.97794  0.88097  0.57752  1.0000
  C   C3937     1.0  0.88423  0.50726  0.49473  1.0000
  C   C3938     1.0  0.90345  0.50551  0.48899  1.0000
  C   C3939     1.0  0.81970  0.73030  0.40296  1.0000
  H   H3158     1.0  0.81256  0.90893  0.45651  1.0000
  C   C3940     1.0  0.87938  0.69494  0.59359  1.0000
  H   H3159     1.0  0.91144  0.51753  0.48833  1.0000
  H   H3160     1.0  0.87437  0.64774  0.42721  1.0000
  H   H3161     1.0  0.83783  0.72585  0.33457  1.0000
  C   C3941     1.0  0.86386  0.71317  0.34456  1.0000
  C   C3942     1.0  0.87707  0.71439  0.35727  1.0000
  C   C3943     1.0  0.87479  0.72907  0.36923  1.0000
  C   C3944     1.0  0.85921  0.74264  0.36882  1.0000
  C   C3945     1.0  0.84582  0.74120  0.35640  1.0000
  C   C3946     1.0  0.84821  0.72668  0.34426  1.0000
  H   H3162     1.0  0.88923  0.70424  0.35762  1.0000
  H   H3163     1.0  0.88526  0.73000  0.37876  1.0000
  H   H3164     1.0  0.83362  0.75124  0.35623  1.0000
  C   C3947     1.0  0.88818  0.60816  0.39308  1.0000
  C   C3948     1.0  0.90124  0.62031  0.39642  1.0000
  C   C3949     1.0  0.90724  0.62015  0.41447  1.0000
  C   C3950     1.0  0.90031  0.60784  0.42941  1.0000
  C   C3951     1.0  0.88708  0.59582  0.42616  1.0000
  C   C3952     1.0  0.88113  0.59594  0.40807  1.0000
  H   H3165     1.0  0.90687  0.62971  0.38505  1.0000
  H   H3166     1.0  0.91741  0.62957  0.41682  1.0000
  H   H3167     1.0  0.88132  0.58656  0.43758  1.0000
  H   H3168     1.0  0.87098  0.58652  0.40565  1.0000
  C   C3953     1.0  0.88378  0.71577  0.63140  1.0000
  C   C3954     1.0  0.88837  0.73255  0.62086  1.0000
  C   C3955     1.0  0.87424  0.74630  0.61484  1.0000
  C   C3956     1.0  0.85528  0.74346  0.61940  1.0000
  C   C3957     1.0  0.85072  0.72673  0.63007  1.0000
  C   C3958     1.0  0.86486  0.71299  0.63605  1.0000
  H   H3169     1.0  0.87798  0.75911  0.60675  1.0000
  C   C3959     1.0  0.95590  0.94390  0.46145  1.0000
  H   H3170     1.0  0.79644  0.84763  0.34836  1.0000
  C   C3960     1.0  0.89192  0.60740  0.60293  1.0000
  C   C3961     1.0  0.89087  0.62507  0.59284  1.0000
  C   C3962     1.0  0.88813  0.62676  0.57362  1.0000
  C   C3963     1.0  0.88707  0.61075  0.56415  1.0000
  C   C3964     1.0  0.88869  0.59303  0.57415  1.0000
  C   C3965     1.0  0.89099  0.59139  0.59346  1.0000
  H   H3171     1.0  0.89178  0.63742  0.59995  1.0000
  H   H3172     1.0  0.88649  0.64056  0.56620  1.0000
  H   H3173     1.0  0.88765  0.58060  0.56713  1.0000
  H   H3174     1.0  0.89180  0.57765  0.60116  1.0000
  H   H3175     1.0  0.80934  0.67833  0.41478  1.0000
  C   C3966     1.0  0.76012  0.84442  0.60697  1.0000
  C   C3967     1.0  0.97548  0.66927  0.32186  1.0000
  C   C3968     1.0  0.76216  0.84077  0.62617  1.0000
  H   H3176     1.0  0.78145  0.73687  0.44319  1.0000
  C   C3969     1.0  0.89676  0.70651  0.41199  1.0000
  H   H3177     1.0  0.83684  0.63223  0.35534  1.0000
  C   C3970     1.0  0.79754  0.70683  0.40952  1.0000
  C   C3971     1.0  0.75628  0.79639  0.58556  1.0000
  C   C3972     1.0  0.85086  0.92727  0.43287  1.0000
  C   C3973     1.0  0.90979  0.69740  0.39937  1.0000
  C   C3974     1.0  0.97486  0.95297  0.49091  1.0000
  H   H3178     1.0  0.86865  0.70788  0.42546  1.0000
  C   C3975     1.0  0.78776  0.78879  0.33500  1.0000
  H   H3179     1.0  0.83612  0.72439  0.63367  1.0000
  C   C3976     1.0  0.94397  0.60177  0.55521  1.0000
  H   H3180     1.0  0.84869  0.72043  0.40247  1.0000
  H   H3181     1.0  0.91479  0.67544  0.38066  1.0000
  C   C3977     1.0  0.96199  0.57789  0.57390  1.0000
  C   C3978     1.0  0.79365  0.68812  0.62742  1.0000
  C   C3979     1.0  0.95241  0.56764  0.39455  1.0000
  C   C3980     1.0  0.93800  0.55642  0.40198  1.0000
  C   C3981     1.0  0.92137  0.55782  0.39302  1.0000
  P   P131      1.0  0.94033  0.54155  0.42364  1.0000
  C   C3982     1.0  0.91731  0.53517  0.43308  1.0000
  C   C3983     1.0  0.94101  0.94328  0.54012  1.0000
  C   C3984     1.0  0.82229  0.61075  0.59076  1.0000
  C   C3985     1.0  0.88646  0.67705  0.39378  1.0000
  C   C3986     1.0  0.86344  0.65162  0.43803  1.0000
  C   C3987     1.0  0.90519  0.93442  0.53426  1.0000
  S   S549      1.0  0.98171  0.86826  0.46838  1.0000
  C   C3988     1.0  0.90460  0.54842  0.44183  1.0000
  C   C3989     1.0  0.88707  0.54348  0.44996  1.0000
  C   C3990     1.0  0.88195  0.52539  0.44907  1.0000
  C   C3991     1.0  0.89417  0.51234  0.43963  1.0000
  C   C3992     1.0  0.91167  0.51728  0.43139  1.0000
  C   C3993     1.0  0.94894  0.55519  0.44025  1.0000
  C   C3994     1.0  0.94555  0.57488  0.43877  1.0000
  C   C3995     1.0  0.95260  0.58540  0.45134  1.0000
  C   C3996     1.0  0.96282  0.57639  0.46567  1.0000
  C   C3997     1.0  0.96604  0.55684  0.46743  1.0000
  C   C3998     1.0  0.95901  0.54627  0.45490  1.0000
  H   H3182     1.0  0.90990  0.54957  0.39843  1.0000
  Fe  Fe276     1.0  0.88534  0.66775  0.32687  1.0000
  C   C3999     1.0  0.81651  0.88869  0.51518  1.0000
  C   C4000     1.0  0.98005  0.67884  0.62447  1.0000
  H   H3183     1.0  0.90834  0.56251  0.44268  1.0000
  H   H3184     1.0  0.87759  0.55355  0.45736  1.0000
  H   H3185     1.0  0.86859  0.52144  0.45589  1.0000
  C   C4001     1.0  0.97175  0.71139  0.63047  1.0000
  C   C4002     1.0  0.87411  0.49140  0.49550  1.0000
  H   H3186     1.0  0.93711  0.58221  0.42820  1.0000
  S   S550      1.0  0.91058  0.61809  0.32229  1.0000
  C   C4003     1.0  0.92377  0.49402  0.56658  1.0000
  H   H3187     1.0  0.94505  0.71711  0.64653  1.0000
  H   H3188     1.0  0.94160  0.57669  0.60696  1.0000
  C   C4004     1.0  0.88863  0.93798  0.47734  1.0000
  C   C4005     1.0  0.86938  0.93665  0.47747  1.0000
  C   C4006     1.0  0.86195  0.91962  0.48346  1.0000
  C   C4007     1.0  0.87371  0.90385  0.48928  1.0000
  C   C4008     1.0  0.89307  0.90511  0.48944  1.0000
  C   C4009     1.0  0.90043  0.92230  0.48325  1.0000
  P   P132      1.0  0.90837  0.88438  0.49591  1.0000
  C   C4010     1.0  0.89588  0.86923  0.51333  1.0000
  C   C4011     1.0  0.91609  0.87212  0.47542  1.0000
  C   C4012     1.0  0.93329  0.86093  0.47443  1.0000
  C   C4013     1.0  0.93921  0.85137  0.45858  1.0000
  C   C4014     1.0  0.92787  0.85263  0.44380  1.0000
  C   C4015     1.0  0.91068  0.86360  0.44478  1.0000
  C   C4016     1.0  0.90485  0.87341  0.46048  1.0000
  C   C4017     1.0  0.89756  0.84971  0.51228  1.0000
  C   C4018     1.0  0.88786  0.83809  0.52584  1.0000
  C   C4019     1.0  0.87684  0.84580  0.54077  1.0000
  C   C4020     1.0  0.87526  0.86517  0.54207  1.0000
  C   C4021     1.0  0.88467  0.87689  0.52835  1.0000
  C   C4022     1.0  0.92882  0.89109  0.50518  1.0000
  C   C4023     1.0  0.93129  0.88781  0.52438  1.0000
  C   C4024     1.0  0.94728  0.89316  0.53117  1.0000
  C   C4025     1.0  0.96068  0.90205  0.51896  1.0000
  C   C4026     1.0  0.95851  0.90489  0.49987  1.0000
  C   C4027     1.0  0.94284  0.89920  0.49292  1.0000
  H   H3189     1.0  0.89444  0.95112  0.47241  1.0000
  H   H3190     1.0  0.86026  0.94877  0.47273  1.0000
  H   H3191     1.0  0.84708  0.91861  0.48334  1.0000
  H   H3192     1.0  0.86771  0.89065  0.49346  1.0000
  H   H3193     1.0  0.91527  0.92371  0.48277  1.0000
  H   H3194     1.0  0.94232  0.85974  0.48575  1.0000
  C   C4028     1.0  0.97082  0.57173  0.61319  1.0000
  C   C4029     1.0  0.78459  0.69514  0.59032  1.0000
  H   H3195     1.0  0.90185  0.86441  0.43338  1.0000
  H   H3196     1.0  0.89157  0.88186  0.46097  1.0000
  H   H3197     1.0  0.90649  0.84337  0.50118  1.0000
  H   H3198     1.0  0.88896  0.82302  0.52498  1.0000
  H   H3199     1.0  0.86981  0.83669  0.55154  1.0000
  H   H3200     1.0  0.86702  0.87094  0.55398  1.0000
  H   H3201     1.0  0.88352  0.89185  0.52969  1.0000
  H   H3202     1.0  0.92122  0.88089  0.53420  1.0000
  H   H3203     1.0  0.94929  0.89029  0.54592  1.0000
  H   H3204     1.0  0.84542  0.87417  0.35658  1.0000
  H   H3205     1.0  0.96943  0.91073  0.49034  1.0000
  H   H3206     1.0  0.94186  0.90088  0.47790  1.0000
  C   C4030     1.0  0.93165  0.71654  0.56029  1.0000
  C   C4031     1.0  0.92821  0.71928  0.57933  1.0000
  C   C4032     1.0  0.93387  0.70505  0.59281  1.0000
  C   C4033     1.0  0.94293  0.68805  0.58733  1.0000
  C   C4034     1.0  0.94636  0.68512  0.56821  1.0000
  C   C4035     1.0  0.94070  0.69954  0.55473  1.0000
  P   P133      1.0  0.95729  0.66293  0.56080  1.0000
  C   C4036     1.0  0.95760  0.64595  0.58108  1.0000
  C   C4037     1.0  0.94339  0.65579  0.54359  1.0000
  C   C4038     1.0  0.92369  0.65793  0.54644  1.0000
  C   C4039     1.0  0.91283  0.65204  0.53345  1.0000
  C   C4040     1.0  0.92148  0.64399  0.51755  1.0000
  C   C4041     1.0  0.94103  0.64214  0.51438  1.0000
  C   C4042     1.0  0.95197  0.64815  0.52723  1.0000
  C   C4043     1.0  0.94260  0.63487  0.58639  1.0000
  C   C4044     1.0  0.94263  0.62265  0.60277  1.0000
  C   C4045     1.0  0.95729  0.62182  0.61422  1.0000
  C   C4046     1.0  0.97217  0.63287  0.60914  1.0000
  C   C4047     1.0  0.97244  0.64479  0.59256  1.0000
  H   H3207     1.0  0.86012  0.71771  0.58340  1.0000
  C   C4048     1.0  0.76552  0.88941  0.61395  1.0000
  C   C4049     1.0  0.74217  0.87086  0.35984  1.0000
  H   H3208     1.0  0.90429  0.51547  0.52794  1.0000
  C   C4050     1.0  0.83724  0.86790  0.34742  1.0000
  H   H3209     1.0  0.77493  0.78291  0.34089  1.0000
  H   H3210     1.0  0.92704  0.72753  0.54986  1.0000
  H   H3211     1.0  0.92088  0.73231  0.58370  1.0000
  H   H3212     1.0  0.93089  0.70704  0.60760  1.0000
  H   H3213     1.0  0.94679  0.67719  0.59815  1.0000
  H   H3214     1.0  0.94303  0.69751  0.53993  1.0000
  H   H3215     1.0  0.91668  0.66384  0.55886  1.0000
  H   H3216     1.0  0.89765  0.65332  0.53583  1.0000
  H   H3217     1.0  0.91299  0.63901  0.50779  1.0000
  H   H3218     1.0  0.94769  0.63581  0.50204  1.0000
  C   C4051     1.0  0.98269  0.56988  0.62775  1.0000
  H   H3219     1.0  0.93077  0.63561  0.57814  1.0000
  H   H3220     1.0  0.93093  0.61426  0.60695  1.0000
  H   H3221     1.0  0.95687  0.61303  0.62736  1.0000
  H   H3222     1.0  0.85782  0.87042  0.32369  1.0000
  H   H3223     1.0  0.92070  0.50705  0.42385  1.0000
  H   H3224     1.0  0.98324  0.63246  0.61839  1.0000
  C   C4052     1.0  0.95559  0.95846  0.49057  1.0000
  H   H3225     1.0  0.90295  0.73496  0.61735  1.0000
  H   H3226     1.0  0.92446  0.56030  0.55889  1.0000
  S   S551      1.0  0.90218  0.69862  0.63797  1.0000
  C   C4053     1.0  0.80375  0.75308  0.44802  1.0000
  C   C4054     1.0  0.82094  0.75288  0.45553  1.0000
  C   C4055     1.0  0.82940  0.73613  0.46403  1.0000
  C   C4056     1.0  0.82034  0.71959  0.46491  1.0000
  P   P134      1.0  0.85093  0.73644  0.47489  1.0000
  C   C4057     1.0  0.86313  0.71309  0.47658  1.0000
  C   C4058     1.0  0.86539  0.75252  0.46053  1.0000
  C   C4059     1.0  0.87540  0.76481  0.46878  1.0000
  C   C4060     1.0  0.88656  0.77718  0.45756  1.0000
  C   C4061     1.0  0.88776  0.77744  0.43804  1.0000
  C   C4062     1.0  0.87783  0.76528  0.42973  1.0000
  C   C4063     1.0  0.86660  0.75293  0.44088  1.0000
  C   C4064     1.0  0.87812  0.70802  0.46344  1.0000
  C   C4065     1.0  0.88697  0.68972  0.46451  1.0000
  C   C4066     1.0  0.88118  0.67645  0.47890  1.0000
  C   C4067     1.0  0.86652  0.68146  0.49226  1.0000
  C   C4068     1.0  0.85748  0.69968  0.49110  1.0000
  C   C4069     1.0  0.84573  0.74400  0.49822  1.0000
  C   C4070     1.0  0.85902  0.73978  0.51142  1.0000
  C   C4071     1.0  0.85534  0.74598  0.52936  1.0000
  C   C4072     1.0  0.83834  0.75631  0.53429  1.0000
  C   C4073     1.0  0.82499  0.76038  0.52132  1.0000
  C   C4074     1.0  0.82871  0.75447  0.50328  1.0000
  H   H3227     1.0  0.79726  0.76615  0.44166  1.0000
  H   H3228     1.0  0.82744  0.76593  0.45495  1.0000
  H   H3229     1.0  0.82640  0.70653  0.47152  1.0000
  H   H3230     1.0  0.87445  0.76516  0.48383  1.0000
  H   H3231     1.0  0.89411  0.78670  0.46405  1.0000
  H   H3232     1.0  0.89621  0.78718  0.42928  1.0000
  H   H3233     1.0  0.87858  0.76568  0.41457  1.0000
  H   H3234     1.0  0.85878  0.74385  0.43409  1.0000
  H   H3235     1.0  0.88301  0.71808  0.45231  1.0000
  H   H3236     1.0  0.89829  0.68577  0.45410  1.0000
  H   H3237     1.0  0.88799  0.66223  0.47961  1.0000
  H   H3238     1.0  0.86205  0.67112  0.50341  1.0000
  H   H3239     1.0  0.84598  0.70327  0.50143  1.0000
  H   H3240     1.0  0.87237  0.73204  0.50772  1.0000
  H   H3241     1.0  0.86576  0.74312  0.53938  1.0000
  H   H3242     1.0  0.83567  0.76154  0.54803  1.0000
  H   H3243     1.0  0.81198  0.76870  0.52507  1.0000
  H   H3244     1.0  0.81840  0.75845  0.49331  1.0000
  C   C4075     1.0  0.79151  0.87136  0.42646  1.0000
  C   C4076     1.0  0.77953  0.85869  0.43595  1.0000
  C   C4077     1.0  0.78377  0.84947  0.45322  1.0000
  C   C4078     1.0  0.79974  0.85321  0.46126  1.0000
  C   C4079     1.0  0.81164  0.86624  0.45205  1.0000
  C   C4080     1.0  0.80770  0.87485  0.43428  1.0000
  P   P135      1.0  0.83217  0.87122  0.46257  1.0000
  C   C4081     1.0  0.82612  0.87184  0.48758  1.0000
  C   C4082     1.0  0.85095  0.85297  0.45861  1.0000
  C   C4083     1.0  0.86463  0.84858  0.47140  1.0000
  C   C4084     1.0  0.88012  0.83574  0.46738  1.0000
  C   C4085     1.0  0.88245  0.82777  0.45031  1.0000
  C   C4086     1.0  0.86895  0.83208  0.43757  1.0000
  C   C4087     1.0  0.85311  0.84442  0.44176  1.0000
  C   C4088     1.0  0.82092  0.88877  0.49577  1.0000
  C   C4089     1.0  0.82198  0.85482  0.51845  1.0000
  C   C4090     1.0  0.82642  0.85490  0.49912  1.0000
  C   C4091     1.0  0.83968  0.89332  0.45143  1.0000
  C   C4092     1.0  0.86342  0.91111  0.43316  1.0000
  C   C4093     1.0  0.85782  0.89418  0.44222  1.0000
  C   C4094     1.0  0.95488  0.70651  0.64028  1.0000
  H   H3245     1.0  0.77503  0.83892  0.46014  1.0000
  H   H3246     1.0  0.80288  0.84556  0.47444  1.0000
  H   H3247     1.0  0.86356  0.85519  0.48437  1.0000
  H   H3248     1.0  0.89057  0.83232  0.47725  1.0000
  H   H3249     1.0  0.89488  0.81855  0.44676  1.0000
  H   H3250     1.0  0.87093  0.82615  0.42422  1.0000
  H   H3251     1.0  0.84289  0.84771  0.43158  1.0000
  H   H3252     1.0  0.82006  0.90203  0.48739  1.0000
  C   C4095     1.0  0.98099  0.73283  0.56549  1.0000
  H   H3253     1.0  0.83010  0.84166  0.49314  1.0000
  H   H3254     1.0  0.87740  0.91155  0.42594  1.0000
  H   H3255     1.0  0.86755  0.88173  0.44143  1.0000
  C   C4096     1.0  0.95597  0.57597  0.65039  1.0000
  H   H3256     1.0  0.87361  0.62983  0.45828  1.0000
  H   H3257     1.0  0.90068  0.71814  0.41876  1.0000
  C   C4097     1.0  0.86156  0.70370  0.59057  1.0000
  H   H3258     1.0  0.89149  0.93069  0.53180  1.0000
  H   H3259     1.0  0.96120  0.53118  0.45698  1.0000
  C   C4098     1.0  0.80075  0.68355  0.59446  1.0000
  H   H3260     1.0  0.74303  0.88545  0.36185  1.0000
  H   H3261     1.0  0.94785  0.97710  0.54886  1.0000
  C   C4099     1.0  0.87316  0.68640  0.40614  1.0000
  H   H3262     1.0  0.83949  0.61829  0.38791  1.0000
  C   C4100     1.0  0.83457  0.71636  0.40515  1.0000
  P   P136      1.0  0.84985  0.67883  0.41121  1.0000
  H   H3263     1.0  0.92381  0.70188  0.39640  1.0000
  H   H3264     1.0  0.82459  0.66451  0.47729  1.0000
  C   C4101     1.0  0.87859  0.70084  0.41557  1.0000
  H   H3265     1.0  0.80555  0.76399  0.34301  1.0000
  H   H3266     1.0  0.96079  0.58954  0.37344  1.0000
  H   H3267     1.0  0.76024  0.88909  0.60043  1.0000
  H   H3268     1.0  0.91988  0.59294  0.54431  1.0000
  C   C4102     1.0  0.84562  0.66370  0.39387  1.0000
  H   H3269     1.0  0.83194  0.70239  0.59585  1.0000
  C   C4103     1.0  0.83103  0.69753  0.40986  1.0000
  C   C4104     1.0  0.83940  0.63754  0.59364  1.0000
  C   C4105     1.0  0.83541  0.66093  0.46631  1.0000
  C   C4106     1.0  0.93415  0.57036  0.56084  1.0000
  H   H3270     1.0  0.78321  0.70309  0.41081  1.0000
  H   H3271     1.0  0.97493  0.72591  0.62926  1.0000
  C   C4107     1.0  0.91960  0.50795  0.55222  1.0000
  Fe  Fe277     1.0  0.92389  0.64475  0.32463  1.0000
  S   S552      1.0  0.87000  0.64219  0.32467  1.0000
  H   H3272     1.0  0.96221  0.67751  0.32028  1.0000
  C   C4108     1.0  0.81997  0.86144  0.35436  1.0000
  H   H3273     1.0  0.94868  0.94039  0.44992  1.0000
  H   H3274     1.0  0.97361  0.54986  0.47884  1.0000
  P   P137      1.0  0.98053  0.57104  0.58894  1.0000
  H   H3275     1.0  0.97082  0.53201  0.39452  1.0000
  C   C4109     1.0  0.84724  0.67716  0.60793  1.0000
  H   H3276     1.0  0.79667  0.68551  0.64189  1.0000
  H   H3277     1.0  0.86124  0.70019  0.64418  1.0000
  S   S553      1.0  0.97752  0.94648  0.59764  1.0000
  C   C4110     1.0  0.94925  0.56493  0.57150  1.0000
  C   C4111     1.0  0.93321  0.58200  0.37025  1.0000
  H   H3278     1.0  0.92896  0.58033  0.63937  1.0000
  H   H3279     1.0  0.84856  0.61605  0.57499  1.0000
  S   S554      1.0  0.96704  0.94608  0.40976  1.0000
  H   H3280     1.0  0.77349  0.81540  0.32673  1.0000
  C   C4112     1.0  0.91902  0.57059  0.37726  1.0000
  H   H3281     1.0  0.76059  0.71241  0.60146  1.0000
  Fe  Fe278     1.0  0.89903  0.62743  0.64566  1.0000
  H   H3282     1.0  0.82270  0.93886  0.44075  1.0000
  C   C4113     1.0  0.80505  0.77824  0.33642  1.0000
  C   C4114     1.0  0.83778  0.62099  0.58547  1.0000
  H   H3283     1.0  0.95091  0.55066  0.57795  1.0000
  C   C4115     1.0  0.80316  0.71983  0.45730  1.0000
  C   C4116     1.0  0.81707  0.87171  0.52652  1.0000
  C   C4117     1.0  0.86307  0.64143  0.45564  1.0000
  H   H3284     1.0  0.84879  0.63795  0.48333  1.0000
  C   C4118     1.0  0.90469  0.68256  0.39042  1.0000
  H   H3285     1.0  0.96523  0.56702  0.40136  1.0000
  C   C4119     1.0  0.79483  0.73660  0.44896  1.0000
  C   C4120     1.0  0.94996  0.58043  0.37880  1.0000
  H   H3286     1.0  0.94966  0.60054  0.45024  1.0000
  C   C4121     1.0  0.77302  0.70329  0.60469  1.0000
  C   C4122     1.0  0.98262  0.48914  0.41682  1.0000
  C   C4123     1.0  0.90734  0.50480  0.53927  1.0000
  H   H3287     1.0  0.93102  0.59233  0.35840  1.0000
  H   H3288     1.0  0.79621  0.70707  0.45796  1.0000
  H   H3289     1.0  0.81723  0.88400  0.42623  1.0000
  C   C4124     1.0  0.84904  0.64601  0.46975  1.0000
  H   H3290     1.0  0.76068  0.80070  0.61385  1.0000
  H   H3291     1.0  0.90590  0.57212  0.37079  1.0000
  H   H3292     1.0  0.98227  0.95589  0.50249  1.0000
  H   H3293     1.0  0.95985  0.65961  0.63599  1.0000
  H   H3294     1.0  0.88288  0.66547  0.38669  1.0000
  C   C4125     1.0  0.93195  0.93011  0.55256  1.0000
  C   C4126     1.0  0.80553  0.68013  0.61302  1.0000
  S   S555      1.0  0.97946  0.90944  0.56142  1.0000
  C   C4127     1.0  0.97019  0.52031  0.40517  1.0000
  C   C4128     1.0  0.88119  0.67745  0.60394  1.0000
  H   H3295     1.0  0.89174  0.70209  0.58870  1.0000
  H   H3296     1.0  0.93251  0.84525  0.43150  1.0000
  C   C4129     1.0  0.84421  0.86580  0.32885  1.0000
  S   S556      1.0  0.98663  0.89053  0.60401  1.0000
  C   C4130     1.0  0.91409  0.92563  0.54962  1.0000
  C   C4131     1.0  0.82697  0.90952  0.45056  1.0000
  C   C4132     1.0  0.84950  0.66631  0.43429  1.0000
  H   H3297     1.0  0.84582  0.68623  0.37146  1.0000
  C   C4133     1.0  0.94396  0.57713  0.63617  1.0000
  C   C4134     1.0  0.74292  0.85351  0.60154  1.0000
  C   C4135     1.0  0.95130  0.57504  0.61767  1.0000
  C   C4136     1.0  0.82547  0.64396  0.60725  1.0000
  H   H3298     1.0  0.86681  0.65517  0.61939  1.0000
  H   H3299     1.0  0.84481  0.63795  0.41248  1.0000
  H   H3300     1.0  0.76739  0.85541  0.42954  1.0000
  H   H3301     1.0  0.83044  0.69018  0.64663  1.0000
  H   H3302     1.0  0.93891  0.92308  0.56436  1.0000
  C   C4137     1.0  0.81237  0.69286  0.41185  1.0000
  C   C4138     1.0  0.83565  0.67109  0.44866  1.0000
  C   C4139     1.0  0.84030  0.63326  0.38456  1.0000
  H   H3303     1.0  0.82119  0.59788  0.58445  1.0000
  C   C4140     1.0  0.86520  0.66861  0.61114  1.0000
  C   C4141     1.0  0.93154  0.58876  0.55267  1.0000
  C   C4142     1.0  0.95657  0.52082  0.42059  1.0000
  H   H3304     1.0  0.98567  0.85955  0.50727  1.0000
  H   H3305     1.0  0.79194  0.87405  0.60592  1.0000
  C   C4143     1.0  0.74743  0.84644  0.63960  1.0000
  H   H3306     1.0  0.85516  0.94030  0.42556  1.0000
  C   C4144     1.0  0.84362  0.64448  0.39843  1.0000
  H   H3307     1.0  0.81249  0.90176  0.52147  1.0000
  H   H3308     1.0  0.97989  0.69500  0.54873  1.0000
  C   C4145     1.0  0.91396  0.94804  0.52214  1.0000
  H   H3309     1.0  0.81356  0.87158  0.54155  1.0000
  C   C4146     1.0  0.83888  0.64110  0.36614  1.0000
  H   H3310     1.0  0.82234  0.84158  0.52712  1.0000
  C   C4147     1.0  0.83261  0.92646  0.44148  1.0000
  H   H3311     1.0  0.94599  0.50533  0.44629  1.0000
  C   C4148     1.0  0.84071  0.66023  0.36157  1.0000
  C   C4149     1.0  0.84414  0.67147  0.37534  1.0000
  P   P138      1.0  0.94283  0.97057  0.50943  1.0000
  C   C4150     1.0  0.82903  0.66093  0.64261  1.0000
  C   C4151     1.0  0.78700  0.80729  0.32676  1.0000
  H   H3312     1.0  0.95277  0.84326  0.45762  1.0000
  H   H3313     1.0  0.97168  0.72012  0.59253  1.0000
  C   C4152     1.0  0.84552  0.69492  0.59777  1.0000
  H   H3314     1.0  0.94173  0.61597  0.54888  1.0000
  H   H3315     1.0  0.97313  0.90614  0.52408  1.0000
  H   H3316     1.0  0.78111  0.69790  0.57595  1.0000
  C   C4153     1.0  0.98440  0.69758  0.62241  1.0000
  C   C4154     1.0  0.80122  0.72555  0.40504  1.0000
  H   H3317     1.0  0.77113  0.79353  0.58140  1.0000
  H   H3318     1.0  0.79878  0.63860  0.62258  1.0000
  H   H3319     1.0  0.76853  0.70605  0.63436  1.0000
  C   C4155     1.0  0.97588  0.64976  0.32561  1.0000
  S   S557      1.0  0.95538  0.63754  0.32729  1.0000
  H   H3320     1.0  0.79622  0.60924  0.60819  1.0000
  H   H3321     1.0  0.80967  0.67742  0.58317  1.0000
  H   H3322     1.0  0.93111  0.95693  0.47576  1.0000
  C   C4156     1.0  0.97868  0.96697  0.40483  1.0000
  H   H3323     1.0  0.90685  0.95472  0.51033  1.0000
  C   C4157     1.0  0.97921  0.98437  0.59959  1.0000
  C   C4158     1.0  0.98381  0.72298  0.58289  1.0000
  P   P139      1.0  0.82683  0.66555  0.61772  1.0000
  Fe  Fe279     1.0  0.97760  0.91488  0.41013  1.0000
  C   C4159     1.0  0.93176  0.95292  0.52524  1.0000
  C   C4160     1.0  0.77751  0.69972  0.62322  1.0000
  C   C4161     1.0  0.94607  0.95338  0.47601  1.0000
  H   H3324     1.0  0.95520  0.94587  0.54220  1.0000
  C   C4162     1.0  0.75036  0.80041  0.60392  1.0000
  C   C4163     1.0  0.95923  0.59639  0.56574  1.0000
  H   H3325     1.0  0.89499  0.67108  0.60700  1.0000
  H   H3326     1.0  0.96788  0.58454  0.47565  1.0000
  C   C4164     1.0  0.96312  0.67409  0.63417  1.0000
  H   H3327     1.0  0.96685  0.73757  0.56203  1.0000
  C   C4165     1.0  0.95621  0.50526  0.43412  1.0000
  H   H3328     1.0  0.98781  0.63436  0.55141  1.0000
  C   C4166     1.0  0.97520  0.93906  0.46154  1.0000
  H   H3329     1.0  0.89013  0.49830  0.43897  1.0000
  H   H3330     1.0  0.96704  0.64650  0.52434  1.0000
  H   H3331     1.0  0.98395  0.65348  0.58904  1.0000
  C   C4167     1.0  0.98131  0.66457  0.55105  1.0000
  C   C4168     1.0  0.98111  0.59889  0.51428  1.0000
  C   C4169     1.0  0.80827  0.61715  0.60413  1.0000
  H   H3332     1.0  0.96871  0.60667  0.56761  1.0000
  H   H3333     1.0  0.74107  0.85640  0.58678  1.0000
  C   C4170     1.0  0.74054  0.83327  0.35445  1.0000
  H   H3334     1.0  0.74014  0.90350  0.62578  1.0000
  H   H3335     1.0  0.74783  0.79395  0.55817  1.0000
  S   S558      1.0  0.98149  0.89670  0.38578  1.0000
  H   H3336     1.0  0.96704  0.98338  0.60967  1.0000
  Fe  Fe280     1.0  0.98224  0.88131  0.43866  1.0000
  H   H3337     1.0  0.82972  0.63055  0.64351  1.0000
  C   C4171     1.0  0.97530  0.57220  0.64621  1.0000
  C   C4172     1.0  0.96906  0.48945  0.43214  1.0000
  C   C4173     1.0  0.95064  0.68785  0.64219  1.0000
  C   C4174     1.0  0.78343  0.88094  0.61703  1.0000
  S   S559      1.0  0.86631  0.69542  0.32856  1.0000
  S   S560      1.0  0.98605  0.86103  0.41688  1.0000
  C   C4175     1.0  0.98321  0.50457  0.40336  1.0000
  C   C4176     1.0  0.75412  0.89754  0.62846  1.0000
  H   H3338     1.0  0.93774  0.68401  0.65009  1.0000
  C   C4177     1.0  0.98729  0.96820  0.59123  1.0000
  H   H3339     1.0  0.98133  0.97338  0.44153  1.0000
  H   H3340     1.0  0.98275  0.93181  0.45013  1.0000
  H   H3341     1.0  0.98655  0.55266  0.55404  1.0000
  H   H3342     1.0  0.73978  0.81871  0.35223  1.0000
  H   H3343     1.0  0.98691  0.50739  0.46486  1.0000
  C   C4178     1.0  0.98466  0.94353  0.47629  1.0000
  C   C4179     1.0  0.98410  0.98572  0.44787  1.0000
  C   C4180     1.0  0.95800  0.98442  0.51979  1.0000
  C   C4181     1.0  0.96785  0.98443  0.40502  1.0000
  C   C4182     1.0  0.79006  0.88075  0.63462  1.0000
  C   C4183     1.0  0.74314  0.79674  0.57249  1.0000
  C   C4184     1.0  0.91240  0.48815  0.48398  1.0000
  H   H3344     1.0  0.95273  0.98479  0.40740  1.0000
  H   H3345     1.0  0.80386  0.87391  0.63702  1.0000
  C   C4185     1.0  0.89920  0.48780  0.54065  1.0000
  C   C4186     1.0  0.95709  0.98530  0.53930  1.0000
  H   H3346     1.0  0.83511  0.77823  0.33133  1.0000
  C   C4187     1.0  0.82166  0.78625  0.32981  1.0000
  H   H3347     1.0  0.78342  0.87450  0.32288  1.0000
  C   C4188     1.0  0.80358  0.81534  0.31975  1.0000
  C   C4189     1.0  0.82094  0.80478  0.32163  1.0000
  C   C4190     1.0  0.76069  0.89751  0.64618  1.0000
  C   C4191     1.0  0.77879  0.88905  0.64912  1.0000
  H   H3348     1.0  0.79861  0.51383  0.98455  1.0000
  S   S561      1.0  0.91109  0.61645  0.67274  1.0000
  H   H3349     1.0  0.76289  0.54277  0.85221  1.0000
  C   C4192     1.0  0.97973  0.65739  0.67355  1.0000
  C   C4193     1.0  0.79160  0.51473  0.76633  1.0000
  H   H3350     1.0  0.74931  0.84353  0.65433  1.0000
  Fe  Fe281     1.0  0.89216  0.63940  0.68594  1.0000
  S   S562      1.0  0.87370  0.63768  0.71438  1.0000
  S   S563      1.0  0.91428  0.66027  0.67999  1.0000
  Fe  Fe282     1.0  0.83423  0.57450  0.81326  1.0000
  S   S564      1.0  0.80991  0.55642  0.81897  1.0000
  S   S565      1.0  0.84885  0.57751  0.78300  1.0000
  Fe  Fe283     1.0  0.83533  0.57726  0.85579  1.0000
  S   S566      1.0  0.81131  0.55949  0.86397  1.0000
  S   S567      1.0  0.85010  0.59077  0.87697  1.0000
  Fe  Fe284     1.0  0.82520  0.54096  0.84216  1.0000
  S   S568      1.0  0.82822  0.50929  0.84993  1.0000
  Fe  Fe285     1.0  0.79745  0.57634  0.84030  1.0000
  S   S569      1.0  0.76537  0.58226  0.84160  1.0000
  S   S570      1.0  0.85035  0.55763  0.83568  1.0000
  S   S571      1.0  0.82073  0.59551  0.83307  1.0000
  H   H3351     1.0  0.92781  0.64840  0.84820  1.0000
  C   C4194     1.0  0.92192  0.56267  0.91756  1.0000
  C   C4195     1.0  0.78337  0.68006  0.81343  1.0000
  H   H3352     1.0  0.83162  0.62827  0.85656  1.0000
  S   S572      1.0  0.88131  0.54409  0.94944  1.0000
  S   S573      1.0  0.92785  0.54249  0.97268  1.0000
  H   H3353     1.0  0.96212  0.57637  0.88494  1.0000
  P   P140      1.0  0.74636  0.90830  0.66510  1.0000
  C   C4196     1.0  0.87279  0.55751  0.92947  1.0000
  C   C4197     1.0  0.87370  0.57694  0.92632  1.0000
  C   C4198     1.0  0.86666  0.58692  0.91023  1.0000
  C   C4199     1.0  0.85879  0.57760  0.89705  1.0000
  C   C4200     1.0  0.85781  0.55819  0.90027  1.0000
  C   C4201     1.0  0.86476  0.54824  0.91639  1.0000
  H   H3354     1.0  0.87972  0.58427  0.93634  1.0000
  H   H3355     1.0  0.86714  0.60196  0.90802  1.0000
  H   H3356     1.0  0.85164  0.55085  0.89036  1.0000
  H   H3357     1.0  0.86391  0.53325  0.91870  1.0000
  C   C4202     1.0  0.95873  0.50404  0.94662  1.0000
  H   H3358     1.0  0.91728  0.53480  0.93004  1.0000
  P   P141      1.0  0.77791  0.65665  0.82232  1.0000
  C   C4203     1.0  0.89116  0.62638  0.93805  1.0000
  H   H3359     1.0  0.80946  0.51044  0.81513  1.0000
  H   H3360     1.0  0.76581  0.65691  0.86286  1.0000
  C   C4204     1.0  0.92052  0.53593  0.89987  1.0000
  C   C4205     1.0  0.82224  0.49173  0.83651  1.0000
  C   C4206     1.0  0.74892  0.59720  0.85492  1.0000
  C   C4207     1.0  0.75445  0.61140  0.86451  1.0000
  H   H3361     1.0  0.77325  0.56730  0.96189  1.0000
  H   H3362     1.0  0.76921  0.61308  0.86450  1.0000
  H   H3363     1.0  0.79260  0.59342  0.80046  1.0000
  C   C4208     1.0  0.86733  0.62059  0.73340  1.0000
  C   C4209     1.0  0.87218  0.60124  0.73280  1.0000
  C   C4210     1.0  0.86647  0.58841  0.74809  1.0000
  C   C4211     1.0  0.85592  0.59461  0.76430  1.0000
  C   C4212     1.0  0.85119  0.61395  0.76496  1.0000
  C   C4213     1.0  0.85674  0.62676  0.74961  1.0000
  H   H3364     1.0  0.88029  0.59616  0.72054  1.0000
  H   H3365     1.0  0.87037  0.57355  0.74738  1.0000
  H   H3366     1.0  0.84326  0.61905  0.77730  1.0000
  H   H3367     1.0  0.85291  0.64164  0.75036  1.0000
  H   H3368     1.0  0.93893  0.59621  0.93975  1.0000
  H   H3369     1.0  0.89073  0.48944  0.96175  1.0000
  H   H3370     1.0  0.94117  0.63075  0.87572  1.0000
  H   H3371     1.0  0.74401  0.73501  0.87953  1.0000
  H   H3372     1.0  0.96569  0.66314  0.67805  1.0000
  H   H3373     1.0  0.74137  0.94988  0.65966  1.0000
  H   H3374     1.0  0.83509  0.68424  0.68030  1.0000
  S   S574      1.0  0.87860  0.64921  0.65907  1.0000
  H   H3375     1.0  0.78862  0.54673  0.93143  1.0000
  C   C4214     1.0  0.91985  0.54357  0.91705  1.0000
  H   H3376     1.0  0.82232  0.52711  0.92977  1.0000
  H   H3377     1.0  0.79530  0.73014  0.79304  1.0000
  H   H3378     1.0  0.90138  0.54163  0.78424  1.0000
  H   H3379     1.0  0.98785  0.52085  0.97513  1.0000
  H   H3380     1.0  0.87688  0.55574  0.69306  1.0000
  C   C4215     1.0  0.85562  0.55508  0.71638  1.0000
  C   C4216     1.0  0.84850  0.54479  0.73262  1.0000
  C   C4217     1.0  0.78746  0.93932  0.67741  1.0000
  C   C4218     1.0  0.79194  0.71621  0.79877  1.0000
  C   C4219     1.0  0.78594  0.62112  0.80961  1.0000
  C   C4220     1.0  0.91707  0.60787  0.92215  1.0000
  C   C4221     1.0  0.96676  0.58743  0.89195  1.0000
  C   C4222     1.0  0.92490  0.57421  0.90080  1.0000
  C   C4223     1.0  0.81070  0.50927  0.76231  1.0000
  C   C4224     1.0  0.85700  0.52688  0.73813  1.0000
  C   C4225     1.0  0.87293  0.51959  0.72726  1.0000
  H   H3381     1.0  0.92098  0.56830  0.93106  1.0000
  C   C4226     1.0  0.92599  0.56628  0.88360  1.0000
  H   H3382     1.0  0.84921  0.56906  0.71245  1.0000
  P   P142      1.0  0.84901  0.51428  0.76007  1.0000
  C   C4227     1.0  0.86643  0.52073  0.81128  1.0000
  H   H3383     1.0  0.77113  0.53617  0.77676  1.0000
  C   C4228     1.0  0.92564  0.60470  0.93900  1.0000
  H   H3384     1.0  0.74770  0.91260  0.70527  1.0000
  C   C4229     1.0  0.84099  0.50357  0.93870  1.0000
  C   C4230     1.0  0.91927  0.61176  0.88091  1.0000
  H   H3385     1.0  0.82871  0.54710  0.77636  1.0000
  H   H3386     1.0  0.79495  0.55698  0.78255  1.0000
  H   H3387     1.0  0.98458  0.57156  0.65726  1.0000
  Fe  Fe286     1.0  0.93212  0.63782  0.66483  1.0000
  H   H3388     1.0  0.83387  0.62505  0.67718  1.0000
  H   H3389     1.0  0.95067  0.62577  0.91532  1.0000
  H   H3390     1.0  0.80914  0.63895  0.76096  1.0000
  H   H3391     1.0  0.89510  0.59573  0.88216  1.0000
  H   H3392     1.0  0.88194  0.61353  0.85484  1.0000
  C   C4231     1.0  0.98239  0.64017  0.66573  1.0000
  C   C4232     1.0  0.89494  0.61725  0.85934  1.0000
  C   C4233     1.0  0.89973  0.61880  0.92181  1.0000
  H   H3393     1.0  0.89826  0.63986  0.83761  1.0000
  C   C4234     1.0  0.76123  0.52785  0.85423  1.0000
  C   C4235     1.0  0.92360  0.54728  0.88316  1.0000
  C   C4236     1.0  0.95374  0.60063  0.90048  1.0000
  C   C4237     1.0  0.96036  0.61517  0.90894  1.0000
  C   C4238     1.0  0.88284  0.52968  0.80665  1.0000
  C   C4239     1.0  0.87993  0.52987  0.71096  1.0000
  C   C4240     1.0  0.83255  0.63928  0.67054  1.0000
  H   H3394     1.0  0.92396  0.54139  0.86984  1.0000
  H   H3395     1.0  0.92855  0.57480  0.87048  1.0000
  H   H3396     1.0  0.89273  0.62152  0.90910  1.0000
  C   C4241     1.0  0.80158  0.61476  0.77921  1.0000
  C   C4242     1.0  0.90247  0.60714  0.87487  1.0000
  C   C4243     1.0  0.79477  0.64689  0.78721  1.0000
  C   C4244     1.0  0.88898  0.53417  0.78785  1.0000
  H   H3397     1.0  0.81592  0.63975  0.82809  1.0000
  C   C4245     1.0  0.75269  0.65718  0.82754  1.0000
  C   C4246     1.0  0.75874  0.91997  0.69730  1.0000
  H   H3398     1.0  0.89051  0.53355  0.81765  1.0000
  H   H3399     1.0  0.81565  0.71136  0.81523  1.0000
  H   H3400     1.0  0.92162  0.49621  0.93573  1.0000
  C   C4247     1.0  0.82432  0.52080  0.76599  1.0000
  H   H3401     1.0  0.75984  0.68509  0.79649  1.0000
  C   C4248     1.0  0.87129  0.54762  0.70552  1.0000
  C   C4249     1.0  0.80775  0.63628  0.87555  1.0000
  C   C4250     1.0  0.83643  0.51764  0.97383  1.0000
  C   C4251     1.0  0.75704  0.48916  0.85934  1.0000
  C   C4252     1.0  0.77215  0.55353  0.96937  1.0000
  C   C4253     1.0  0.80579  0.58529  0.90722  1.0000
  H   H3402     1.0  0.89226  0.52423  0.70268  1.0000
  C   C4254     1.0  0.98604  0.58825  0.89264  1.0000
  C   C4255     1.0  0.78923  0.64442  0.87723  1.0000
  C   C4256     1.0  0.86229  0.52046  0.77823  1.0000
  H   H3403     1.0  0.87769  0.63461  0.93777  1.0000
  H   H3404     1.0  0.84275  0.49815  0.92510  1.0000
  H   H3405     1.0  0.81468  0.49596  0.75652  1.0000
  H   H3406     1.0  0.80830  0.67960  0.82814  1.0000
  C   C4257     1.0  0.80833  0.64124  0.84173  1.0000
  C   C4258     1.0  0.81732  0.63482  0.85782  1.0000
  C   C4259     1.0  0.74270  0.64246  0.82353  1.0000
  H   H3407     1.0  0.78007  0.61586  0.82336  1.0000
  C   C4260     1.0  0.78647  0.64051  0.80494  1.0000
  H   H3408     1.0  0.84302  0.51023  0.80103  1.0000
  S   S575      1.0  0.96330  0.62708  0.66310  1.0000
  C   C4261     1.0  0.74294  0.67221  0.83662  1.0000
  P   P143      1.0  0.92878  0.59865  0.90110  1.0000
  C   C4262     1.0  0.79935  0.54356  0.77707  1.0000
  C   C4263     1.0  0.85189  0.48907  0.75869  1.0000
  P   P144      1.0  0.81119  0.54814  0.96293  1.0000
  H   H3409     1.0  0.81466  0.63094  0.88796  1.0000
  H   H3410     1.0  0.76845  0.92893  0.72202  1.0000
  H   H3411     1.0  0.96045  0.56168  0.93543  1.0000
  C   C4264     1.0  0.92833  0.62677  0.87125  1.0000
  C   C4265     1.0  0.81810  0.58936  0.91974  1.0000
  H   H3412     1.0  0.83002  0.58114  0.94574  1.0000
  C   C4266     1.0  0.83888  0.56201  0.98079  1.0000
  C   C4267     1.0  0.89999  0.62343  0.95465  1.0000
  C   C4268     1.0  0.78960  0.64911  0.84326  1.0000
  C   C4269     1.0  0.82930  0.52003  0.94147  1.0000
  C   C4270     1.0  0.77436  0.49581  0.86141  1.0000
  C   C4271     1.0  0.77636  0.51509  0.85895  1.0000
  C   C4272     1.0  0.90411  0.63207  0.84969  1.0000
  H   H3413     1.0  0.78973  0.52020  0.86049  1.0000
  C   C4273     1.0  0.80921  0.56267  0.94108  1.0000
  C   C4274     1.0  0.79318  0.60834  0.79670  1.0000
  C   C4275     1.0  0.78485  0.93890  0.69694  1.0000
  H   H3414     1.0  0.88987  0.50926  0.92805  1.0000
  C   C4276     1.0  0.96300  0.49301  0.93158  1.0000
  H   H3415     1.0  0.79579  0.66169  0.78324  1.0000
  H   H3416     1.0  0.95911  0.54649  0.90603  1.0000
  C   C4277     1.0  0.91431  0.48932  0.92631  1.0000
  C   C4278     1.0  0.81998  0.57801  0.93654  1.0000
  H   H3417     1.0  0.84901  0.49088  0.72885  1.0000
  C   C4279     1.0  0.78021  0.65092  0.86116  1.0000
  C   C4280     1.0  0.77196  0.69075  0.80082  1.0000
  C   C4281     1.0  0.79916  0.68760  0.81859  1.0000
  C   C4282     1.0  0.97963  0.61592  0.90964  1.0000
  H   H3418     1.0  0.74624  0.76715  0.88844  1.0000
  Fe  Fe287     1.0  0.89721  0.55218  0.97295  1.0000
  H   H3419     1.0  0.78565  0.56680  0.90176  1.0000
  C   C4283     1.0  0.74079  0.62380  0.87364  1.0000
  H   H3420     1.0  0.83675  0.65170  0.69566  1.0000
  H   H3421     1.0  0.88381  0.53335  0.75927  1.0000
  S   S576      1.0  0.95683  0.58186  0.97384  1.0000
  H   H3422     1.0  0.95166  0.51803  0.94456  1.0000
  H   H3423     1.0  0.80479  0.59379  0.89397  1.0000
  C   C4284     1.0  0.80236  0.63403  0.77446  1.0000
  C   C4285     1.0  0.81848  0.53795  0.77349  1.0000
  H   H3424     1.0  0.90757  0.50882  0.97931  1.0000
  H   H3425     1.0  0.80780  0.60478  0.76947  1.0000
  C   C4286     1.0  0.79512  0.56998  0.91157  1.0000
  H   H3426     1.0  0.83671  0.55118  0.74102  1.0000
  H   H3427     1.0  0.95924  0.49847  0.91777  1.0000
  C   C4287     1.0  0.80340  0.70562  0.81127  1.0000
  C   C4288     1.0  0.78592  0.53189  0.77369  1.0000
  H   H3428     1.0  0.74962  0.63049  0.81688  1.0000
  H   H3429     1.0  0.79396  0.94604  0.70438  1.0000
  H   H3430     1.0  0.84892  0.55447  0.97140  1.0000
  H   H3431     1.0  0.95030  0.57838  0.66458  1.0000
  C   C4289     1.0  0.91730  0.61274  0.95505  1.0000
  C   C4290     1.0  0.92077  0.63685  0.85566  1.0000
  H   H3432     1.0  0.88018  0.50615  0.73161  1.0000
  H   H3433     1.0  0.91848  0.52127  0.89946  1.0000
  C   C4291     1.0  0.97146  0.55113  0.93099  1.0000
  H   H3434     1.0  0.78171  0.64542  0.89098  1.0000
  C   C4292     1.0  0.77048  0.92926  0.70687  1.0000
  C   C4293     1.0  0.81347  0.49596  0.81990  1.0000
  C   C4294     1.0  0.87884  0.52949  0.77368  1.0000
  C   C4295     1.0  0.82691  0.52723  0.95907  1.0000
  C   C4296     1.0  0.79684  0.55866  0.92840  1.0000
  C   C4297     1.0  0.97072  0.54263  0.91449  1.0000
  H   H3435     1.0  0.82665  0.60100  0.91613  1.0000
  C   C4298     1.0  0.76135  0.92025  0.67768  1.0000
  C   C4299     1.0  0.77574  0.93006  0.66779  1.0000
  H   H3436     1.0  0.98461  0.62688  0.91665  1.0000
  H   H3437     1.0  0.98699  0.55319  0.95440  1.0000
  H   H3438     1.0  0.78413  0.88865  0.66270  1.0000
  C   C4300     1.0  0.74395  0.87202  0.68289  1.0000
  C   C4301     1.0  0.85056  0.49424  0.95338  1.0000
  H   H3439     1.0  0.74517  0.63502  0.88063  1.0000
  H   H3440     1.0  0.91075  0.49356  0.83488  1.0000
  C   C4302     1.0  0.85602  0.51651  0.79716  1.0000
  H   H3441     1.0  0.74169  0.84398  0.69611  1.0000
  H   H3442     1.0  0.75035  0.68356  0.84018  1.0000
  H   H3443     1.0  0.81738  0.49076  0.88889  1.0000
  C   C4303     1.0  0.98651  0.54614  0.94187  1.0000
  C   C4304     1.0  0.78830  0.54113  0.97195  1.0000
  C   C4305     1.0  0.84832  0.50132  0.97092  1.0000
  C   C4306     1.0  0.81955  0.56139  0.97999  1.0000
  H   H3444     1.0  0.89341  0.62932  0.96725  1.0000
  H   H3445     1.0  0.78120  0.50564  0.76373  1.0000
  H   H3446     1.0  0.79859  0.94680  0.66969  1.0000
  C   C4307     1.0  0.77623  0.70878  0.79355  1.0000
  H   H3447     1.0  0.87256  0.49313  0.90757  1.0000
  C   C4308     1.0  0.89631  0.49658  0.92211  1.0000
  C   C4309     1.0  0.78643  0.52357  0.98212  1.0000
  H   H3448     1.0  0.92423  0.61045  0.96790  1.0000
  C   C4310     1.0  0.83416  0.65432  0.68099  1.0000
  H   H3449     1.0  0.77789  0.93057  0.65263  1.0000
  C   C4311     1.0  0.75445  0.54838  0.97668  1.0000
  H   H3450     1.0  0.75684  0.86792  0.67465  1.0000
  H   H3451     1.0  0.76740  0.71694  0.78377  1.0000
  H   H3452     1.0  0.74208  0.55806  0.97466  1.0000
  C   C4312     1.0  0.96320  0.49688  0.96450  1.0000
  C   C4313     1.0  0.83330  0.67264  0.67232  1.0000
  H   H3453     1.0  0.98444  0.52258  0.89607  1.0000
  H   H3454     1.0  0.95943  0.50526  0.97627  1.0000
  H   H3455     1.0  0.86151  0.51742  0.82586  1.0000
  Fe  Fe288     1.0  0.90158  0.66868  0.65254  1.0000
  C   C4314     1.0  0.88642  0.48724  0.91074  1.0000
  H   H3456     1.0  0.85597  0.49419  0.98222  1.0000
  C   C4315     1.0  0.74404  0.52135  0.85190  1.0000
  C   C4316     1.0  0.91013  0.49378  0.98131  1.0000
  C   C4317     1.0  0.83081  0.67593  0.65321  1.0000
  C   C4318     1.0  0.98500  0.52912  0.90888  1.0000
  C   C4319     1.0  0.74194  0.50208  0.85436  1.0000
  C   C4320     1.0  0.83014  0.64251  0.65139  1.0000
