data_image0
_chemical_formula_structural       HFeSFeSFeSFeS3HFeS2FeS2FeSFeS4FeS2HC2SC9HC6H4C6H4C4HCHC7H5CHC9H2C3H6CHCHC6PC18H17CH2C3H2C2PHC7H2CHC2HCPC2HCH5CHFeCHC2H5PCHC3H8CH3C4H3C2H3CH2C3HCHCHC2HCH2C2H3CSH3SCHCHCHC4HCHC4HCH2C3HC2H4SC4HCHCHCH4CH3C3HPC8H3CHC3H4C2FeH2CHC5H4CHC3HCH3S3H2CHPH6C2H2CHCHC3HFeH2CHFeSHC2H3CFeCH2CHC5HC3HFeHC3HC2HCSCH2CH3CH3C2H3CHCSHSC4HC3SH2C2H2CH3C4PC8HS2H2C2SCHC2HCH2CHCHC4FeS2FeSFeSFeS3CHCSC4HC3HC6H3CHC3HCSHC4HC2HC4HC2HC2H2CHCH3CH2CH4CHCHC2HCH3C4H3C2H4CHCHCH3C2H5CH2C2HC7HCPH5C2HC2HCH2C5H4CHCH2C2SCFeCHCSFeSCFeS2FeSFeS3CS2HCFeSPC6H4C2H2C9H2C4FeCPH2C3H3C4HC2HC6PC18H23C3HC4H2CH2C2PHC4SCHCHCHC3HC2HSHC8PC7HSC5HCH2SH7FeH3C4H2SCH2CH3C8H2FeC2HCSCHC2HCH7CHCHCHCHCSH2C2H4C2FeC3HPHC3H4C2H5CHC2HC6H3CH2CH2C3HC6HCPH2CPHCHCH2CH2C2HCH2C2HC2HC6H4CHC2HCHCHCHCHCHFeS2FeS2FeSHS2FeS2FeS2Fe2S3HCFeS2FeS2FeSFeHS2HCHC3H2C6HCH2C6H4C6H4C4H3C5H3C9PC8H3C7H11C2H7C3H2C4HCHCH3CHCFeCH3C2H2CH5C2HPC2H2C2HC7PC13H12C2HC2H3CH3C3HC2H4C3HC8H6CH2CSC2H2PCFeS2FeS2Fe2S3FeS2FeS2Fe2CS2FeSCFeS2FeSHSHS2FeSFeSCHCHCH2C2PHC8H4C6H4C2H3C3HC7H2C7H3C6H4C6PC18H20CHSHC3H2C8HCH3C7PC7HC6HCHCH3CH2CH6C2HC2SC5SPC8H3C3H6CH5C2HCH2C8PC5HC6H2CH8C2H3CH6C3HCH3FeH2PHFeH2SC2HSCSC2HCH2C3FeSCHCH2CH5CHCPC3H2C4SC2SHCHCHC2H2C2H2CH5C2HCSC2HCHCHC4H2C7H3C3H2CH4CH2C2H2CHC2HC2H2C6H2C4H5CHC5SCH3SFeH3FeS3FeSCFeS2FeSFeCS2FeS3CFeS2FeS2FeS2FeS2FeSFeS3C6H4C6H4C6H4C6H4CH2CHC7H4C6H5C3HC5PC3HC11H3CH7CH2C3PC3HC8H5CSH6PC4HCH4C2HC3PC14HC2SHCH11CH3C2H2C2HCHFeSCH2SC3HCHCHC6FeCH2FeCHCH2CHC2H4C2HCFeH2CHC2SH4CSH4C3HCHPC4H2CH2C3H2C4HC5HCHC3HC2HC2H2SC2HCSC3H2CHCHCPC2HCH2CHCH2CHC2HCHC5HCPSH2CHCH2C4H2CH3CHCH2CH3CH2C3H2CPHCHCHC3H5C3H2C3HCHC3H2C3HCHC3H3CH2FeCHC2HCH2C2HCHFeSCFeSFeSFeSFeSHFeS2FeSFeCS2CHS4HSFeS2FeS2FeSFeS3C6H4C6H4C6H7SCHC8H4C6H4C6H4C7PCH3C12H6C2HC2H6CHC6PC7H13CH2C6PC9FeC7H20C3H3CFeSHC2SCH2CHC2HCH6CHCHCH3C2PCH2C3SC3H2C7HCHCHC2HCHC3HCH2C5HCFeH3CHC13H4C2H2CHPHCH2C2H2C5H2CH2CH2SHCHSC3H2CHC3H2C3H2PHCHC4HFeCH2C2HCH3C2SHC2HC2SC2HC3H5C3HCH2C2PCHCHCHSHC3HSFeSH2SFeSHSCHSHSCFeSFeCFeSFeS2FeS2Fe2S3H3FeS2HC6H2C4HC2HCHC6H4C6H4C6H4C6H4C6PC18H23C2HPC4HC7HCH2CH3C3H3CH7CHSHFeHCH3CHCHC2SHCH4C5SHC3H2C5HC2SHC2HCH5C2HC3PC3HC3SCHC4SC3HC3H3C2HCH6CHC4PC4H2C8SCH3CH2CH8C6HPHC3H2C2H2C2H2PC3HC2S2CHCHC3HC3H3FeC3H2C4FeH2CHCH3C2HC2HC2HC2HC4HCHCSC3H4PHFeHC5HCH2C3SHC2FeCHCH6FeSCFeSCFeSFeS3FeSFeS2FeSFeS3FeCHFeS2FeCFeS3H2C3HC4H3C6H3C7H4C2H2CHCH3C6PC5HC2H2SH2C2HC4H2CH2CH8CHC7H2C6H2C3HC2H5C2H2CH3CSCSHCHCH3CH3CHCHC2PC5HCPC3H3PH2C2H4CH2C2H2C5HCHCHCHCHC2HCH3CHCSCSH3CHC8H2C2HCH2CHCH2C3HC4H7C5HCHC2HC2HCHCPCHC6HCH2C3H2C2HC2H2CPC2HC3H3CH2CHCH3CH3C2HPCH2CHC2HCFeSCFeSFeSFeS3FeS2FeS2FeSFeS3HS2FeSHSCH2C2HC2HC6H4C6H4C6H2CHC2HC3H4CHPCHCHC2HC2HC2FeHC5HC2HCH3CH2C2H3CHSCH5CSCHCPH3CHCHC2H2C3H4CH2CH4C2SH2CHC2H6C2HCH2C3PCH2C2H3CHC9PC13H14C6PC17H18C9H2C4HC5HC4HC2H3CH2C2PFeSFeS2FeSFeHS2CH2C6HCH3CHC2H2CHC2HCH4C3S2H2CH2C5HPCHC7PCH4C8HC2H6CHC3HCH2CH5C2H3CHCPC4HCHC2HCHC3H2CHC2HCHC2HCPHCH3CHCH2C2HC4FeSCFeSFeSFeS2C2HSH2CHC3HC8HC2SHCH3CHSC3H2C3HCH2CHCH2C5H2CPHCH2C2HCH2C3H2C2HC2H2CHCHCHCHC5H5C2H2C2H2CH2C2H2C3HC2H6CPHCHCHCH2CHCH3C2SHFeCSFeS2FeCFeS2FeSHFeS2FeSFeS3CH2SC7H4C3HC2H3C6H4C2HC15HSC6PC3HC3HC2H3CH8CH3CH2C3H2C2H2C2HC2SC5HC3HCH3C6PC18H22CH3C3HCHC2HCH6CH2CH2CHC2H4CH2CPHC2PH4C3HC3H2SHCHCHC4H3C3HCH3C3H2SH2CHC2H
_chemical_formula_sum              "H1728 Fe144 S288 C2160 P72"
_cell_length_a       52.2622
_cell_length_b       51.8682
_cell_length_c       76.113
_cell_angle_alpha    85.9506
_cell_angle_beta     94.9894
_cell_angle_gamma    113.124

_space_group_name_H-M_alt    "P 1"
_space_group_IT_number       1

loop_
  _space_group_symop_operation_xyz
  'x, y, z'

loop_
  _atom_site_type_symbol
  _atom_site_label
  _atom_site_symmetry_multiplicity
  _atom_site_fract_x
  _atom_site_fract_y
  _atom_site_fract_z
  _atom_site_occupancy
  H   H1        1.0  0.36596  0.25778  0.15854  1.0000
  Fe  Fe1       1.0  0.06137  0.02176  0.19802  1.0000
  S   S1        1.0  0.05167  0.04057  0.17232  1.0000
  Fe  Fe2       1.0  0.12167  0.06848  0.20148  1.0000
  S   S2        1.0  0.11450  0.09069  0.17615  1.0000
  Fe  Fe3       1.0  0.07169  0.08147  0.18545  1.0000
  S   S3        1.0  0.04680  0.10886  0.18146  1.0000
  Fe  Fe4       1.0  0.09470  0.04755  0.16538  1.0000
  S   S4        1.0  0.10032  0.03422  0.13874  1.0000
  S   S5        1.0  0.08027  0.06285  0.21167  1.0000
  S   S6        1.0  0.10316  0.02522  0.19021  1.0000
  H   H2        1.0  0.10406  0.04962  0.05588  1.0000
  Fe  Fe5       1.0  0.24225  0.10918  0.04812  1.0000
  S   S7        1.0  0.22849  0.14465  0.04978  1.0000
  S   S8        1.0  0.28633  0.11366  0.05900  1.0000
  Fe  Fe6       1.0  0.18321  0.06879  0.03370  1.0000
  S   S9        1.0  0.16639  0.10245  0.03546  1.0000
  S   S10       1.0  0.14651  0.02937  0.02358  1.0000
  Fe  Fe7       1.0  0.20521  0.13158  0.02346  1.0000
  S   S11       1.0  0.20362  0.16393  0.00204  1.0000
  Fe  Fe8       1.0  0.19062  0.11220  0.06151  1.0000
  S   S12       1.0  0.17695  0.12570  0.08544  1.0000
  S   S13       1.0  0.22184  0.09815  0.02048  1.0000
  S   S14       1.0  0.20483  0.07673  0.06109  1.0000
  S   S15       1.0  0.16405  0.07791  0.21716  1.0000
  Fe  Fe9       1.0  0.43097  0.23639  0.10319  1.0000
  S   S16       1.0  0.43892  0.21698  0.12942  1.0000
  S   S17       1.0  0.38894  0.22320  0.08679  1.0000
  H   H3        1.0  0.40270  0.23966  0.04196  1.0000
  C   C1        1.0  0.02700  0.00994  0.10772  1.0000
  C   C2        1.0  0.09495  0.10773  0.02419  1.0000
  S   S18       1.0  0.44289  0.27914  0.11418  1.0000
  C   C3        1.0  0.44992  0.16117  0.09880  1.0000
  C   C4        1.0  0.28109  0.21192  0.18383  1.0000
  C   C5        1.0  0.97921  0.05834  0.20775  1.0000
  C   C6        1.0  0.10049  0.06535  0.04705  1.0000
  C   C7        1.0  0.08872  0.12505  0.10385  1.0000
  C   C8        1.0  0.36900  0.27231  0.10798  1.0000
  C   C9        1.0  0.38655  0.29243  0.11959  1.0000
  C   C10       1.0  0.04798  0.13221  0.09089  1.0000
  C   C11       1.0  0.98342  0.01347  0.16863  1.0000
  H   H4        1.0  0.04662  0.01318  0.06589  1.0000
  C   C12       1.0  0.36008  0.19193  0.08048  1.0000
  C   C13       1.0  0.33564  0.19428  0.07261  1.0000
  C   C14       1.0  0.31273  0.17056  0.06640  1.0000
  C   C15       1.0  0.31400  0.14403  0.06776  1.0000
  C   C16       1.0  0.33831  0.14158  0.07588  1.0000
  C   C17       1.0  0.36112  0.16530  0.08230  1.0000
  H   H5        1.0  0.33453  0.21472  0.07105  1.0000
  H   H6        1.0  0.29434  0.17295  0.06017  1.0000
  H   H7        1.0  0.33965  0.12124  0.07698  1.0000
  H   H8        1.0  0.37983  0.16315  0.08812  1.0000
  C   C18       1.0  0.12217  0.05974  0.12417  1.0000
  C   C19       1.0  0.12669  0.05163  0.10789  1.0000
  C   C20       1.0  0.14379  0.07162  0.09595  1.0000
  C   C21       1.0  0.15618  0.09986  0.10020  1.0000
  C   C22       1.0  0.15169  0.10794  0.11647  1.0000
  C   C23       1.0  0.13490  0.08793  0.12847  1.0000
  H   H9        1.0  0.11697  0.02983  0.10451  1.0000
  H   H10       1.0  0.14722  0.06525  0.08342  1.0000
  H   H11       1.0  0.16131  0.12976  0.11985  1.0000
  H   H12       1.0  0.13168  0.09442  0.14097  1.0000
  C   C24       1.0  0.01324  0.09387  0.18982  1.0000
  C   C25       1.0  0.00573  0.06976  0.20093  1.0000
  C   C26       1.0  0.19549  0.10688  0.22334  1.0000
  C   C27       1.0  0.19958  0.13482  0.21886  1.0000
  H   H13       1.0  0.21515  0.21682  0.05883  1.0000
  C   C28       1.0  0.99374  0.10613  0.18533  1.0000
  H   H14       1.0  0.02043  0.05998  0.20441  1.0000
  C   C29       1.0  0.12725  0.12513  0.23013  1.0000
  C   C30       1.0  0.40551  0.20336  0.20789  1.0000
  C   C31       1.0  0.41725  0.19784  0.19344  1.0000
  C   C32       1.0  0.42724  0.21832  0.17983  1.0000
  C   C33       1.0  0.42541  0.24438  0.18061  1.0000
  C   C34       1.0  0.41326  0.24975  0.19489  1.0000
  C   C35       1.0  0.40351  0.22938  0.20855  1.0000
  H   H15       1.0  0.41892  0.17778  0.19287  1.0000
  H   H16       1.0  0.97438  0.05069  0.16722  1.0000
  H   H17       1.0  0.41184  0.26989  0.19557  1.0000
  H   H18       1.0  0.39514  0.23412  0.21977  1.0000
  H   H19       1.0  0.02784  0.13301  0.09231  1.0000
  C   C36       1.0  0.33745  0.18211  0.14225  1.0000
  H   H20       1.0  0.10012  0.12009  0.11528  1.0000
  C   C37       1.0  0.25623  0.20981  0.10860  1.0000
  C   C38       1.0  0.24989  0.18677  0.09812  1.0000
  C   C39       1.0  0.26566  0.17030  0.10058  1.0000
  C   C40       1.0  0.28700  0.17603  0.11398  1.0000
  C   C41       1.0  0.29304  0.19870  0.12493  1.0000
  C   C42       1.0  0.27802  0.21605  0.12175  1.0000
  C   C43       1.0  0.34793  0.24129  0.13284  1.0000
  C   C44       1.0  0.34978  0.24688  0.11454  1.0000
  C   C45       1.0  0.39827  0.33603  0.20467  1.0000
  H   H21       1.0  0.39257  0.15365  0.04906  1.0000
  H   H22       1.0  0.09400  0.00209  0.04622  1.0000
  C   C46       1.0  0.36605  0.26147  0.14442  1.0000
  C   C47       1.0  0.34068  0.13965  0.15603  1.0000
  C   C48       1.0  0.32899  0.15981  0.15491  1.0000
  H   H23       1.0  0.24457  0.22311  0.10629  1.0000
  H   H24       1.0  0.23310  0.18188  0.08784  1.0000
  H   H25       1.0  0.26159  0.15335  0.09181  1.0000
  H   H26       1.0  0.29912  0.16314  0.11534  1.0000
  H   H27       1.0  0.28347  0.23467  0.12925  1.0000
  H   H28       1.0  0.33693  0.23135  0.10524  1.0000
  C   C49       1.0  0.15557  0.16688  0.04152  1.0000
  H   H29       1.0  0.03332  0.02218  0.11948  1.0000
  C   C50       1.0  0.38527  0.28689  0.13779  1.0000
  H   H30       1.0  0.31355  0.15804  0.16404  1.0000
  C   C51       1.0  0.28998  0.09943  0.19691  1.0000
  C   C52       1.0  0.29746  0.12373  0.20637  1.0000
  C   C53       1.0  0.28401  0.14209  0.20215  1.0000
  C   C54       1.0  0.26349  0.13659  0.18823  1.0000
  C   C55       1.0  0.25612  0.11242  0.17847  1.0000
  C   C56       1.0  0.26918  0.09361  0.18316  1.0000
  P   P1        1.0  0.22866  0.10411  0.16098  1.0000
  C   C57       1.0  0.21315  0.12983  0.15960  1.0000
  C   C58       1.0  0.24128  0.10301  0.13971  1.0000
  C   C59       1.0  0.26778  0.10265  0.13826  1.0000
  C   C60       1.0  0.27672  0.10102  0.12171  1.0000
  C   C61       1.0  0.25928  0.09961  0.10652  1.0000
  C   C62       1.0  0.23316  0.10049  0.10781  1.0000
  C   C63       1.0  0.22434  0.10251  0.12426  1.0000
  C   C64       1.0  0.19258  0.12748  0.17103  1.0000
  C   C65       1.0  0.18059  0.14741  0.16996  1.0000
  C   C66       1.0  0.18888  0.16968  0.15747  1.0000
  C   C67       1.0  0.20955  0.17233  0.14618  1.0000
  C   C68       1.0  0.22188  0.15268  0.14735  1.0000
  C   C69       1.0  0.20190  0.07041  0.16668  1.0000
  C   C70       1.0  0.18339  0.05365  0.15360  1.0000
  C   C71       1.0  0.16276  0.02772  0.15819  1.0000
  C   C72       1.0  0.16029  0.01832  0.17584  1.0000
  C   C73       1.0  0.17818  0.03506  0.18897  1.0000
  C   C74       1.0  0.19882  0.06103  0.18445  1.0000
  H   H31       1.0  0.30002  0.08490  0.20047  1.0000
  H   H32       1.0  0.31333  0.12815  0.21720  1.0000
  H   H33       1.0  0.28913  0.16029  0.21000  1.0000
  H   H34       1.0  0.25307  0.15092  0.18547  1.0000
  H   H35       1.0  0.26303  0.07430  0.17627  1.0000
  H   H36       1.0  0.28168  0.10368  0.14973  1.0000
  H   H37       1.0  0.37288  0.18906  0.04043  1.0000
  H   H38       1.0  0.09246  0.08072  0.00331  1.0000
  H   H39       1.0  0.14396  0.99847  0.17938  1.0000
  H   H40       1.0  0.20420  0.10366  0.12486  1.0000
  H   H41       1.0  0.18571  0.11028  0.18077  1.0000
  H   H42       1.0  0.16463  0.14539  0.17875  1.0000
  H   H43       1.0  0.17919  0.18480  0.15650  1.0000
  H   H44       1.0  0.21583  0.18947  0.13640  1.0000
  H   H45       1.0  0.23798  0.15524  0.13856  1.0000
  H   H46       1.0  0.18428  0.06045  0.13987  1.0000
  H   H47       1.0  0.14820  0.01526  0.14804  1.0000
  C   C75       1.0  0.41829  0.10929  0.01904  1.0000
  H   H48       1.0  0.17555  0.02840  0.20275  1.0000
  H   H49       1.0  0.21179  0.07398  0.19495  1.0000
  C   C76       1.0  0.09423  0.08305  0.01743  1.0000
  C   C77       1.0  0.09716  0.06196  0.02883  1.0000
  C   C78       1.0  0.45134  0.21279  0.05555  1.0000
  H   H50       1.0  0.09814  0.04360  0.02347  1.0000
  H   H51       1.0  0.13244  0.18679  0.07670  1.0000
  C   C79       1.0  0.06258  0.12565  0.10560  1.0000
  C   C80       1.0  0.11986  0.13810  0.21496  1.0000
  P   P2        1.0  0.10045  0.14388  0.05112  1.0000
  H   H52       1.0  0.39975  0.30196  0.14680  1.0000
  C   C81       1.0  0.43141  0.31912  0.22064  1.0000
  C   C82       1.0  0.43512  0.14671  0.08383  1.0000
  C   C83       1.0  0.07620  0.98299  0.04305  1.0000
  C   C84       1.0  0.42741  0.13203  0.03012  1.0000
  C   C85       1.0  0.41498  0.12884  0.11743  1.0000
  C   C86       1.0  0.39939  0.11522  0.10251  1.0000
  C   C87       1.0  0.40936  0.12417  0.08574  1.0000
  H   H53       1.0  0.21981  0.10009  0.09604  1.0000
  H   H54       1.0  0.09289  0.22145  0.01174  1.0000
  C   C88       1.0  0.42698  0.08003  0.04307  1.0000
  H   H55       1.0  0.14572  0.12048  0.23051  1.0000
  C   C89       1.0  0.40624  0.17566  0.04908  1.0000
  C   C90       1.0  0.03497  0.00484  0.07752  1.0000
  H   H56       1.0  0.97020  0.05344  0.13460  1.0000
  C   C91       1.0  0.05538  0.18412  0.00992  1.0000
  P   P3        1.0  0.44818  0.15793  0.06223  1.0000
  C   C92       1.0  0.43993  0.23278  0.05071  1.0000
  C   C93       1.0  0.05334  0.98407  0.03250  1.0000
  H   H57       1.0  0.07733  0.97831  0.16159  1.0000
  C   C94       1.0  0.08553  0.13709  0.07245  1.0000
  H   H58       1.0  0.37087  0.27599  0.09386  1.0000
  H   H59       1.0  0.33458  0.12293  0.16612  1.0000
  H   H60       1.0  0.40759  0.12170  0.13045  1.0000
  H   H61       1.0  0.37956  0.09776  0.10389  1.0000
  H   H62       1.0  0.39683  0.11360  0.07431  1.0000
  C   C95       1.0  0.43607  0.10270  0.05418  1.0000
  H   H63       1.0  0.26614  0.09825  0.09370  1.0000
  Fe  Fe10      1.0  0.45299  0.26009  0.13975  1.0000
  C   C96       1.0  0.14657  0.18574  0.06746  1.0000
  H   H64       1.0  0.97381  0.03989  0.21650  1.0000
  C   C97       1.0  0.08244  0.19995  0.01656  1.0000
  C   C98       1.0  0.17132  0.16347  0.99239  1.0000
  H   H65       1.0  0.16671  0.07783  0.99855  1.0000
  H   H66       1.0  0.05797  0.13658  0.22663  1.0000
  H   H67       1.0  0.04487  0.19342  0.00009  1.0000
  H   H68       1.0  0.35407  0.21430  0.17521  1.0000
  H   H69       1.0  0.45255  0.25489  0.05206  1.0000
  P   P4        1.0  0.32258  0.20833  0.14101  1.0000
  C   C99       1.0  0.14400  0.00009  0.01151  1.0000
  H   H70       1.0  0.04493  0.12251  0.03281  1.0000
  C   C100      1.0  0.98518  0.99486  0.14058  1.0000
  C   C101      1.0  0.01371  0.97800  0.07765  1.0000
  C   C102      1.0  0.17474  0.20358  0.06938  1.0000
  H   H71       1.0  0.04195  0.99538  0.14853  1.0000
  H   H72       1.0  0.39401  0.35102  0.19550  1.0000
  H   H73       1.0  0.36933  0.12554  0.14515  1.0000
  H   H74       1.0  0.38358  0.16426  0.12217  1.0000
  H   H75       1.0  0.09374  0.12426  0.01505  1.0000
  H   H76       1.0  0.35494  0.31207  0.20915  1.0000
  H   H77       1.0  0.05377  0.12123  0.11841  1.0000
  H   H78       1.0  0.26053  0.21052  0.18646  1.0000
  C   C103      1.0  0.28725  0.20969  0.16659  1.0000
  H   H79       1.0  0.44331  0.09998  0.06769  1.0000
  H   H80       1.0  0.42795  0.15212  0.02477  1.0000
  H   H81       1.0  0.18711  0.00601  0.01582  1.0000
  C   C104      1.0  0.13687  0.16683  0.05371  1.0000
  C   C105      1.0  0.10114  0.08995  0.05387  1.0000
  C   C106      1.0  0.36032  0.14117  0.14425  1.0000
  C   C107      1.0  0.09827  0.11137  0.04250  1.0000
  H   H82       1.0  0.41153  0.11187  0.00540  1.0000
  H   H83       1.0  0.05879  0.04117  0.09275  1.0000
  H   H84       1.0  0.10490  0.09241  0.06794  1.0000
  C   C108      1.0  0.36840  0.16295  0.13139  1.0000
  C   C109      1.0  0.35715  0.18344  0.13045  1.0000
  H   H85       1.0  0.99935  0.12474  0.17670  1.0000
  H   H86       1.0  0.18215  0.21783  0.08013  1.0000
  H   H87       1.0  0.18364  0.13947  0.21094  1.0000
  C   C110      1.0  0.09521  0.14278  0.21390  1.0000
  H   H88       1.0  0.41090  0.06569  0.01693  1.0000
  H   H89       1.0  0.11709  0.20074  0.03403  1.0000
  C   C111      1.0  0.18366  0.18492  0.04342  1.0000
  C   C112      1.0  0.31383  0.21127  0.16314  1.0000
  C   C113      1.0  0.30127  0.21543  0.19777  1.0000
  H   H90       1.0  0.36391  0.20022  0.12047  1.0000
  C   C114      1.0  0.98694  0.99316  0.15909  1.0000
  H   H91       1.0  0.43671  0.21406  0.16891  1.0000
  C   C115      1.0  0.09607  0.18804  0.02923  1.0000
  H   H92       1.0  0.40190  0.31186  0.11447  1.0000
  C   C116      1.0  0.37625  0.31410  0.21233  1.0000
  C   C117      1.0  0.33369  0.21401  0.17736  1.0000
  H   H93       1.0  0.27105  0.20638  0.15619  1.0000
  C   C118      1.0  0.08272  0.16001  0.03527  1.0000
  H   H94       1.0  0.29637  0.21676  0.21117  1.0000
  H   H95       1.0  0.42702  0.05994  0.04804  1.0000
  C   C119      1.0  0.32748  0.21626  0.19453  1.0000
  C   C120      1.0  0.04170  0.02072  0.09258  1.0000
  H   H96       1.0  0.08909  0.15220  0.20196  1.0000
  H   H97       1.0  0.34294  0.21828  0.20535  1.0000
  H   H98       1.0  0.13279  0.14377  0.20381  1.0000
  C   C121      1.0  0.10024  0.13094  0.08741  1.0000
  S   S19       1.0  0.39449  0.17779  0.22517  1.0000
  H   H99       1.0  0.22668  0.17841  0.22186  1.0000
  H   H100      1.0  0.29721  0.10090  0.12061  1.0000
  H   H101      1.0  0.19802  0.18483  0.03402  1.0000
  S   S20       1.0  0.43945  0.27125  0.16451  1.0000
  C   C122      1.0  0.05937  0.13793  0.07438  1.0000
  H   H102      1.0  0.04771  0.14320  0.06328  1.0000
  C   C123      1.0  0.05553  0.14421  0.02847  1.0000
  H   H103      1.0  0.12074  0.13075  0.08639  1.0000
  C   C124      1.0  0.19331  0.20307  0.05740  1.0000
  H   H104      1.0  0.14858  0.15317  0.03049  1.0000
  C   C125      1.0  0.41179  0.22422  0.04499  1.0000
  C   C126      1.0  0.16690  0.99305  0.00995  1.0000
  C   C127      1.0  0.43587  0.12872  0.04786  1.0000
  C   C128      1.0  0.40915  0.29743  0.22847  1.0000
  H   H105      1.0  0.05310  0.00414  0.02773  1.0000
  C   C129      1.0  0.22416  0.15693  0.22502  1.0000
  H   H106      1.0  0.45196  0.16280  0.12710  1.0000
  C   C130      1.0  0.97489  0.03657  0.14136  1.0000
  C   C131      1.0  0.42577  0.33874  0.20894  1.0000
  C   C132      1.0  0.38173  0.29494  0.22430  1.0000
  C   C133      1.0  0.04192  0.15628  0.01590  1.0000
  H   H107      1.0  0.14836  0.11942  0.99768  1.0000
  C   C134      1.0  0.43461  0.18407  0.05459  1.0000
  H   H108      1.0  0.97495  0.21243  0.00936  1.0000
  H   H109      1.0  0.45472  0.31603  0.18854  1.0000
  C   C135      1.0  0.41797  0.08328  0.02553  1.0000
  C   C136      1.0  0.96697  0.09442  0.19196  1.0000
  C   C137      1.0  0.44006  0.15195  0.11555  1.0000
  H   H110      1.0  0.02096  0.14410  0.01065  1.0000
  C   C138      1.0  0.39498  0.19568  0.04414  1.0000
  C   C139      1.0  0.00524  0.98322  0.10787  1.0000
  H   H111      1.0  0.36475  0.27827  0.23057  1.0000
  H   H112      1.0  0.44257  0.35612  0.20309  1.0000
  H   H113      1.0  0.09992  0.98795  0.00492  1.0000
  H   H114      1.0  0.98579  0.01266  0.18294  1.0000
  S   S21       1.0  0.02595  0.98670  0.21156  1.0000
  C   C140      1.0  0.07773  0.13412  0.22790  1.0000
  C   C141      1.0  0.21688  0.10149  0.23345  1.0000
  C   C142      1.0  0.11783  0.98277  0.00382  1.0000
  C   C143      1.0  0.97881  0.01651  0.13176  1.0000
  H   H115      1.0  0.99136  0.97641  0.16618  1.0000
  C   C144      1.0  0.97725  0.03506  0.15978  1.0000
  H   H116      1.0  0.97689  0.01792  0.11749  1.0000
  C   C145      1.0  0.24523  0.15153  0.23553  1.0000
  H   H117      1.0  0.41274  0.28240  0.23789  1.0000
  C   C146      1.0  0.24164  0.12359  0.23941  1.0000
  H   H118      1.0  0.21414  0.08003  0.23693  1.0000
  H   H119      1.0  0.12382  0.01534  0.23997  1.0000
  H   H120      1.0  0.07263  0.98851  0.23942  1.0000
  H   H121      1.0  0.45026  0.36490  0.24137  1.0000
  C   C147      1.0  0.14753  0.13856  0.99159  1.0000
  H   H122      1.0  0.23453  0.32273  0.41347  1.0000
  H   H123      1.0  0.26831  0.42637  0.39537  1.0000
  H   H124      1.0  0.15646  0.07555  0.28333  1.0000
  C   C148      1.0  0.10526  0.13131  0.28604  1.0000
  C   C149      1.0  0.26083  0.35356  0.39533  1.0000
  C   C150      1.0  0.09430  0.13560  0.30117  1.0000
  H   H125      1.0  0.28969  0.38768  0.38043  1.0000
  P   P5        1.0  0.11964  0.09963  0.26373  1.0000
  C   C151      1.0  0.10540  0.06314  0.25830  1.0000
  C   C152      1.0  0.17386  0.14079  0.26366  1.0000
  C   C153      1.0  0.19807  0.10683  0.28237  1.0000
  C   C154      1.0  0.16917  0.09657  0.27871  1.0000
  C   C155      1.0  0.15692  0.11317  0.26884  1.0000
  C   C156      1.0  0.10503  0.10479  0.28312  1.0000
  C   C157      1.0  0.07642  0.04790  0.25784  1.0000
  C   C158      1.0  0.28752  0.38386  0.42524  1.0000
  H   H126      1.0  0.11393  0.14865  0.27661  1.0000
  H   H127      1.0  0.07490  0.11694  0.32531  1.0000
  H   H128      1.0  0.25815  0.34967  0.43999  1.0000
  C   C159      1.0  0.20272  0.15099  0.26741  1.0000
  H   H129      1.0  0.20757  0.09366  0.28950  1.0000
  C   C160      1.0  0.25186  0.34278  0.41208  1.0000
  C   C161      1.0  0.09456  0.08290  0.29581  1.0000
  C   C162      1.0  0.12235  0.05105  0.25192  1.0000
  H   H130      1.0  0.21589  0.17195  0.26283  1.0000
  H   H131      1.0  0.07543  0.07027  0.32066  1.0000
  H   H132      1.0  0.09497  0.06252  0.29408  1.0000
  H   H133      1.0  0.06274  0.05739  0.26170  1.0000
  C   C163      1.0  0.26518  0.35794  0.42701  1.0000
  C   C164      1.0  0.08339  0.11357  0.31359  1.0000
  Fe  Fe11      1.0  0.31737  0.18468  0.25756  1.0000
  H   H134      1.0  0.25046  0.34187  0.38374  1.0000
  H   H135      1.0  0.09433  0.15607  0.30328  1.0000
  C   C165      1.0  0.28313  0.37947  0.39352  1.0000
  H   H136      1.0  0.23734  0.14174  0.27899  1.0000
  C   C166      1.0  0.29672  0.39478  0.40847  1.0000
  C   C167      1.0  0.21485  0.13395  0.27659  1.0000
  C   C168      1.0  0.08363  0.08726  0.31095  1.0000
  C   C169      1.0  0.31126  0.45511  0.40050  1.0000
  C   C170      1.0  0.28270  0.44802  0.39606  1.0000
  H   H137      1.0  0.29741  0.39528  0.43698  1.0000
  H   H138      1.0  0.30147  0.19953  0.32951  1.0000
  H   H139      1.0  0.98547  0.45449  0.40575  1.0000
  H   H140      1.0  0.31941  0.45289  0.43803  1.0000
  C   C171      1.0  0.32257  0.20586  0.33539  1.0000
  H   H141      1.0  0.14451  0.06283  0.25116  1.0000
  C   C172      1.0  0.11062  0.02401  0.24548  1.0000
  C   C173      1.0  0.06472  0.02081  0.25141  1.0000
  C   C174      1.0  0.08182  0.00892  0.24518  1.0000
  H   H142      1.0  0.16496  0.15444  0.25657  1.0000
  C   C175      1.0  0.27227  0.46910  0.39277  1.0000
  H   H143      1.0  0.25017  0.46363  0.38969  1.0000
  H   H144      1.0  0.25757  0.11899  0.24743  1.0000
  H   H145      1.0  0.32285  0.24328  0.34613  1.0000
  S   S22       1.0  0.33651  0.15249  0.25885  1.0000
  S   S23       1.0  0.33562  0.20068  0.28478  1.0000
  S   S24       1.0  0.27458  0.18045  0.24425  1.0000
  H   H146      1.0  0.04227  0.00959  0.25031  1.0000
  H   H147      1.0  0.40397  0.97690  0.42973  1.0000
  C   C176      1.0  0.35294  0.97468  0.48837  1.0000
  H   H148      1.0  0.96443  0.46085  0.30336  1.0000
  P   P6        1.0  0.32520  0.42842  0.40587  1.0000
  H   H149      1.0  0.46079  0.99463  0.47404  1.0000
  H   H150      1.0  0.37997  0.35516  0.48389  1.0000
  H   H151      1.0  0.32873  0.17075  0.32589  1.0000
  H   H152      1.0  0.99250  0.46398  0.34195  1.0000
  H   H153      1.0  0.34001  0.97666  0.47692  1.0000
  H   H154      1.0  0.07108  0.11419  0.25370  1.0000
  C   C177      1.0  0.44139  0.26965  0.46335  1.0000
  C   C178      1.0  0.45892  0.27890  0.34304  1.0000
  H   H155      1.0  0.46220  0.21282  0.24380  1.0000
  H   H156      1.0  0.45105  0.46053  0.47449  1.0000
  C   C179      1.0  0.43706  0.15848  0.37333  1.0000
  H   H157      1.0  0.35198  0.98997  0.44557  1.0000
  C   C180      1.0  0.46148  0.27706  0.24947  1.0000
  H   H158      1.0  0.44189  0.28289  0.45164  1.0000
  C   C181      1.0  0.33461  0.23045  0.34475  1.0000
  C   C182      1.0  0.46016  0.24990  0.25368  1.0000
  C   C183      1.0  0.08526  0.12144  0.24320  1.0000
  H   H159      1.0  0.43200  0.11330  0.24722  1.0000
  Fe  Fe12      1.0  0.37327  0.23150  0.27162  1.0000
  H   H160      1.0  0.44667  0.47074  0.40252  1.0000
  H   H161      1.0  0.45669  0.28831  0.25935  1.0000
  C   C184      1.0  0.36203  0.23885  0.35203  1.0000
  H   H162      1.0  0.41674  0.01963  0.47829  1.0000
  Fe  Fe13      1.0  0.37329  0.18701  0.24714  1.0000
  S   S25       1.0  0.35342  0.21827  0.24448  1.0000
  H   H163      1.0  0.35136  0.46666  0.37580  1.0000
  C   C185      1.0  0.46263  0.46988  0.46302  1.0000
  C   C186      1.0  0.35549  0.44785  0.37563  1.0000
  H   H164      1.0  0.45626  0.06437  0.43196  1.0000
  H   H165      1.0  0.44227  0.14031  0.37656  1.0000
  H   H166      1.0  0.41898  0.25187  0.42166  1.0000
  C   C187      1.0  0.45557  0.23579  0.48049  1.0000
  Fe  Fe14      1.0  0.35758  0.17064  0.28490  1.0000
  C   C188      1.0  0.37116  0.43223  0.42906  1.0000
  H   H167      1.0  0.37873  0.42432  0.41876  1.0000
  H   H168      1.0  0.45472  0.24060  0.26671  1.0000
  C   C189      1.0  0.38794  0.13293  0.31557  1.0000
  H   H169      1.0  0.34488  0.38536  0.39774  1.0000
  C   C190      1.0  0.36547  0.19815  0.34044  1.0000
  C   C191      1.0  0.39218  0.12384  0.33303  1.0000
  C   C192      1.0  0.39266  0.28683  0.30999  1.0000
  C   C193      1.0  0.11045  0.11745  0.24456  1.0000
  C   C194      1.0  0.42002  0.26097  0.40836  1.0000
  H   H170      1.0  0.39037  0.45361  0.47118  1.0000
  C   C195      1.0  0.44590  0.12943  0.25583  1.0000
  C   C196      1.0  0.33814  0.44856  0.43989  1.0000
  C   C197      1.0  0.44126  0.17285  0.41845  1.0000
  H   H171      1.0  0.44962  0.18808  0.27502  1.0000
  Fe  Fe15      1.0  0.45946  0.39380  0.35052  1.0000
  H   H172      1.0  0.34740  0.46354  0.46632  1.0000
  C   C198      1.0  0.42890  0.32455  0.29519  1.0000
  C   C199      1.0  0.44368  0.25962  0.30880  1.0000
  C   C200      1.0  0.41796  0.24466  0.39399  1.0000
  H   H173      1.0  0.43277  0.15265  0.41237  1.0000
  C   C201      1.0  0.43822  0.15100  0.26018  1.0000
  C   C202      1.0  0.42795  0.24448  0.32279  1.0000
  H   H174      1.0  0.43731  0.25249  0.29548  1.0000
  C   C203      1.0  0.34547  0.42603  0.38842  1.0000
  S   S26       1.0  0.42754  0.34927  0.34505  1.0000
  C   C204      1.0  0.35207  0.40230  0.38789  1.0000
  H   H175      1.0  0.44708  0.06369  0.46333  1.0000
  H   H176      1.0  0.41840  0.15152  0.25498  1.0000
  C   C205      1.0  0.42297  0.11717  0.30686  1.0000
  H   H177      1.0  0.41235  0.28223  0.47526  1.0000
  H   H178      1.0  0.39514  0.13800  0.38147  1.0000
  H   H179      1.0  0.37724  0.18566  0.33821  1.0000
  C   C206      1.0  0.43507  0.25430  0.33999  1.0000
  H   H180      1.0  0.38692  0.29497  0.33646  1.0000
  H   H181      1.0  0.40040  0.13649  0.28905  1.0000
  H   H182      1.0  0.37613  0.26613  0.31000  1.0000
  C   C207      1.0  0.35388  0.45445  0.45601  1.0000
  C   C208      1.0  0.42327  0.20518  0.36441  1.0000
  H   H183      1.0  0.38016  0.46311  0.35298  1.0000
  H   H184      1.0  0.44669  0.37622  0.44009  1.0000
  H   H185      1.0  0.43447  0.11416  0.29659  1.0000
  C   C209      1.0  0.41053  0.15723  0.37616  1.0000
  H   H186      1.0  0.39214  0.42163  0.35250  1.0000
  C   C210      1.0  0.42424  0.26908  0.47663  1.0000
  S   S27       1.0  0.45724  0.41171  0.37635  1.0000
  H   H187      1.0  0.37993  0.12594  0.34316  1.0000
  S   S28       1.0  0.40036  0.27806  0.27541  1.0000
  C   C211      1.0  0.33794  0.18966  0.33334  1.0000
  C   C212      1.0  0.42059  0.01953  0.46458  1.0000
  C   C213      1.0  0.43772  0.04455  0.45618  1.0000
  C   C214      1.0  0.45592  0.17172  0.27140  1.0000
  H   H188      1.0  0.42716  0.32257  0.38616  1.0000
  C   C215      1.0  0.39896  0.30314  0.32506  1.0000
  C   C216      1.0  0.34655  0.43722  0.42631  1.0000
  C   C217      1.0  0.43064  0.02059  0.42896  1.0000
  S   S29       1.0  0.45024  0.09037  0.32876  1.0000
  H   H189      1.0  0.37086  0.25813  0.35900  1.0000
  H   H190      1.0  0.42236  0.29384  0.36089  1.0000
  C   C218      1.0  0.41173  0.11148  0.33740  1.0000
  C   C219      1.0  0.37855  0.42244  0.36226  1.0000
  H   H191      1.0  0.42368  0.21071  0.44623  1.0000
  H   H192      1.0  0.43458  0.02090  0.41518  1.0000
  C   C220      1.0  0.41904  0.25631  0.37669  1.0000
  H   H193      1.0  0.41958  0.39978  0.47751  1.0000
  H   H194      1.0  0.44053  0.33300  0.28361  1.0000
  H   H195      1.0  0.41439  0.10406  0.35080  1.0000
  C   C221      1.0  0.37810  0.44898  0.45873  1.0000
  C   C222      1.0  0.42498  0.18038  0.42903  1.0000
  C   C223      1.0  0.44286  0.04504  0.43842  1.0000
  C   C224      1.0  0.40857  0.99478  0.45518  1.0000
  P   P7        1.0  0.41407  0.23485  0.35791  1.0000
  C   C225      1.0  0.43545  0.34072  0.31037  1.0000
  C   C226      1.0  0.37775  0.22276  0.34994  1.0000
  C   C227      1.0  0.38671  0.43793  0.44525  1.0000
  C   C228      1.0  0.37173  0.44587  0.36252  1.0000
  C   C229      1.0  0.42346  0.28906  0.40559  1.0000
  C   C230      1.0  0.40369  0.18053  0.37187  1.0000
  C   C231      1.0  0.42042  0.33010  0.32542  1.0000
  C   C232      1.0  0.43647  0.20575  0.43767  1.0000
  H   H196      1.0  0.45196  0.36143  0.31039  1.0000
  S   S30       1.0  0.39583  0.20228  0.27319  1.0000
  S   S31       1.0  0.36178  0.14661  0.31049  1.0000
  H   H197      1.0  0.41516  0.22294  0.39644  1.0000
  H   H198      1.0  0.38297  0.17911  0.37408  1.0000
  C   C233      1.0  0.41346  0.99564  0.43727  1.0000
  C   C234      1.0  0.42462  0.30080  0.38845  1.0000
  S   S32       1.0  0.44464  0.06068  0.38086  1.0000
  C   C235      1.0  0.42220  0.28448  0.37408  1.0000
  H   H199      1.0  0.42535  0.30183  0.41670  1.0000
  C   C236      1.0  0.40754  0.29751  0.29491  1.0000
  C   C237      1.0  0.42694  0.10772  0.32427  1.0000
  H   H200      1.0  0.37433  0.38264  0.37475  1.0000
  C   C238      1.0  0.36865  0.40060  0.37490  1.0000
  H   H201      1.0  0.40997  0.22542  0.31998  1.0000
  H   H202      1.0  0.40366  0.16614  0.43093  1.0000
  C   C239      1.0  0.40373  0.12989  0.30254  1.0000
  H   H203      1.0  0.40570  0.43416  0.44721  1.0000
  C   C240      1.0  0.45796  0.25372  0.46548  1.0000
  H   H204      1.0  0.45416  0.42992  0.45217  1.0000
  C   C241      1.0  0.45680  0.18306  0.36621  1.0000
  C   C242      1.0  0.44998  0.20634  0.36175  1.0000
  C   C243      1.0  0.41129  0.39550  0.49045  1.0000
  C   C244      1.0  0.44350  0.03448  0.51284  1.0000
  Fe  Fe16      1.0  0.12145  0.39636  0.68352  1.0000
  S   S33       1.0  0.14257  0.36558  0.68420  1.0000
  S   S34       1.0  0.09484  0.40017  0.65875  1.0000
  Fe  Fe17      1.0  0.14966  0.41915  0.71872  1.0000
  S   S35       1.0  0.17313  0.39094  0.72176  1.0000
  Fe  Fe18      1.0  0.18157  0.40189  0.69312  1.0000
  S   S36       1.0  0.22431  0.40831  0.68375  1.0000
  Fe  Fe19      1.0  0.13236  0.35658  0.71280  1.0000
  S   S37       1.0  0.12427  0.31457  0.72846  1.0000
  S   S38       1.0  0.16110  0.43289  0.69072  1.0000
  S   S39       1.0  0.10828  0.38468  0.71147  1.0000
  C   C245      1.0  0.43822  0.23506  0.49365  1.0000
  H   H205      1.0  0.39082  0.32279  0.54908  1.0000
  C   C246      1.0  0.45419  0.37902  0.57348  1.0000
  S   S40       1.0  0.39783  0.97692  0.56857  1.0000
  C   C247      1.0  0.34729  0.34761  0.54860  1.0000
  C   C248      1.0  0.09614  0.28293  0.73486  1.0000
  C   C249      1.0  0.29251  0.43167  0.70617  1.0000
  C   C250      1.0  0.29339  0.30667  0.55229  1.0000
  H   H206      1.0  0.27257  0.29087  0.55374  1.0000
  C   C251      1.0  0.97216  0.40206  0.61182  1.0000
  C   C252      1.0  0.40853  0.36545  0.55786  1.0000
  C   C253      1.0  0.34145  0.45873  0.70239  1.0000
  H   H207      1.0  0.45026  0.98529  0.61468  1.0000
  C   C254      1.0  0.24660  0.43634  0.67038  1.0000
  C   C255      1.0  0.27031  0.43432  0.66412  1.0000
  C   C256      1.0  0.28894  0.45643  0.65391  1.0000
  C   C257      1.0  0.29837  0.32683  0.53842  1.0000
  C   C258      1.0  0.05499  0.44865  0.63554  1.0000
  C   C259      1.0  0.24170  0.46075  0.66623  1.0000
  H   H208      1.0  0.27442  0.41560  0.66732  1.0000
  H   H209      1.0  0.30719  0.45463  0.64935  1.0000
  H   H210      1.0  0.31119  0.29193  0.57546  1.0000
  C   C260      1.0  0.05369  0.46438  0.64938  1.0000
  H   H211      1.0  0.40777  0.04309  0.51786  1.0000
  C   C261      1.0  0.42763  0.05089  0.51187  1.0000
  C   C262      1.0  0.45260  0.00696  0.61417  1.0000
  C   C263      1.0  0.97756  0.43699  0.56135  1.0000
  H   H212      1.0  0.43399  0.40736  0.56616  1.0000
  C   C264      1.0  0.42384  0.41453  0.50377  1.0000
  S   S41       1.0  0.15419  0.45235  0.73793  1.0000
  H   H213      1.0  0.17817  0.46406  0.51870  1.0000
  C   C265      1.0  0.07831  0.44118  0.66921  1.0000
  C   C266      1.0  0.07942  0.42527  0.65543  1.0000
  C   C267      1.0  0.06779  0.42918  0.63857  1.0000
  C   C268      1.0  0.37211  0.42464  0.54590  1.0000
  H   H214      1.0  0.08697  0.43821  0.68227  1.0000
  C   C269      1.0  0.42656  0.00986  0.56608  1.0000
  C   C270      1.0  0.42198  0.03295  0.55770  1.0000
  H   H215      1.0  0.12514  0.42366  0.60643  1.0000
  C   C271      1.0  0.98471  0.99417  0.73265  1.0000
  C   C272      1.0  0.00544  0.44507  0.55720  1.0000
  C   C273      1.0  0.97590  0.38052  0.57353  1.0000
  C   C274      1.0  0.43219  0.38591  0.56600  1.0000
  H   H216      1.0  0.41005  0.25194  0.50233  1.0000
  C   C275      1.0  0.43759  0.07752  0.50355  1.0000
  C   C276      1.0  0.06824  0.27735  0.72945  1.0000
  H   H217      1.0  0.43753  0.22204  0.50556  1.0000
  C   C277      1.0  0.38897  0.37029  0.49409  1.0000
  C   C278      1.0  0.31516  0.30721  0.56450  1.0000
  H   H218      1.0  0.36830  0.42256  0.53176  1.0000
  H   H219      1.0  0.18267  0.40471  0.65690  1.0000
  C   C279      1.0  0.40800  0.33841  0.55632  1.0000
  H   H220      1.0  0.45891  0.08410  0.61191  1.0000
  C   C280      1.0  0.45713  0.06253  0.61269  1.0000
  H   H221      1.0  0.02533  0.24842  0.73110  1.0000
  H   H222      1.0  0.04548  0.45095  0.62265  1.0000
  H   H223      1.0  0.45782  0.99597  0.57812  1.0000
  C   C281      1.0  0.06541  0.46053  0.66620  1.0000
  H   H224      1.0  0.42550  0.09043  0.50302  1.0000
  H   H225      1.0  0.40107  0.03037  0.55287  1.0000
  C   C282      1.0  0.43011  0.33159  0.56374  1.0000
  H   H226      1.0  0.06424  0.47236  0.67703  1.0000
  H   H227      1.0  0.22403  0.46288  0.67137  1.0000
  H   H228      1.0  0.44217  0.43327  0.50134  1.0000
  H   H229      1.0  0.32860  0.36331  0.52610  1.0000
  C   C283      1.0  0.37923  0.40485  0.55651  1.0000
  H   H230      1.0  0.43534  0.01421  0.51951  1.0000
  C   C284      1.0  0.36994  0.44742  0.55352  1.0000
  H   H231      1.0  0.13552  0.45595  0.49899  1.0000
  C   C285      1.0  0.38086  0.43037  0.58243  1.0000
  C   C286      1.0  0.38304  0.40757  0.57488  1.0000
  H   H232      1.0  0.01450  0.40487  0.58812  1.0000
  C   C287      1.0  0.32518  0.34739  0.53665  1.0000
  H   H233      1.0  0.41244  0.04533  0.60784  1.0000
  H   H234      1.0  0.42997  0.31088  0.56235  1.0000
  H   H235      1.0  0.45716  0.45698  0.60646  1.0000
  C   C288      1.0  0.45305  0.35181  0.57248  1.0000
  C   C289      1.0  0.43096  0.04073  0.61046  1.0000
  C   C290      1.0  0.97318  0.33554  0.56422  1.0000
  C   C291      1.0  0.28855  0.45629  0.70857  1.0000
  H   H236      1.0  0.06851  0.41691  0.62785  1.0000
  H   H237      1.0  0.13659  0.45902  0.65291  1.0000
  H   H238      1.0  0.38801  0.39232  0.58338  1.0000
  C   C292      1.0  0.00284  0.38571  0.58122  1.0000
  C   C293      1.0  0.37921  0.36410  0.51107  1.0000
  H   H239      1.0  0.01730  0.43267  0.56165  1.0000
  H   H240      1.0  0.14643  0.36541  0.64110  1.0000
  H   H241      1.0  0.35840  0.32835  0.57266  1.0000
  H   H242      1.0  0.98279  0.01005  0.72326  1.0000
  C   C294      1.0  0.46340  0.08767  0.49613  1.0000
  H   H243      1.0  0.03544  0.37007  0.58655  1.0000
  C   C295      1.0  0.31886  0.43288  0.70293  1.0000
  H   H244      1.0  0.41251  0.46732  0.52420  1.0000
  C   C296      1.0  0.99997  0.34094  0.57189  1.0000
  H   H245      1.0  0.97356  0.44265  0.64545  1.0000
  H   H246      1.0  0.40837  0.99603  0.60959  1.0000
  H   H247      1.0  0.00918  0.32560  0.57135  1.0000
  C   C297      1.0  0.37443  0.45032  0.57176  1.0000
  C   C298      1.0  0.39131  0.38353  0.52436  1.0000
  H   H248      1.0  0.32164  0.41379  0.70064  1.0000
  H   H249      1.0  0.43993  0.07737  0.55024  1.0000
  H   H250      1.0  0.36290  0.34389  0.51387  1.0000
  H   H251      1.0  0.11761  0.37511  0.61594  1.0000
  H   H252      1.0  0.21773  0.46978  0.62279  1.0000
  C   C299      1.0  0.34198  0.32775  0.56277  1.0000
  H   H253      1.0  0.38479  0.43303  0.59656  1.0000
  H   H254      1.0  0.42413  0.42328  0.53090  1.0000
  C   C300      1.0  0.97631  0.07342  0.73072  1.0000
  C   C301      1.0  0.96986  0.43472  0.63226  1.0000
  H   H255      1.0  0.99711  0.08943  0.73283  1.0000
  C   C302      1.0  0.15886  0.44252  0.62621  1.0000
  C   C303      1.0  0.13831  0.42007  0.61724  1.0000
  C   C304      1.0  0.13394  0.39236  0.62255  1.0000
  C   C305      1.0  0.15006  0.38685  0.63677  1.0000
  C   C306      1.0  0.17040  0.40903  0.64577  1.0000
  C   C307      1.0  0.17449  0.43670  0.64070  1.0000
  C   C308      1.0  0.42867  0.01295  0.61146  1.0000
  H   H256      1.0  0.18971  0.45357  0.64817  1.0000
  C   C309      1.0  0.41374  0.40868  0.52060  1.0000
  P   P8        1.0  0.38142  0.37508  0.54679  1.0000
  H   H257      1.0  0.37344  0.46829  0.57767  1.0000
  H   H258      1.0  0.06319  0.29230  0.72072  1.0000
  H   H259      1.0  0.18811  0.97781  0.68211  1.0000
  H   H260      1.0  0.28137  0.32676  0.52916  1.0000
  H   H261      1.0  0.36498  0.46300  0.54533  1.0000
  C   C310      1.0  0.04678  0.25235  0.73536  1.0000
  C   C311      1.0  0.96959  0.04710  0.73928  1.0000
  H   H262      1.0  0.27483  0.41167  0.70628  1.0000
  C   C312      1.0  0.01478  0.36600  0.58041  1.0000
  C   C313      1.0  0.45376  0.01357  0.57206  1.0000
  H   H263      1.0  0.26773  0.45464  0.71059  1.0000
  C   C314      1.0  0.00748  0.98656  0.73204  1.0000
  H   H264      1.0  0.36187  0.45970  0.69978  1.0000
  H   H265      1.0  0.02320  0.99713  0.72272  1.0000
  C   C315      1.0  0.44404  0.05965  0.55609  1.0000
  C   C316      1.0  0.01866  0.46992  0.54731  1.0000
  C   C317      1.0  0.45537  0.46576  0.59332  1.0000
  C   C318      1.0  0.97597  0.41168  0.62896  1.0000
  C   C319      1.0  0.34590  0.97846  0.50507  1.0000
  H   H266      1.0  0.98407  0.40155  0.63969  1.0000
  H   H267      1.0  0.97644  0.38379  0.60979  1.0000
  H   H268      1.0  0.35639  0.97810  0.53319  1.0000
  H   H269      1.0  0.32782  0.98334  0.50635  1.0000
  C   C320      1.0  0.36191  0.97553  0.52018  1.0000
  H   H270      1.0  0.14888  0.98042  0.66226  1.0000
  C   C321      1.0  0.42284  0.25196  0.49185  1.0000
  H   H271      1.0  0.11767  0.46839  0.56008  1.0000
  H   H272      1.0  0.15611  0.47022  0.58197  1.0000
  C   C322      1.0  0.11665  0.47236  0.57374  1.0000
  C   C323      1.0  0.13847  0.47374  0.58612  1.0000
  S   S42       1.0  0.00886  0.22272  0.97971  1.0000
  C   C324      1.0  0.98921  0.26431  0.90620  1.0000
  Fe  Fe20      1.0  0.02564  0.10494  0.77623  1.0000
  C   C325      1.0  0.05196  0.25472  0.83825  1.0000
  H   H273      1.0  0.08851  0.06510  0.76052  1.0000
  C   C326      1.0  0.05034  0.30593  0.87833  1.0000
  S   S43       1.0  0.05518  0.14905  0.78248  1.0000
  Fe  Fe21      1.0  0.03594  0.22207  0.95780  1.0000
  S   S44       1.0  0.03040  0.18058  0.94800  1.0000
  C   C327      1.0  0.10234  0.23723  0.81972  1.0000
  Fe  Fe22      1.0  0.08525  0.25483  0.93440  1.0000
  S   S45       1.0  0.08249  0.21423  0.92358  1.0000
  S   S46       1.0  0.12008  0.29267  0.92136  1.0000
  Fe  Fe23      1.0  0.03636  0.20197  0.92118  1.0000
  S   S47       1.0  0.00731  0.17921  0.89819  1.0000
  Fe  Fe24      1.0  0.07713  0.19580  0.95124  1.0000
  S   S48       1.0  0.09046  0.16028  0.96160  1.0000
  S   S49       1.0  0.03879  0.24313  0.93054  1.0000
  S   S50       1.0  0.08291  0.23674  0.96265  1.0000
  C   C328      1.0  0.00156  0.28729  0.91715  1.0000
  S   S51       1.0  0.21359  0.45221  0.86431  1.0000
  S   S52       1.0  0.18294  0.42865  0.81859  1.0000
  H   H274      1.0  0.08538  0.18718  0.86359  1.0000
  C   C329      1.0  0.99754  0.28394  0.93525  1.0000
  Fe  Fe25      1.0  0.17987  0.45549  0.87940  1.0000
  S   S53       1.0  0.15467  0.42444  0.90098  1.0000
  P   P9        1.0  0.99504  0.26894  0.88294  1.0000
  C   C330      1.0  0.12804  0.32893  0.91507  1.0000
  C   C331      1.0  0.11373  0.34418  0.92101  1.0000
  C   C332      1.0  0.12188  0.37313  0.91634  1.0000
  C   C333      1.0  0.14400  0.38727  0.90532  1.0000
  C   C334      1.0  0.15767  0.37177  0.89890  1.0000
  C   C335      1.0  0.14994  0.34299  0.90388  1.0000
  H   H275      1.0  0.09691  0.33389  0.92962  1.0000
  H   H276      1.0  0.11116  0.38475  0.92150  1.0000
  H   H277      1.0  0.17491  0.38225  0.89063  1.0000
  H   H278      1.0  0.16135  0.33163  0.89924  1.0000
  C   C336      1.0  0.12155  0.16275  0.97403  1.0000
  C   C337      1.0  0.14509  0.18785  0.97520  1.0000
  H   H279      1.0  0.14436  0.20687  0.96880  1.0000
  H   H280      1.0  0.09917  0.02329  0.76841  1.0000
  C   C338      1.0  0.99201  0.31121  0.76278  1.0000
  C   C339      1.0  0.19321  0.36862  0.83361  1.0000
  C   C340      1.0  0.02246  0.17328  0.87984  1.0000
  C   C341      1.0  0.00525  0.15688  0.86620  1.0000
  C   C342      1.0  0.01691  0.15129  0.85166  1.0000
  C   C343      1.0  0.04590  0.16194  0.85081  1.0000
  C   C344      1.0  0.06302  0.17870  0.86427  1.0000
  C   C345      1.0  0.05136  0.18437  0.87870  1.0000
  C   C346      1.0  0.01105  0.99694  0.89397  1.0000
  H   H281      1.0  0.00354  0.13842  0.84127  1.0000
  H   H282      1.0  0.06484  0.19695  0.88906  1.0000
  C   C347      1.0  0.16234  0.44584  0.76036  1.0000
  C   C348      1.0  0.16642  0.42139  0.76590  1.0000
  C   C349      1.0  0.17304  0.41669  0.78379  1.0000
  C   C350      1.0  0.17527  0.43614  0.79630  1.0000
  Fe  Fe26      1.0  0.18867  0.45871  0.84011  1.0000
  C   C351      1.0  0.15554  0.99680  0.95529  1.0000
  P   P10       1.0  0.04444  0.99798  0.84704  1.0000
  H   H283      1.0  0.17614  0.39776  0.78803  1.0000
  H   H284      1.0  0.06674  0.20185  0.81003  1.0000
  C   C352      1.0  0.09581  0.35283  0.76101  1.0000
  C   C353      1.0  0.99174  0.27037  0.78071  1.0000
  C   C354      1.0  0.18205  0.29104  0.77032  1.0000
  H   H285      1.0  0.16424  0.40596  0.75645  1.0000
  H   H286      1.0  0.04784  0.02558  0.98309  1.0000
  H   H287      1.0  0.20290  0.11560  0.98211  1.0000
  C   C355      1.0  0.02740  0.02321  0.77791  1.0000
  C   C356      1.0  0.04739  0.04730  0.77014  1.0000
  C   C357      1.0  0.07315  0.04692  0.76681  1.0000
  C   C358      1.0  0.07913  0.02308  0.77118  1.0000
  H   H288      1.0  0.13718  0.27546  0.82565  1.0000
  C   C359      1.0  0.07091  0.23982  0.79507  1.0000
  C   C360      1.0  0.96486  0.98134  0.74526  1.0000
  H   H289      1.0  0.98286  0.14822  0.86699  1.0000
  C   C361      1.0  0.15165  0.13542  0.94241  1.0000
  C   C362      1.0  0.17741  0.15729  0.94595  1.0000
  C   C363      1.0  0.18858  0.17855  0.93314  1.0000
  C   C364      1.0  0.17378  0.17828  0.91689  1.0000
  C   C365      1.0  0.14746  0.15683  0.91345  1.0000
  C   C366      1.0  0.13690  0.13490  0.92613  1.0000
  P   P11       1.0  0.12755  0.15740  0.89286  1.0000
  C   C367      1.0  0.13570  0.19400  0.88637  1.0000
  C   C368      1.0  0.13579  0.13878  0.87637  1.0000
  C   C369      1.0  0.12442  0.13819  0.85889  1.0000
  C   C370      1.0  0.13124  0.12423  0.84615  1.0000
  C   C371      1.0  0.14927  0.11052  0.85072  1.0000
  C   C372      1.0  0.16070  0.11095  0.86804  1.0000
  C   C373      1.0  0.15397  0.12495  0.88084  1.0000
  C   C374      1.0  0.14511  0.20526  0.86965  1.0000
  C   C375      1.0  0.15079  0.23351  0.86505  1.0000
  C   C376      1.0  0.14768  0.25092  0.87718  1.0000
  C   C377      1.0  0.13929  0.24019  0.89400  1.0000
  C   C378      1.0  0.13354  0.21197  0.89860  1.0000
  C   C379      1.0  0.09087  0.14181  0.89723  1.0000
  C   C380      1.0  0.08206  0.14780  0.91282  1.0000
  C   C381      1.0  0.05384  0.13666  0.91620  1.0000
  C   C382      1.0  0.03401  0.11961  0.90400  1.0000
  C   C383      1.0  0.04249  0.11309  0.88859  1.0000
  C   C384      1.0  0.07078  0.12392  0.88528  1.0000
  H   H290      1.0  0.14287  0.11922  0.95251  1.0000
  H   H291      1.0  0.18859  0.15792  0.95872  1.0000
  H   H292      1.0  0.20849  0.19556  0.93599  1.0000
  H   H293      1.0  0.18263  0.19516  0.90721  1.0000
  H   H294      1.0  0.11690  0.11786  0.92372  1.0000
  H   H295      1.0  0.11049  0.14882  0.85500  1.0000
  H   H296      1.0  0.12274  0.12433  0.83265  1.0000
  H   H297      1.0  0.15459  0.09983  0.84076  1.0000
  H   H298      1.0  0.17499  0.10064  0.87153  1.0000
  H   H299      1.0  0.16316  0.12502  0.89415  1.0000
  H   H300      1.0  0.14843  0.19267  0.86011  1.0000
  H   H301      1.0  0.15791  0.24199  0.85212  1.0000
  H   H302      1.0  0.15227  0.27285  0.87371  1.0000
  H   H303      1.0  0.13748  0.25382  0.90359  1.0000
  H   H304      1.0  0.12795  0.20435  0.91188  1.0000
  H   H305      1.0  0.09689  0.16110  0.92250  1.0000
  H   H306      1.0  0.04738  0.14179  0.92818  1.0000
  H   H307      1.0  0.01207  0.11208  0.90635  1.0000
  H   H308      1.0  0.02706  0.10045  0.87891  1.0000
  H   H309      1.0  0.07651  0.11879  0.87317  1.0000
  H   H310      1.0  0.11176  0.29715  0.88075  1.0000
  H   H311      1.0  0.08015  0.24837  0.88777  1.0000
  H   H312      1.0  0.02214  0.98352  0.91997  1.0000
  C   C385      1.0  0.19327  0.31341  0.75818  1.0000
  C   C386      1.0  0.96801  0.33816  0.85705  1.0000
  C   C387      1.0  0.16605  0.97613  0.95384  1.0000
  H   H313      1.0  0.99309  0.33888  0.83587  1.0000
  C   C388      1.0  0.98297  0.22259  0.86187  1.0000
  C   C389      1.0  0.08682  0.26849  0.79256  1.0000
  C   C390      1.0  0.03325  0.99885  0.78193  1.0000
  C   C391      1.0  0.05277  0.23249  0.74673  1.0000
  H   H314      1.0  0.01769  0.98010  0.78748  1.0000
  H   H315      1.0  0.99891  0.20347  0.81659  1.0000
  C   C392      1.0  0.02915  0.29486  0.76127  1.0000
  H   H316      1.0  0.02073  0.29297  0.81390  1.0000
  H   H317      1.0  0.18833  0.20743  0.98462  1.0000
  C   C393      1.0  0.09890  0.00075  0.85091  1.0000
  C   C394      1.0  0.07166  0.26422  0.88454  1.0000
  P   P12       1.0  0.13418  0.31757  0.79865  1.0000
  H   H318      1.0  0.18621  0.27227  0.76967  1.0000
  C   C395      1.0  0.01686  0.31385  0.75583  1.0000
  C   C396      1.0  0.97953  0.28965  0.77525  1.0000
  C   C397      1.0  0.01660  0.27313  0.77355  1.0000
  C   C398      1.0  0.04687  0.27809  0.83143  1.0000
  S   S54       1.0  0.04018  0.07677  0.76181  1.0000
  C   C399      1.0  0.03200  0.27796  0.88155  1.0000
  H   H319      1.0  0.00507  0.22874  0.86112  1.0000
  C   C400      1.0  0.08069  0.23797  0.75202  1.0000
  H   H320      1.0  0.04293  0.32276  0.87691  1.0000
  C   C401      1.0  0.17991  0.35412  0.81843  1.0000
  H   H321      1.0  0.10834  0.31804  0.76321  1.0000
  C   C402      1.0  0.15183  0.34357  0.84950  1.0000
  C   C403      1.0  0.11072  0.28185  0.80365  1.0000
  C   C404      1.0  0.07897  0.02518  0.96644  1.0000
  H   H322      1.0  0.06063  0.29889  0.83546  1.0000
  C   C405      1.0  0.01660  0.00033  0.87611  1.0000
  C   C406      1.0  0.16671  0.07709  0.98436  1.0000
  H   H323      1.0  0.18928  0.37542  0.86065  1.0000
  S   S55       1.0  0.02448  0.20187  0.75429  1.0000
  H   H324      1.0  0.00907  0.00694  0.81650  1.0000
  C   C407      1.0  0.08930  0.00856  0.95778  1.0000
  C   C408      1.0  0.07886  0.22416  0.80844  1.0000
  C   C409      1.0  0.05552  0.01262  0.97634  1.0000
  C   C410      1.0  0.18720  0.09827  0.97510  1.0000
  C   C411      1.0  0.18760  0.09691  0.95687  1.0000
  C   C412      1.0  0.16698  0.07486  0.94782  1.0000
  C   C413      1.0  0.14589  0.05385  0.95701  1.0000
  C   C414      1.0  0.14646  0.05470  0.97545  1.0000
  P   P13       1.0  0.12012  0.02468  0.94538  1.0000
  C   C415      1.0  0.16474  0.29251  0.78291  1.0000
  C   C416      1.0  0.11109  0.03793  0.92409  1.0000
  C   C417      1.0  0.08953  0.04789  0.92206  1.0000
  C   C418      1.0  0.08337  0.05905  0.90571  1.0000
  C   C419      1.0  0.09868  0.06038  0.89127  1.0000
  C   C420      1.0  0.12025  0.05067  0.89320  1.0000
  C   C421      1.0  0.12654  0.03963  0.90953  1.0000
  H   H325      1.0  0.19567  0.35450  0.74909  1.0000
  S   S56       1.0  0.15417  0.46031  0.85501  1.0000
  C   C422      1.0  0.15850  0.31644  0.78344  1.0000
  C   C423      1.0  0.11602  0.33848  0.78802  1.0000
  C   C424      1.0  0.17035  0.33903  0.77138  1.0000
  C   C425      1.0  0.13487  0.99903  0.94292  1.0000
  C   C426      1.0  0.18754  0.33744  0.75878  1.0000
  H   H326      1.0  0.00713  0.02291  0.78011  1.0000
  C   C427      1.0  0.15243  0.33418  0.81868  1.0000
  H   H327      1.0  0.98530  0.04321  0.74802  1.0000
  H   H328      1.0  0.10831  0.22485  0.83009  1.0000
  S   S57       1.0  0.99224  0.11888  0.76359  1.0000
  H   H329      1.0  0.97269  0.26298  0.83265  1.0000
  H   H330      1.0  0.20381  0.11314  0.94977  1.0000
  H   H331      1.0  0.16770  0.07423  0.93371  1.0000
  H   H332      1.0  0.16569  0.35760  0.77125  1.0000
  H   H333      1.0  0.07752  0.04734  0.93304  1.0000
  H   H334      1.0  0.06679  0.06679  0.90429  1.0000
  H   H335      1.0  0.09403  0.06916  0.87864  1.0000
  Fe  Fe27      1.0  0.02069  0.16256  0.77192  1.0000
  H   H336      1.0  0.14368  0.03270  0.91081  1.0000
  H   H337      1.0  0.15583  0.27466  0.79187  1.0000
  H   H338      1.0  0.02629  0.25840  0.77743  1.0000
  C   C428      1.0  0.10376  0.37924  0.78729  1.0000
  C   C429      1.0  0.10636  0.33450  0.77023  1.0000
  C   C430      1.0  0.16997  0.18810  0.98418  1.0000
  C   C431      1.0  0.01213  0.97545  0.83604  1.0000
  H   H339      1.0  0.04203  0.04995  0.85998  1.0000
  H   H340      1.0  0.09310  0.33442  0.87576  1.0000
  S   S58       1.0  0.06148  0.15450  0.83331  1.0000
  C   C432      1.0  0.07567  0.97922  0.95913  1.0000
  H   H341      1.0  0.06969  0.25730  0.84748  1.0000
  H   H342      1.0  0.00784  0.30204  0.84987  1.0000
  C   C433      1.0  0.11834  0.26593  0.81729  1.0000
  H   H343      1.0  0.08084  0.27977  0.78159  1.0000
  H   H344      1.0  0.13229  0.05189  0.88206  1.0000
  H   H345      1.0  0.08923  0.04786  0.96570  1.0000
  C   C434      1.0  0.03846  0.99440  0.87036  1.0000
  C   C435      1.0  0.02672  0.98672  0.90618  1.0000
  C   C436      1.0  0.05457  0.03365  0.83820  1.0000
  C   C437      1.0  0.06585  0.04059  0.82157  1.0000
  C   C438      1.0  0.07232  0.06752  0.81392  1.0000
  C   C439      1.0  0.06745  0.08770  0.82271  1.0000
  C   C440      1.0  0.05660  0.08116  0.83933  1.0000
  C   C441      1.0  0.05040  0.05434  0.84716  1.0000
  H   H346      1.0  0.10393  0.39734  0.79369  1.0000
  H   H347      1.0  0.02977  0.23622  0.88903  1.0000
  Fe  Fe28      1.0  0.03443  0.13991  0.80818  1.0000
  C   C442      1.0  0.07893  0.31272  0.87768  1.0000
  C   C443      1.0  0.04310  0.25741  0.88521  1.0000
  H   H348      1.0  0.20598  0.31196  0.74808  1.0000
  C   C444      1.0  0.09463  0.37530  0.76950  1.0000
  S   S59       1.0  0.00157  0.15585  0.79826  1.0000
  C   C445      1.0  0.00645  0.24769  0.81387  1.0000
  H   H349      1.0  0.05277  0.22943  0.78631  1.0000
  C   C446      1.0  0.98524  0.29681  0.87326  1.0000
  C   C447      1.0  0.08951  0.29178  0.88054  1.0000
  H   H350      1.0  0.19083  0.35930  0.80641  1.0000
  C   C448      1.0  0.02424  0.27463  0.81925  1.0000
  H   H351      1.0  0.05248  0.09685  0.84590  1.0000
  H   H352      1.0  0.21400  0.38486  0.83314  1.0000
  H   H353      1.0  0.06896  0.02497  0.81424  1.0000
  H   H354      1.0  0.98021  0.22090  0.76365  1.0000
  H   H355      1.0  0.07176  0.10834  0.81651  1.0000
  H   H356      1.0  0.10265  0.01697  0.86013  1.0000
  H   H357      1.0  0.12278  0.36557  0.81000  1.0000
  C   C449      1.0  0.17918  0.36344  0.84910  1.0000
  H   H358      1.0  0.11690  0.31444  0.83465  1.0000
  C   C450      1.0  0.12460  0.97996  0.92927  1.0000
  H   H359      1.0  0.14090  0.34017  0.86145  1.0000
  C   C451      1.0  0.13841  0.32905  0.83432  1.0000
  H   H360      1.0  0.16306  0.01037  0.96640  1.0000
  C   C452      1.0  0.11447  0.36098  0.79654  1.0000
  H   H361      1.0  0.08043  0.07255  0.80093  1.0000
  C   C453      1.0  0.03439  0.22793  0.83295  1.0000
  S   S60       1.0  0.00799  0.09484  0.80280  1.0000
  H   H362      1.0  0.08581  0.22298  0.76067  1.0000
  H   H363      1.0  0.03855  0.20990  0.83813  1.0000
  C   C454      1.0  0.17131  0.46069  0.79083  1.0000
  C   C455      1.0  0.05912  0.99868  0.77835  1.0000
  H   H364      1.0  0.99418  0.00160  0.89828  1.0000
  H   H365      1.0  0.04842  0.29693  0.75593  1.0000
  H   H366      1.0  0.08757  0.39021  0.76214  1.0000
  H   H367      1.0  0.00756  0.30153  0.94375  1.0000
  C   C456      1.0  0.16491  0.46554  0.77286  1.0000
  C   C457      1.0  0.99963  0.98550  0.82156  1.0000
  Fe  Fe29      1.0  0.97617  0.11114  0.79066  1.0000
  C   C458      1.0  0.01184  0.22438  0.82072  1.0000
  C   C459      1.0  0.12077  0.99313  0.84740  1.0000
  C   C460      1.0  0.05361  0.98346  0.88269  1.0000
  H   H368      1.0  0.13156  0.03801  0.98308  1.0000
  P   P14       1.0  0.97762  0.24379  0.79789  1.0000
  H   H369      1.0  0.01468  0.30766  0.91177  1.0000
  C   C461      1.0  0.99419  0.30870  0.85661  1.0000
  C   C462      1.0  0.07224  0.98740  0.84261  1.0000
  C   C463      1.0  0.04218  0.98339  0.97764  1.0000
  H   H370      1.0  0.00353  0.00718  0.86669  1.0000
  H   H371      1.0  0.10492  0.11868  0.98116  1.0000
  H   H372      1.0  0.97878  0.25485  0.95666  1.0000
  H   H373      1.0  0.14123  0.00324  0.85398  1.0000
  C   C464      1.0  0.97435  0.19807  0.98337  1.0000
  C   C465      1.0  0.12294  0.13818  0.98225  1.0000
  H   H374      1.0  0.02661  0.33057  0.74621  1.0000
  H   H375      1.0  0.10794  0.98046  0.91994  1.0000
  H   H376      1.0  0.12358  0.26702  0.75048  1.0000
  H   H377      1.0  0.98252  0.32598  0.75853  1.0000
  H   H378      1.0  0.13754  0.47022  0.90319  1.0000
  C   C466      1.0  0.10213  0.26303  0.74619  1.0000
  H   H379      1.0  0.96584  0.97512  0.80150  1.0000
  C   C467      1.0  0.98577  0.32945  0.84860  1.0000
  C   C468      1.0  0.98129  0.25766  0.94255  1.0000
  H   H380      1.0  0.08958  0.35014  0.74707  1.0000
  C   C469      1.0  0.97328  0.23784  0.91370  1.0000
  C   C470      1.0  0.96688  0.30520  0.88149  1.0000
  C   C471      1.0  0.96914  0.23467  0.93177  1.0000
  C   C472      1.0  0.04776  0.97970  0.90049  1.0000
  C   C473      1.0  0.97240  0.23783  0.87155  1.0000
  C   C474      1.0  0.96728  0.20409  0.77215  1.0000
  H   H381      1.0  0.97322  0.18673  0.84603  1.0000
  H   H382      1.0  0.06934  0.97685  0.87870  1.0000
  H   H383      1.0  0.96675  0.17895  0.95824  1.0000
  C   C475      1.0  0.96485  0.19875  0.85312  1.0000
  H   H384      1.0  0.23709  0.47224  0.79724  1.0000
  H   H385      1.0  0.96475  0.21940  0.90584  1.0000
  C   C476      1.0  0.03178  0.93311  0.03332  1.0000
  H   H386      1.0  0.01412  0.96060  0.01907  1.0000
  H   H387      1.0  0.00900  0.96549  0.06609  1.0000
  C   C477      1.0  0.07655  0.95712  0.04917  1.0000
  C   C478      1.0  0.05826  0.96372  0.15523  1.0000
  C   C479      1.0  0.97746  0.78402  0.06722  1.0000
  H   H388      1.0  0.05534  0.91238  0.04902  1.0000
  C   C480      1.0  0.02230  0.87776  0.02111  1.0000
  C   C481      1.0  0.04874  0.88889  0.01416  1.0000
  C   C482      1.0  0.05408  0.93557  0.15410  1.0000
  C   C483      1.0  0.00490  0.90246  0.23120  1.0000
  C   C484      1.0  0.00957  0.94101  0.19030  1.0000
  C   C485      1.0  0.00127  0.95645  0.20125  1.0000
  H   H389      1.0  0.99535  0.79190  0.12625  1.0000
  C   C486      1.0  0.01341  0.95493  0.13939  1.0000
  P   P15       1.0  0.00524  0.90088  0.02526  1.0000
  H   H390      1.0  0.96681  0.95738  0.21445  1.0000
  H   H391      1.0  0.05899  0.82863  0.01093  1.0000
  C   C487      1.0  0.98788  0.90809  0.00508  1.0000
  P   P16       1.0  0.98906  0.96837  0.12824  1.0000
  H   H392      1.0  0.98838  0.83924  0.02877  1.0000
  C   C488      1.0  0.05435  0.93227  0.04447  1.0000
  H   H393      1.0  0.03110  0.94867  0.18707  1.0000
  C   C489      1.0  0.00910  0.84861  0.02408  1.0000
  H   H394      1.0  0.08244  0.88005  0.00535  1.0000
  H   H395      1.0  0.99689  0.78404  0.06327  1.0000
  C   C490      1.0  0.97926  0.88463  0.04122  1.0000
  H   H396      1.0  0.02307  0.76834  0.14321  1.0000
  H   H397      1.0  0.00097  0.71788  0.15212  1.0000
  C   C491      1.0  0.99046  0.91478  0.18448  1.0000
  C   C492      1.0  0.01123  0.92635  0.24088  1.0000
  H   H398      1.0  0.98350  0.94585  0.09296  1.0000
  C   C493      1.0  0.11455  0.95863  0.99483  1.0000
  H   H399      1.0  0.05910  0.91118  0.01121  1.0000
  H   H400      1.0  0.06980  0.92819  0.15983  1.0000
  C   C494      1.0  0.02984  0.91714  0.14534  1.0000
  C   C495      1.0  0.97163  0.78023  0.08506  1.0000
  H   H401      1.0  0.02675  0.89539  0.14427  1.0000
  C   C496      1.0  0.96598  0.91720  0.00572  1.0000
  C   C497      1.0  0.98874  0.72816  0.14468  1.0000
  H   H402      1.0  0.03200  0.94263  0.24104  1.0000
  C   C498      1.0  0.06205  0.87127  0.01076  1.0000
  C   C499      1.0  0.00974  0.92686  0.13780  1.0000
  C   C500      1.0  0.04889  0.84233  0.01394  1.0000
  C   C501      1.0  0.02242  0.83101  0.02054  1.0000
  C   C502      1.0  0.98440  0.89251  0.05887  1.0000
  C   C503      1.0  0.03121  0.95925  0.02762  1.0000
  H   H403      1.0  0.99164  0.91262  0.13050  1.0000
  H   H404      1.0  0.00438  0.90793  0.06344  1.0000
  H   H405      1.0  0.99741  0.90255  0.17659  1.0000
  H   H406      1.0  0.01188  0.80848  0.02243  1.0000
  C   C504      1.0  0.98544  0.76981  0.12999  1.0000
  H   H407      1.0  0.09451  0.95637  0.05715  1.0000
  C   C505      1.0  0.00119  0.75657  0.13964  1.0000
  C   C506      1.0  0.13735  0.95118  0.99369  1.0000
  H   H408      1.0  0.02083  0.90019  0.22399  1.0000
  C   C507      1.0  0.99907  0.96708  0.09284  1.0000
  H   H409      1.0  0.98685  0.77732  0.09462  1.0000
  C   C508      1.0  0.97337  0.94578  0.20581  1.0000
  H   H410      1.0  0.96762  0.88652  0.08445  1.0000
  C   C509      1.0  0.97765  0.88231  0.22998  1.0000
  H   H411      1.0  0.18126  0.96303  0.00055  1.0000
  C   C510      1.0  0.16349  0.96860  0.00128  1.0000
  H   H412      1.0  0.97239  0.86452  0.22172  1.0000
  C   C511      1.0  0.03801  0.97336  0.14792  1.0000
  H   H413      1.0  0.15208  0.50294  0.99704  1.0000
  Fe  Fe30      1.0  0.08595  0.56374  0.43161  1.0000
  S   S61       1.0  0.09051  0.54103  0.45733  1.0000
  S   S62       1.0  0.04419  0.55501  0.41507  1.0000
  Fe  Fe31      1.0  0.14672  0.61006  0.43784  1.0000
  S   S63       1.0  0.15339  0.59045  0.46396  1.0000
  S   S64       1.0  0.18502  0.64507  0.42689  1.0000
  Fe  Fe32      1.0  0.13443  0.55010  0.44978  1.0000
  S   S65       1.0  0.15827  0.52155  0.45435  1.0000
  H   H414      1.0  0.28322  0.76387  0.38185  1.0000
  S   S66       1.0  0.12865  0.56963  0.42327  1.0000
  S   S67       1.0  0.10390  0.60668  0.44330  1.0000
  Fe  Fe33      1.0  0.36002  0.83617  0.43502  1.0000
  S   S68       1.0  0.39434  0.82127  0.44391  1.0000
  S   S69       1.0  0.36303  0.87695  0.41926  1.0000
  Fe  Fe34      1.0  0.31527  0.78347  0.45286  1.0000
  S   S70       1.0  0.34690  0.76631  0.46365  1.0000
  S   S71       1.0  0.26995  0.75977  0.45977  1.0000
  Fe  Fe35      1.0  0.37436  0.81078  0.46999  1.0000
  Fe  Fe36      1.0  0.36378  0.77784  0.43692  1.0000
  S   S72       1.0  0.37012  0.74505  0.42163  1.0000
  S   S73       1.0  0.34135  0.82749  0.46159  1.0000
  S   S74       1.0  0.33089  0.79334  0.42564  1.0000
  H   H415      1.0  0.32602  0.70988  0.39832  1.0000
  C   C512      1.0  0.30730  0.73925  0.39025  1.0000
  Fe  Fe37      1.0  0.36700  0.54112  0.43530  1.0000
  S   S75       1.0  0.37913  0.56036  0.46199  1.0000
  S   S76       1.0  0.39747  0.52119  0.42884  1.0000
  Fe  Fe38      1.0  0.31105  0.54906  0.43407  1.0000
  S   S77       1.0  0.31936  0.56716  0.46081  1.0000
  S   S78       1.0  0.27198  0.54809  0.41801  1.0000
  Fe  Fe39      1.0  0.36196  0.59239  0.45150  1.0000
  S   S79       1.0  0.38211  0.63723  0.46038  1.0000
  Fe  Fe40      1.0  0.33563  0.53374  0.46883  1.0000
  H   H416      1.0  0.42434  0.89642  0.42421  1.0000
  S   S80       1.0  0.35344  0.57593  0.42416  1.0000
  S   S81       1.0  0.32362  0.51303  0.44280  1.0000
  H   H417      1.0  0.98260  0.47716  0.27400  1.0000
  C   C513      1.0  0.32157  0.91242  0.43213  1.0000
  H   H418      1.0  0.37057  0.91002  0.48638  1.0000
  C   C514      1.0  0.40969  0.51036  0.41053  1.0000
  C   C515      1.0  0.40485  0.51846  0.39303  1.0000
  C   C516      1.0  0.96435  0.94784  0.31537  1.0000
  H   H419      1.0  0.46251  0.94138  0.41564  1.0000
  H   H420      1.0  0.36812  0.63990  0.36495  1.0000
  C   C517      1.0  0.37182  0.71452  0.43275  1.0000
  C   C518      1.0  0.37908  0.71397  0.45086  1.0000
  C   C519      1.0  0.38171  0.68993  0.45917  1.0000
  C   C520      1.0  0.37635  0.66598  0.44958  1.0000
  C   C521      1.0  0.36834  0.66620  0.43158  1.0000
  C   C522      1.0  0.36657  0.69057  0.42314  1.0000
  H   H421      1.0  0.38365  0.73244  0.45830  1.0000
  C   C523      1.0  0.98312  0.50007  0.34630  1.0000
  H   H422      1.0  0.36449  0.64798  0.42405  1.0000
  H   H423      1.0  0.36127  0.69086  0.40910  1.0000
  C   C524      1.0  0.19036  0.53027  0.44451  1.0000
  C   C525      1.0  0.21104  0.52205  0.45313  1.0000
  C   C526      1.0  0.23652  0.52824  0.44546  1.0000
  C   C527      1.0  0.24114  0.54179  0.42877  1.0000
  C   C528      1.0  0.22042  0.54985  0.42012  1.0000
  C   C529      1.0  0.19536  0.54455  0.42806  1.0000
  H   H424      1.0  0.20732  0.51084  0.46580  1.0000
  H   H425      1.0  0.25222  0.52174  0.45221  1.0000
  H   H426      1.0  0.22374  0.56012  0.40717  1.0000
  H   H427      1.0  0.17952  0.55071  0.42122  1.0000
  C   C530      1.0  0.20920  0.67526  0.43764  1.0000
  C   C531      1.0  0.20159  0.68765  0.45091  1.0000
  C   C532      1.0  0.22054  0.71336  0.45768  1.0000
  C   C533      1.0  0.24748  0.72663  0.45156  1.0000
  C   C534      1.0  0.25544  0.71366  0.43877  1.0000
  C   C535      1.0  0.23628  0.68834  0.43174  1.0000
  H   H428      1.0  0.18078  0.67791  0.45549  1.0000
  H   H429      1.0  0.21413  0.72329  0.46750  1.0000
  H   H430      1.0  0.27613  0.72345  0.43397  1.0000
  H   H431      1.0  0.24250  0.67886  0.42163  1.0000
  C   C536      1.0  0.40732  0.95614  0.39880  1.0000
  C   C537      1.0  0.38564  0.93067  0.40396  1.0000
  C   C538      1.0  0.39143  0.90883  0.41323  1.0000
  C   C539      1.0  0.41939  0.91300  0.41731  1.0000
  H   H432      1.0  0.39331  0.53177  0.39024  1.0000
  H   H433      1.0  0.36418  0.92781  0.40063  1.0000
  H   H434      1.0  0.23727  0.64010  0.45553  1.0000
  C   C540      1.0  0.28271  0.74292  0.38475  1.0000
  C   C541      1.0  0.98790  0.52997  0.40499  1.0000
  C   C542      1.0  0.01225  0.52535  0.41065  1.0000
  C   C543      1.0  0.01083  0.49777  0.41134  1.0000
  C   C544      1.0  0.98590  0.47551  0.40568  1.0000
  H   H435      1.0  0.98858  0.55113  0.40444  1.0000
  H   H436      1.0  0.45464  0.53973  0.44487  1.0000
  H   H437      1.0  0.32692  0.75726  0.39169  1.0000
  C   C545      1.0  0.34109  0.66246  0.36441  1.0000
  C   C546      1.0  0.44105  0.93858  0.41236  1.0000
  C   C547      1.0  0.35140  0.64242  0.37117  1.0000
  C   C548      1.0  0.10999  0.77104  0.38722  1.0000
  C   C549      1.0  0.12351  0.79404  0.37598  1.0000
  C   C550      1.0  0.15158  0.80145  0.37301  1.0000
  C   C551      1.0  0.16616  0.78591  0.38132  1.0000
  C   C552      1.0  0.15280  0.76291  0.39277  1.0000
  C   C553      1.0  0.12452  0.75546  0.39555  1.0000
  P   P17       1.0  0.17174  0.74267  0.40315  1.0000
  C   C554      1.0  0.15454  0.72290  0.42229  1.0000
  C   C555      1.0  0.17385  0.71869  0.38773  1.0000
  C   C556      1.0  0.17360  0.72484  0.36946  1.0000
  C   C557      1.0  0.17597  0.70626  0.35783  1.0000
  C   C558      1.0  0.17861  0.68147  0.36434  1.0000
  C   C559      1.0  0.17898  0.67530  0.38249  1.0000
  C   C560      1.0  0.17675  0.69390  0.39410  1.0000
  C   C561      1.0  0.16453  0.73216  0.43942  1.0000
  H   H438      1.0  0.02327  0.55295  0.37327  1.0000
  H   H439      1.0  0.04956  0.52237  0.37846  1.0000
  H   H440      1.0  0.03436  0.47801  0.36263  1.0000
  C   C562      1.0  0.13107  0.69771  0.42014  1.0000
  C   C563      1.0  0.20662  0.76602  0.41009  1.0000
  C   C564      1.0  0.22862  0.75686  0.41083  1.0000
  C   C565      1.0  0.25566  0.77495  0.41602  1.0000
  C   C566      1.0  0.26095  0.80212  0.42090  1.0000
  C   C567      1.0  0.23905  0.81122  0.42060  1.0000
  C   C568      1.0  0.21193  0.79322  0.41529  1.0000
  H   H441      1.0  0.08821  0.76525  0.38950  1.0000
  H   H442      1.0  0.11222  0.80610  0.36955  1.0000
  H   H443      1.0  0.16206  0.81925  0.36427  1.0000
  H   H444      1.0  0.18788  0.79186  0.37881  1.0000
  H   H445      1.0  0.11357  0.73775  0.40418  1.0000
  H   H446      1.0  0.17167  0.74390  0.36412  1.0000
  H   H447      1.0  0.17575  0.71106  0.34374  1.0000
  H   H448      1.0  0.18039  0.66702  0.35536  1.0000
  H   H449      1.0  0.18104  0.65612  0.38768  1.0000
  H   H450      1.0  0.17746  0.68905  0.40813  1.0000
  H   H451      1.0  0.18282  0.75122  0.44157  1.0000
  C   C569      1.0  0.39538  0.50327  0.48925  1.0000
  C   C570      1.0  0.99844  0.54598  0.47195  1.0000
  H   H452      1.0  0.99455  0.52675  0.26372  1.0000
  H   H453      1.0  0.12310  0.68998  0.40709  1.0000
  H   H454      1.0  0.22500  0.73560  0.40783  1.0000
  H   H455      1.0  0.27235  0.76745  0.41690  1.0000
  H   H456      1.0  0.28193  0.81583  0.42530  1.0000
  H   H457      1.0  0.24313  0.83211  0.42472  1.0000
  H   H458      1.0  0.19513  0.80044  0.41547  1.0000
  C   C571      1.0  0.99251  0.52564  0.35482  1.0000
  C   C572      1.0  0.97227  0.52926  0.30406  1.0000
  C   C573      1.0  0.42248  0.89459  0.47216  1.0000
  H   H459      1.0  0.35287  0.90675  0.45001  1.0000
  H   H460      1.0  0.15935  0.72338  0.46729  1.0000
  C   C574      1.0  0.12805  0.69127  0.45183  1.0000
  C   C575      1.0  0.99887  0.48338  0.34875  1.0000
  C   C576      1.0  0.42385  0.93902  0.45900  1.0000
  C   C577      1.0  0.40079  0.93654  0.46821  1.0000
  H   H461      1.0  0.35098  0.48933  0.40524  1.0000
  C   C578      1.0  0.15127  0.71639  0.45411  1.0000
  H   H462      1.0  0.99536  0.94925  0.25623  1.0000
  C   C579      1.0  0.43529  0.96040  0.40305  1.0000
  H   H463      1.0  0.41168  0.51637  0.36565  1.0000
  H   H464      1.0  0.37825  0.50854  0.48358  1.0000
  H   H465      1.0  0.33261  0.52634  0.39886  1.0000
  C   C580      1.0  0.22181  0.59740  0.46573  1.0000
  H   H466      1.0  0.34981  0.67548  0.35291  1.0000
  C   C581      1.0  0.38876  0.91281  0.47942  1.0000
  Fe  Fe41      1.0  0.10948  0.58390  0.46859  1.0000
  C   C582      1.0  0.02276  0.49137  0.36031  1.0000
  H   H467      1.0  0.31042  0.61551  0.40554  1.0000
  H   H468      1.0  0.29314  0.92401  0.41439  1.0000
  H   H469      1.0  0.02924  0.49371  0.41556  1.0000
  C   C583      1.0  0.98275  0.53842  0.28744  1.0000
  C   C584      1.0  0.11790  0.68203  0.43484  1.0000
  H   H470      1.0  0.34797  0.60991  0.39114  1.0000
  H   H471      1.0  0.00449  0.53935  0.44529  1.0000
  C   C585      1.0  0.99006  0.53328  0.45569  1.0000
  H   H472      1.0  0.45218  0.91995  0.45367  1.0000
  H   H473      1.0  0.43689  0.61659  0.47112  1.0000
  H   H474      1.0  0.12413  0.49625  0.48723  1.0000
  H   H475      1.0  0.40235  0.97250  0.39161  1.0000
  H   H476      1.0  0.98842  0.56019  0.28308  1.0000
  C   C586      1.0  0.37625  0.96815  0.48667  1.0000
  C   C587      1.0  0.23156  0.62639  0.46722  1.0000
  H   H477      1.0  0.21999  0.58875  0.45290  1.0000
  P   P18       1.0  0.38533  0.96238  0.46528  1.0000
  C   C588      1.0  0.41535  0.50969  0.37908  1.0000
  C   C589      1.0  0.98625  0.51960  0.27655  1.0000
  H   H478      1.0  0.20659  0.55711  0.47915  1.0000
  H   H479      1.0  0.31183  0.68130  0.36695  1.0000
  C   C590      1.0  0.31966  0.66583  0.37253  1.0000
  C   C591      1.0  0.01654  0.53367  0.36623  1.0000
  H   H480      1.0  0.38832  0.68998  0.47303  1.0000
  C   C592      1.0  0.43476  0.91822  0.46111  1.0000
  C   C593      1.0  0.21846  0.59486  0.36942  1.0000
  C   C594      1.0  0.19564  0.58821  0.37971  1.0000
  C   C595      1.0  0.19893  0.60134  0.39563  1.0000
  C   C596      1.0  0.22504  0.62079  0.40139  1.0000
  C   C597      1.0  0.24804  0.62762  0.39116  1.0000
  C   C598      1.0  0.24456  0.61469  0.37503  1.0000
  P   P19       1.0  0.28118  0.65410  0.39832  1.0000
  C   C599      1.0  0.28153  0.68876  0.39280  1.0000
  C   C600      1.0  0.28676  0.64904  0.42188  1.0000
  C   C601      1.0  0.30012  0.67196  0.43276  1.0000
  C   C602      1.0  0.30593  0.66757  0.45072  1.0000
  C   C603      1.0  0.29840  0.64029  0.45799  1.0000
  C   C604      1.0  0.28448  0.61738  0.44737  1.0000
  C   C605      1.0  0.27855  0.62172  0.42944  1.0000
  C   C606      1.0  0.30674  0.71231  0.39411  1.0000
  C   C607      1.0  0.25752  0.71957  0.38311  1.0000
  C   C608      1.0  0.25689  0.69258  0.38711  1.0000
  C   C609      1.0  0.30864  0.64944  0.38768  1.0000
  C   C610      1.0  0.34012  0.62558  0.38595  1.0000
  C   C611      1.0  0.31878  0.62896  0.39416  1.0000
  H   H481      1.0  0.21598  0.58450  0.35715  1.0000
  H   H482      1.0  0.17547  0.57268  0.37548  1.0000
  H   H483      1.0  0.18138  0.59622  0.40371  1.0000
  H   H484      1.0  0.22727  0.63038  0.41391  1.0000
  H   H485      1.0  0.26197  0.61965  0.36688  1.0000
  H   H486      1.0  0.30683  0.69330  0.42748  1.0000
  H   H487      1.0  0.31706  0.68548  0.45879  1.0000
  H   H488      1.0  0.30351  0.63685  0.47177  1.0000
  H   H489      1.0  0.27851  0.59615  0.45291  1.0000
  H   H490      1.0  0.26819  0.60368  0.42137  1.0000
  H   H491      1.0  0.23844  0.72239  0.37888  1.0000
  H   H492      1.0  0.23712  0.67488  0.38600  1.0000
  C   C612      1.0  0.29024  0.49731  0.39373  1.0000
  C   C613      1.0  0.97035  0.92436  0.29055  1.0000
  H   H493      1.0  0.42158  0.52509  0.46857  1.0000
  C   C614      1.0  0.42505  0.49324  0.41377  1.0000
  C   C615      1.0  0.34389  0.92153  0.44483  1.0000
  H   H494      1.0  0.42893  0.65353  0.48540  1.0000
  H   H495      1.0  0.31389  0.89104  0.42783  1.0000
  H   H496      1.0  0.43037  0.87802  0.47341  1.0000
  C   C616      1.0  0.97946  0.49165  0.28232  1.0000
  H   H497      1.0  0.45766  0.58589  0.43281  1.0000
  H   H498      1.0  0.42913  0.48692  0.42721  1.0000
  H   H499      1.0  0.99626  0.93143  0.31480  1.0000
  C   C617      1.0  0.31007  0.93104  0.42448  1.0000
  C   C618      1.0  0.31867  0.50449  0.39794  1.0000
  C   C619      1.0  0.35500  0.94951  0.44997  1.0000
  H   H500      1.0  0.97017  0.54418  0.31252  1.0000
  C   C620      1.0  0.43051  0.49236  0.38229  1.0000
  C   C621      1.0  0.03147  0.51642  0.36914  1.0000
  H   H501      1.0  0.43306  0.95644  0.44982  1.0000
  H   H502      1.0  0.24180  0.66013  0.48468  1.0000
  H   H503      1.0  0.98125  0.53931  0.35285  1.0000
  H   H504      1.0  0.11809  0.67873  0.46321  1.0000
  C   C622      1.0  0.32089  0.95888  0.42954  1.0000
  C   C623      1.0  0.39954  0.89197  0.48134  1.0000
  C   C624      1.0  0.43514  0.48406  0.39978  1.0000
  H   H505      1.0  0.01941  0.56169  0.47416  1.0000
  C   C625      1.0  0.97972  0.53863  0.48526  1.0000
  C   C626      1.0  0.23397  0.63759  0.48372  1.0000
  C   C627      1.0  0.42028  0.51281  0.48079  1.0000
  C   C628      1.0  0.34331  0.96812  0.44218  1.0000
  C   C629      1.0  0.97872  0.93433  0.30759  1.0000
  C   C630      1.0  0.21400  0.57951  0.48066  1.0000
  C   C631      1.0  0.96896  0.48242  0.29893  1.0000
  C   C632      1.0  0.99036  0.93006  0.24942  1.0000
  H   H506      1.0  0.10000  0.66245  0.43309  1.0000
  H   H507      1.0  0.28936  0.80876  0.48553  1.0000
  H   H508      1.0  0.98134  0.91343  0.28489  1.0000
  H   H509      1.0  0.36367  0.71431  0.48948  1.0000
  H   H510      1.0  0.28208  0.51363  0.39149  1.0000
  H   H511      1.0  0.31229  0.97346  0.42339  1.0000
  C   C633      1.0  0.43375  0.61445  0.48513  1.0000
  H   H512      1.0  0.97080  0.95552  0.32857  1.0000
  H   H513      1.0  0.20052  0.67963  0.48979  1.0000
  C   C634      1.0  0.44288  0.50654  0.48811  1.0000
  S   S82       1.0  0.44292  0.48180  0.36394  1.0000
  C   C635      1.0  0.96483  0.50108  0.30977  1.0000
  C   C636      1.0  0.32906  0.48349  0.40150  1.0000
  H   H514      1.0  0.43563  0.57363  0.48823  1.0000
  H   H515      1.0  0.38976  0.87349  0.48970  1.0000
  P   P20       1.0  0.18396  0.89001  0.65817  1.0000
  C   C637      1.0  0.14232  0.94276  0.64898  1.0000
  Fe  Fe42      1.0  0.18082  0.78099  0.67724  1.0000
  S   S83       1.0  0.17868  0.74127  0.69213  1.0000
  S   S84       1.0  0.20740  0.79391  0.65313  1.0000
  Fe  Fe43      1.0  0.13495  0.78520  0.69888  1.0000
  S   S85       1.0  0.12948  0.74525  0.71457  1.0000
  S   S86       1.0  0.11275  0.81481  0.70288  1.0000
  Fe  Fe44      1.0  0.17613  0.76195  0.71644  1.0000
  Fe  Fe45      1.0  0.13206  0.72705  0.68888  1.0000
  S   S87       1.0  0.10896  0.67998  0.68403  1.0000
  S   S88       1.0  0.18201  0.80300  0.70193  1.0000
  S   S89       1.0  0.13389  0.76580  0.67278  1.0000
  Fe  Fe46      1.0  0.37029  0.87281  0.58220  1.0000
  S   S90       1.0  0.41304  0.90707  0.58101  1.0000
  S   S91       1.0  0.34979  0.83732  0.56344  1.0000
  Fe  Fe47      1.0  0.35522  0.89507  0.61415  1.0000
  S   S92       1.0  0.39696  0.93184  0.61529  1.0000
  S   S93       1.0  0.32485  0.89092  0.63532  1.0000
  Fe  Fe48      1.0  0.39228  0.93657  0.58564  1.0000
  Fe  Fe49      1.0  0.41502  0.90012  0.61068  1.0000
  C   C638      1.0  0.42920  0.63544  0.49331  1.0000
  S   S94       1.0  0.34891  0.90231  0.58487  1.0000
  S   S95       1.0  0.37395  0.86334  0.61144  1.0000
  Fe  Fe50      1.0  0.02659  0.50833  0.62082  1.0000
  S   S96       1.0  0.99536  0.52894  0.61979  1.0000
  C   C639      1.0  0.38637  0.77266  0.56041  1.0000
  Fe  Fe51      1.0  0.04549  0.53175  0.58416  1.0000
  S   S97       1.0  0.01649  0.55423  0.58075  1.0000
  S   S98       1.0  0.07492  0.52903  0.56493  1.0000
  Fe  Fe52      1.0  0.03015  0.56694  0.60896  1.0000
  S   S99       1.0  0.04246  0.61294  0.61559  1.0000
  H   H516      1.0  0.27441  0.67533  0.73036  1.0000
  S   S100      1.0  0.06142  0.54705  0.61135  1.0000
  H   H517      1.0  0.24236  0.74032  0.72595  1.0000
  S   S101      1.0  0.36012  0.56502  0.61427  1.0000
  S   S102      1.0  0.41704  0.56506  0.60057  1.0000
  Fe  Fe53      1.0  0.40372  0.57517  0.62582  1.0000
  S   S103      1.0  0.41668  0.61884  0.63717  1.0000
  Fe  Fe54      1.0  0.37249  0.55214  0.59023  1.0000
  S   S104      1.0  0.36139  0.57129  0.56479  1.0000
  C   C640      1.0  0.40106  0.78517  0.57586  1.0000
  H   H518      1.0  0.14025  0.83854  0.67234  1.0000
  C   C641      1.0  0.44145  0.63884  0.65369  1.0000
  H   H519      1.0  0.41807  0.77885  0.60172  1.0000
  C   C642      1.0  0.26393  0.52214  0.69004  1.0000
  H   H520      1.0  0.07405  0.48460  0.60043  1.0000
  H   H521      1.0  0.15454  0.87909  0.69068  1.0000
  C   C643      1.0  0.33577  0.64906  0.53010  1.0000
  C   C644      1.0  0.43924  0.66321  0.65919  1.0000
  P   P21       1.0  0.16454  0.47853  0.61987  1.0000
  H   H522      1.0  0.34496  0.51192  0.55803  1.0000
  C   C645      1.0  0.23327  0.92825  0.64435  1.0000
  C   C646      1.0  0.24515  0.50158  0.60615  1.0000
  C   C647      1.0  0.09130  0.66198  0.66460  1.0000
  C   C648      1.0  0.08400  0.63281  0.66426  1.0000
  C   C649      1.0  0.06956  0.61753  0.64931  1.0000
  C   C650      1.0  0.06174  0.63119  0.63458  1.0000
  C   C651      1.0  0.06899  0.66034  0.63496  1.0000
  C   C652      1.0  0.08369  0.67565  0.64983  1.0000
  H   H523      1.0  0.08941  0.62193  0.67569  1.0000
  H   H524      1.0  0.06408  0.59513  0.64929  1.0000
  H   H525      1.0  0.06299  0.67115  0.62370  1.0000
  H   H526      1.0  0.08885  0.69798  0.64993  1.0000
  C   C653      1.0  0.24147  0.81952  0.64946  1.0000
  C   C654      1.0  0.25384  0.81896  0.63384  1.0000
  C   C655      1.0  0.27994  0.83984  0.62971  1.0000
  C   C656      1.0  0.29379  0.86199  0.64099  1.0000
  C   C657      1.0  0.28164  0.86227  0.65678  1.0000
  C   C658      1.0  0.25584  0.84102  0.66110  1.0000
  H   H527      1.0  0.24295  0.80247  0.62472  1.0000
  H   H528      1.0  0.28886  0.83935  0.61749  1.0000
  H   H529      1.0  0.29210  0.87929  0.66560  1.0000
  H   H530      1.0  0.24674  0.84163  0.67320  1.0000
  C   C659      1.0  0.09546  0.81975  0.72088  1.0000
  C   C660      1.0  0.14256  0.49972  0.49602  1.0000
  H   H531      1.0  0.35368  0.55568  0.65710  1.0000
  H   H532      1.0  0.18983  0.53797  0.62924  1.0000
  H   H533      1.0  0.04031  0.47642  0.54443  1.0000
  C   C661      1.0  0.08760  0.84290  0.72023  1.0000
  C   C662      1.0  0.37709  0.74365  0.55897  1.0000
  C   C663      1.0  0.15573  0.96339  0.66130  1.0000
  H   H534      1.0  0.09244  0.85750  0.70895  1.0000
  C   C664      1.0  0.33884  0.52438  0.51346  1.0000
  C   C665      1.0  0.33803  0.50940  0.52965  1.0000
  C   C666      1.0  0.34603  0.52358  0.54557  1.0000
  C   C667      1.0  0.35430  0.55271  0.54529  1.0000
  C   C668      1.0  0.35533  0.56757  0.52912  1.0000
  C   C669      1.0  0.34803  0.55358  0.51320  1.0000
  C   C670      1.0  0.23617  0.51853  0.68570  1.0000
  H   H535      1.0  0.36162  0.58998  0.52898  1.0000
  H   H536      1.0  0.34885  0.56529  0.50078  1.0000
  C   C671      1.0  0.38821  0.82923  0.51349  1.0000
  C   C672      1.0  0.35952  0.82182  0.51371  1.0000
  C   C673      1.0  0.34814  0.82522  0.52900  1.0000
  C   C674      1.0  0.36539  0.83699  0.54392  1.0000
  C   C675      1.0  0.39429  0.84572  0.54344  1.0000
  C   C676      1.0  0.40565  0.84152  0.52829  1.0000
  C   C677      1.0  0.44219  0.84633  0.63267  1.0000
  H   H537      1.0  0.32587  0.81868  0.52933  1.0000
  H   H538      1.0  0.40772  0.85464  0.55495  1.0000
  H   H539      1.0  0.42792  0.84747  0.52812  1.0000
  C   C678      1.0  0.07742  0.54612  0.54397  1.0000
  C   C679      1.0  0.08992  0.53835  0.53079  1.0000
  C   C680      1.0  0.09465  0.55340  0.51448  1.0000
  C   C681      1.0  0.08742  0.57666  0.51147  1.0000
  C   C682      1.0  0.07435  0.58399  0.52450  1.0000
  C   C683      1.0  0.06903  0.56854  0.54064  1.0000
  H   H540      1.0  0.09663  0.52111  0.53337  1.0000
  H   H541      1.0  0.10491  0.54775  0.50454  1.0000
  H   H542      1.0  0.06870  0.60196  0.52220  1.0000
  H   H543      1.0  0.05933  0.57457  0.55072  1.0000
  C   C684      1.0  0.13648  0.63769  0.56999  1.0000
  C   C685      1.0  0.10736  0.62591  0.56901  1.0000
  C   C686      1.0  0.09320  0.61519  0.58431  1.0000
  C   C687      1.0  0.10809  0.61607  0.60058  1.0000
  C   C688      1.0  0.13733  0.62736  0.60166  1.0000
  C   C689      1.0  0.15147  0.63845  0.58624  1.0000
  P   P22       1.0  0.15609  0.63072  0.62302  1.0000
  C   C690      1.0  0.15860  0.66273  0.63249  1.0000
  C   C691      1.0  0.13758  0.60039  0.63695  1.0000
  C   C692      1.0  0.12797  0.57330  0.63039  1.0000
  C   C693      1.0  0.11327  0.54978  0.64097  1.0000
  C   C694      1.0  0.10741  0.55313  0.65800  1.0000
  C   C695      1.0  0.11669  0.57998  0.66461  1.0000
  C   C696      1.0  0.13176  0.60354  0.65417  1.0000
  C   C697      1.0  0.17867  0.67450  0.64631  1.0000
  C   C698      1.0  0.18168  0.69998  0.65310  1.0000
  C   C699      1.0  0.16466  0.71383  0.64621  1.0000
  C   C700      1.0  0.14443  0.70209  0.63265  1.0000
  C   C701      1.0  0.14118  0.67653  0.62589  1.0000
  C   C702      1.0  0.19099  0.63286  0.62029  1.0000
  C   C703      1.0  0.19734  0.60882  0.62202  1.0000
  C   C704      1.0  0.22442  0.61091  0.61985  1.0000
  C   C705      1.0  0.24535  0.63697  0.61588  1.0000
  C   C706      1.0  0.23920  0.66096  0.61398  1.0000
  C   C707      1.0  0.21215  0.65893  0.61614  1.0000
  H   H544      1.0  0.14730  0.64641  0.55812  1.0000
  H   H545      1.0  0.09569  0.62540  0.55646  1.0000
  H   H546      1.0  0.07060  0.60669  0.58369  1.0000
  H   H547      1.0  0.09670  0.60861  0.61240  1.0000
  H   H548      1.0  0.17397  0.64807  0.58673  1.0000
  H   H549      1.0  0.13119  0.57034  0.61693  1.0000
  H   H550      1.0  0.10533  0.52894  0.63577  1.0000
  H   H551      1.0  0.09500  0.53488  0.66586  1.0000
  H   H552      1.0  0.11155  0.58264  0.67766  1.0000
  H   H553      1.0  0.13799  0.62412  0.65944  1.0000
  H   H554      1.0  0.19203  0.66404  0.65180  1.0000
  H   H555      1.0  0.19715  0.70913  0.66375  1.0000
  H   H556      1.0  0.16699  0.73359  0.65146  1.0000
  H   H557      1.0  0.13090  0.71264  0.62757  1.0000
  H   H558      1.0  0.12494  0.66773  0.61563  1.0000
  H   H559      1.0  0.18159  0.58846  0.62509  1.0000
  H   H560      1.0  0.22921  0.59231  0.62136  1.0000
  H   H561      1.0  0.26637  0.63859  0.61435  1.0000
  H   H562      1.0  0.25540  0.68123  0.61096  1.0000
  H   H563      1.0  0.20776  0.67777  0.61457  1.0000
  C   C708      1.0  0.40643  0.76869  0.58990  1.0000
  H   H564      1.0  0.26862  0.53527  0.58858  1.0000
  S   S105      1.0  0.09676  0.59865  0.49240  1.0000
  H   H565      1.0  0.43647  0.80279  0.63562  1.0000
  C   C709      1.0  0.32202  0.69584  0.49832  1.0000
  C   C710      1.0  0.44220  0.69460  0.61538  1.0000
  C   C711      1.0  0.21976  0.87967  0.63720  1.0000
  H   H566      1.0  0.24746  0.87138  0.62122  1.0000
  H   H567      1.0  0.41745  0.60415  0.53442  1.0000
  C   C712      1.0  0.23696  0.70122  0.50677  1.0000
  C   C713      1.0  0.25778  0.70733  0.72610  1.0000
  C   C714      1.0  0.27179  0.81209  0.50946  1.0000
  C   C715      1.0  0.20568  0.66903  0.53432  1.0000
  C   C716      1.0  0.08414  0.60664  0.72625  1.0000
  C   C717      1.0  0.41137  0.63946  0.55655  1.0000
  C   C718      1.0  0.42209  0.63695  0.57376  1.0000
  C   C719      1.0  0.13750  0.83900  0.65815  1.0000
  H   H568      1.0  0.42194  0.66850  0.65397  1.0000
  C   C720      1.0  0.28351  0.79966  0.49858  1.0000
  H   H569      1.0  0.35550  0.50319  0.70469  1.0000
  H   H570      1.0  0.39066  0.62502  0.55247  1.0000
  H   H571      1.0  0.40967  0.62065  0.58284  1.0000
  C   C721      1.0  0.24339  0.88728  0.62758  1.0000
  C   C722      1.0  0.19404  0.66589  0.51696  1.0000
  C   C723      1.0  0.14618  0.49546  0.66789  1.0000
  C   C724      1.0  0.21556  0.59050  0.49724  1.0000
  C   C725      1.0  0.38207  0.72704  0.57307  1.0000
  C   C726      1.0  0.39640  0.73936  0.58879  1.0000
  C   C727      1.0  0.45746  0.87343  0.63851  1.0000
  P   P23       1.0  0.40271  0.71805  0.60723  1.0000
  C   C728      1.0  0.43670  0.71679  0.60657  1.0000
  C   C729      1.0  0.40101  0.73256  0.62785  1.0000
  C   C730      1.0  0.38334  0.74692  0.62901  1.0000
  C   C731      1.0  0.38235  0.75844  0.64489  1.0000
  C   C732      1.0  0.39860  0.75531  0.65980  1.0000
  C   C733      1.0  0.41558  0.74039  0.65890  1.0000
  C   C734      1.0  0.41692  0.72917  0.64301  1.0000
  H   H572      1.0  0.29731  0.62465  0.51567  1.0000
  C   C735      1.0  0.37693  0.68243  0.60642  1.0000
  C   C736      1.0  0.35558  0.67241  0.61822  1.0000
  C   C737      1.0  0.33697  0.64429  0.61825  1.0000
  C   C738      1.0  0.33938  0.62604  0.60644  1.0000
  C   C739      1.0  0.36028  0.63591  0.59449  1.0000
  C   C740      1.0  0.37908  0.66394  0.59453  1.0000
  H   H573      1.0  0.25580  0.50125  0.65246  1.0000
  C   C741      1.0  0.19295  0.88122  0.68065  1.0000
  H   H574      1.0  0.37446  0.70466  0.57165  1.0000
  C   C742      1.0  0.35226  0.55916  0.67081  1.0000
  H   H575      1.0  0.37070  0.74973  0.61763  1.0000
  H   H576      1.0  0.36948  0.77037  0.64559  1.0000
  H   H577      1.0  0.39858  0.76496  0.67198  1.0000
  C   C743      1.0  0.19776  0.49664  0.61017  1.0000
  H   H578      1.0  0.43070  0.71824  0.64271  1.0000
  H   H579      1.0  0.42604  0.67771  0.62212  1.0000
  C   C744      1.0  0.20787  0.87102  0.71602  1.0000
  H   H580      1.0  0.35373  0.68593  0.62781  1.0000
  H   H581      1.0  0.32128  0.63636  0.62786  1.0000
  H   H582      1.0  0.32561  0.60402  0.60687  1.0000
  H   H583      1.0  0.36244  0.62148  0.58563  1.0000
  H   H584      1.0  0.39576  0.67104  0.58560  1.0000
  H   H585      1.0  0.01501  0.50675  0.53443  1.0000
  C   C745      1.0  0.36831  0.58863  0.69601  1.0000
  C   C746      1.0  0.25996  0.48258  0.65571  1.0000
  H   H586      1.0  0.42964  0.51037  0.57105  1.0000
  C   C747      1.0  0.22711  0.53389  0.59073  1.0000
  C   C748      1.0  0.24885  0.52467  0.59456  1.0000
  S   S106      1.0  0.40248  0.82248  0.49507  1.0000
  C   C749      1.0  0.45915  0.68080  0.67144  1.0000
  C   C750      1.0  0.06151  0.70477  0.71583  1.0000
  C   C751      1.0  0.35535  0.74211  0.50579  1.0000
  C   C752      1.0  0.33544  0.74606  0.51517  1.0000
  C   C753      1.0  0.30849  0.72517  0.51588  1.0000
  S   S107      1.0  0.03648  0.48800  0.64663  1.0000
  P   P24       1.0  0.28352  0.73078  0.52840  1.0000
  C   C754      1.0  0.24892  0.70439  0.52416  1.0000
  C   C755      1.0  0.29693  0.73100  0.55110  1.0000
  C   C756      1.0  0.29651  0.70597  0.55970  1.0000
  C   C757      1.0  0.30768  0.70606  0.57710  1.0000
  C   C758      1.0  0.31978  0.73123  0.58591  1.0000
  C   C759      1.0  0.32128  0.75637  0.57720  1.0000
  C   C760      1.0  0.31021  0.75633  0.55982  1.0000
  C   C761      1.0  0.38509  0.96906  0.51860  1.0000
  H   H587      1.0  0.27942  0.53353  0.68077  1.0000
  H   H588      1.0  0.15519  0.54441  0.49466  1.0000
  H   H589      1.0  0.37691  0.67086  0.54203  1.0000
  C   C762      1.0  0.23289  0.68846  0.53796  1.0000
  C   C763      1.0  0.27996  0.76318  0.52122  1.0000
  C   C764      1.0  0.26740  0.77530  0.53188  1.0000
  H   H590      1.0  0.38525  0.60029  0.67040  1.0000
  H   H591      1.0  0.44949  0.49708  0.54628  1.0000
  H   H592      1.0  0.32564  0.65587  0.53955  1.0000
  H   H593      1.0  0.26316  0.62470  0.74091  1.0000
  H   H594      1.0  0.37578  0.75887  0.50474  1.0000
  H   H595      1.0  0.34096  0.76554  0.52173  1.0000
  C   C765      1.0  0.18647  0.93979  0.67139  1.0000
  H   H596      1.0  0.28764  0.68644  0.55289  1.0000
  H   H597      1.0  0.30721  0.68671  0.58373  1.0000
  H   H598      1.0  0.32836  0.73138  0.59938  1.0000
  H   H599      1.0  0.33135  0.77613  0.58379  1.0000
  H   H600      1.0  0.31253  0.77627  0.55324  1.0000
  C   C766      1.0  0.27117  0.51046  0.70596  1.0000
  C   C767      1.0  0.36479  0.65749  0.53148  1.0000
  H   H601      1.0  0.36576  0.73403  0.54696  1.0000
  C   C768      1.0  0.08879  0.80102  0.73551  1.0000
  H   H602      1.0  0.24097  0.69143  0.55156  1.0000
  H   H603      1.0  0.26065  0.76589  0.54470  1.0000
  C   C769      1.0  0.45491  0.67746  0.54991  1.0000
  C   C770      1.0  0.31107  0.48242  0.70788  1.0000
  C   C771      1.0  0.15225  0.59576  0.53584  1.0000
  C   C772      1.0  0.14812  0.58253  0.55261  1.0000
  C   C773      1.0  0.16276  0.56587  0.55869  1.0000
  C   C774      1.0  0.18165  0.56251  0.54803  1.0000
  C   C775      1.0  0.18621  0.57603  0.53124  1.0000
  C   C776      1.0  0.17085  0.59215  0.52504  1.0000
  P   P25       1.0  0.20684  0.56737  0.51666  1.0000
  C   C777      1.0  0.23994  0.56966  0.52712  1.0000
  C   C778      1.0  0.18498  0.53197  0.51081  1.0000
  C   C779      1.0  0.19096  0.50901  0.51786  1.0000
  C   C780      1.0  0.15182  0.86027  0.62942  1.0000
  C   C781      1.0  0.17772  0.52584  0.63995  1.0000
  H   H604      1.0  0.39777  0.70559  0.51271  1.0000
  C   C782      1.0  0.42784  0.65927  0.54436  1.0000
  C   C783      1.0  0.25597  0.55821  0.51896  1.0000
  C   C784      1.0  0.28143  0.55934  0.52703  1.0000
  C   C785      1.0  0.29134  0.57245  0.54307  1.0000
  C   C786      1.0  0.27601  0.58476  0.55097  1.0000
  C   C787      1.0  0.25044  0.58357  0.54297  1.0000
  H   H605      1.0  0.19391  0.49996  0.69376  1.0000
  H   H606      1.0  0.40804  0.80769  0.57696  1.0000
  C   C788      1.0  0.07194  0.58591  0.71381  1.0000
  H   H607      1.0  0.27223  0.95717  0.63455  1.0000
  H   H608      1.0  0.26895  0.83114  0.50498  1.0000
  H   H609      1.0  0.45719  0.69951  0.67542  1.0000
  H   H610      1.0  0.13965  0.60733  0.53078  1.0000
  H   H611      1.0  0.13241  0.58387  0.56050  1.0000
  H   H612      1.0  0.15837  0.55453  0.57131  1.0000
  H   H613      1.0  0.19177  0.54838  0.55255  1.0000
  H   H614      1.0  0.17211  0.60080  0.51162  1.0000
  C   C789      1.0  0.00437  0.48706  0.54159  1.0000
  C   C790      1.0  0.20967  0.68199  0.50322  1.0000
  H   H615      1.0  0.42859  0.73848  0.67040  1.0000
  H   H616      1.0  0.45457  0.75571  0.59118  1.0000
  H   H617      1.0  0.03525  0.56380  0.69720  1.0000
  C   C791      1.0  0.37803  0.64845  0.51937  1.0000
  H   H618      1.0  0.29348  0.54993  0.52087  1.0000
  H   H619      1.0  0.31104  0.57322  0.54929  1.0000
  H   H620      1.0  0.28405  0.59515  0.56330  1.0000
  H   H621      1.0  0.23902  0.59353  0.54916  1.0000
  H   H622      1.0  0.22813  0.62872  0.51146  1.0000
  H   H623      1.0  0.24610  0.87271  0.70638  1.0000
  C   C792      1.0  0.45111  0.48812  0.55937  1.0000
  C   C793      1.0  0.36188  0.63144  0.50568  1.0000
  C   C794      1.0  0.15093  0.92061  0.64784  1.0000
  H   H624      1.0  0.44178  0.95592  0.55294  1.0000
  C   C795      1.0  0.33092  0.54244  0.69879  1.0000
  H   H625      1.0  0.25238  0.70364  0.71217  1.0000
  H   H626      1.0  0.31976  0.51866  0.67507  1.0000
  H   H627      1.0  0.09388  0.79984  0.62554  1.0000
  Fe  Fe55      1.0  0.98401  0.51425  0.59176  1.0000
  H   H628      1.0  0.38208  0.78547  0.54959  1.0000
  H   H629      1.0  0.17736  0.70435  0.72449  1.0000
  P   P26       1.0  0.41543  0.65850  0.52140  1.0000
  H   H630      1.0  0.96572  0.49276  0.54150  1.0000
  Fe  Fe56      1.0  0.34848  0.52076  0.62489  1.0000
  H   H631      1.0  0.15858  0.53522  0.67993  1.0000
  H   H632      1.0  0.19339  0.65674  0.54497  1.0000
  S   S108      1.0  0.42685  0.49231  0.60889  1.0000
  C   C796      1.0  0.33295  0.53826  0.68101  1.0000
  C   C797      1.0  0.46365  0.63199  0.66088  1.0000
  H   H633      1.0  0.42544  0.56754  0.51985  1.0000
  S   S109      1.0  0.32718  0.50625  0.49379  1.0000
  C   C798      1.0  0.44940  0.95821  0.53986  1.0000
  S   S110      1.0  0.39183  0.53110  0.63774  1.0000
  C   C799      1.0  0.26370  0.79989  0.52610  1.0000
  C   C800      1.0  0.11501  0.81735  0.65010  1.0000
  H   H634      1.0  0.12661  0.83794  0.60712  1.0000
  C   C801      1.0  0.17467  0.87788  0.69391  1.0000
  H   H635      1.0  0.08387  0.57500  0.70923  1.0000
  H   H636      1.0  0.15781  0.79983  0.73961  1.0000
  C   C802      1.0  0.17599  0.53972  0.65466  1.0000
  C   C803      1.0  0.36998  0.58431  0.67830  1.0000
  C   C804      1.0  0.28757  0.77528  0.50440  1.0000
  Fe  Fe57      1.0  0.40221  0.52021  0.61128  1.0000
  S   S111      1.0  0.35783  0.50702  0.59949  1.0000
  C   C805      1.0  0.16016  0.52453  0.66860  1.0000
  H   H637      1.0  0.13385  0.48358  0.67868  1.0000
  C   C806      1.0  0.31981  0.63159  0.51663  1.0000
  H   H638      1.0  0.07162  0.66946  0.71202  1.0000
  H   H639      1.0  0.34603  0.81263  0.50229  1.0000
  C   C807      1.0  0.42711  0.58678  0.51253  1.0000
  H   H640      1.0  0.20354  0.93889  0.68023  1.0000
  H   H641      1.0  0.12624  0.68779  0.72388  1.0000
  H   H642      1.0  0.18669  0.56227  0.65523  1.0000
  H   H643      1.0  0.37146  0.62400  0.49623  1.0000
  H   H644      1.0  0.34841  0.57144  0.72000  1.0000
  C   C808      1.0  0.16041  0.52708  0.50012  1.0000
  H   H645      1.0  0.42714  0.84316  0.62151  1.0000
  C   C809      1.0  0.30205  0.69972  0.50772  1.0000
  P   P27       1.0  0.30677  0.51439  0.71191  1.0000
  C   C810      1.0  0.42259  0.60777  0.52076  1.0000
  C   C811      1.0  0.15607  0.86069  0.64791  1.0000
  C   C812      1.0  0.44438  0.93451  0.53029  1.0000
  H   H646      1.0  0.20612  0.85766  0.63843  1.0000
  H   H647      1.0  0.25463  0.80954  0.53456  1.0000
  C   C813      1.0  0.41451  0.47984  0.51201  1.0000
  C   C814      1.0  0.22259  0.49191  0.71312  1.0000
  C   C815      1.0  0.05958  0.72289  0.72792  1.0000
  C   C816      1.0  0.20169  0.52000  0.59852  1.0000
  S   S112      1.0  0.45474  0.90315  0.62689  1.0000
  C   C817      1.0  0.17308  0.91893  0.65906  1.0000
  C   C818      1.0  0.43991  0.49584  0.57346  1.0000
  S   S113      1.0  0.30629  0.50945  0.63681  1.0000
  H   H648      1.0  0.17276  0.65128  0.51409  1.0000
  C   C819      1.0  0.44173  0.48451  0.59058  1.0000
  H   H649      1.0  0.22987  0.94441  0.65084  1.0000
  C   C820      1.0  0.33290  0.62281  0.50443  1.0000
  H   H650      1.0  0.45753  0.65210  0.59232  1.0000
  C   C821      1.0  0.42384  0.63246  0.51126  1.0000
  C   C822      1.0  0.21551  0.50333  0.69721  1.0000
  H   H651      1.0  0.24863  0.54807  0.50646  1.0000
  H   H652      1.0  0.10554  0.61149  0.73107  1.0000
  C   C823      1.0  0.34888  0.56779  0.70626  1.0000
  C   C824      1.0  0.44752  0.82349  0.64069  1.0000
  H   H653      1.0  0.10070  0.80085  0.65822  1.0000
  H   H654      1.0  0.18505  0.52739  0.59541  1.0000
  C   C825      1.0  0.44914  0.65473  0.57910  1.0000
  H   H655      1.0  0.38241  0.60803  0.70183  1.0000
  H   H656      1.0  0.20921  0.51199  0.52664  1.0000
  H   H657      1.0  0.28169  0.68295  0.50846  1.0000
  H   H658      1.0  0.45626  0.48351  0.50941  1.0000
  H   H659      1.0  0.33080  0.48678  0.52989  1.0000
  C   C826      1.0  0.25026  0.49552  0.71753  1.0000
  C   C827      1.0  0.22623  0.87437  0.70293  1.0000
  H   H660      1.0  0.06731  0.86508  0.73316  1.0000
  C   C828      1.0  0.11113  0.81688  0.63172  1.0000
  S   S114      1.0  0.01305  0.49117  0.59369  1.0000
  C   C829      1.0  0.41834  0.71125  0.50814  1.0000
  C   C830      1.0  0.45903  0.70102  0.50476  1.0000
  H   H661      1.0  0.29640  0.76589  0.49563  1.0000
  C   C831      1.0  0.18199  0.87251  0.71148  1.0000
  H   H662      1.0  0.22997  0.55171  0.58167  1.0000
  C   C832      1.0  0.43218  0.69275  0.51077  1.0000
  H   H663      1.0  0.16571  0.87693  0.62122  1.0000
  C   C833      1.0  0.26239  0.91513  0.62673  1.0000
  C   C834      1.0  0.11368  0.48253  0.60899  1.0000
  C   C835      1.0  0.12958  0.83832  0.62137  1.0000
  C   C836      1.0  0.14907  0.47705  0.50259  1.0000
  H   H664      1.0  0.24863  0.71392  0.49594  1.0000
  H   H665      1.0  0.09464  0.78314  0.73625  1.0000
  C   C837      1.0  0.06955  0.68274  0.72170  1.0000
  C   C838      1.0  0.45816  0.73828  0.59796  1.0000
  C   C839      1.0  0.06893  0.62123  0.73198  1.0000
  C   C840      1.0  0.16607  0.68893  0.73435  1.0000
  C   C841      1.0  0.43086  0.73722  0.49923  1.0000
  C   C842      1.0  0.39252  0.96580  0.50194  1.0000
  C   C843      1.0  0.34856  0.71708  0.49722  1.0000
  H   H666      1.0  0.23055  0.52692  0.67322  1.0000
  H   H667      1.0  0.43283  0.91373  0.53592  1.0000
  H   H668      1.0  0.21349  0.86682  0.72962  1.0000
  C   C844      1.0  0.27011  0.69135  0.73639  1.0000
  C   C845      1.0  0.22610  0.61976  0.49874  1.0000
  C   C846      1.0  0.21881  0.87938  0.68530  1.0000
  H   H669      1.0  0.28132  0.92061  0.61989  1.0000
  H   H670      1.0  0.23338  0.88185  0.67543  1.0000
  C   C847      1.0  0.28379  0.48067  0.64958  1.0000
  H   H671      1.0  0.14002  0.90477  0.63833  1.0000
  H   H672      1.0  0.41994  0.75125  0.49692  1.0000
  H   H673      1.0  0.00787  0.58877  0.70759  1.0000
  H   H674      1.0  0.32068  0.60890  0.49411  1.0000
  C   C848      1.0  0.16368  0.49659  0.63915  1.0000
  H   H675      1.0  0.05753  0.70823  0.70182  1.0000
  H   H676      1.0  0.16733  0.86907  0.72151  1.0000
  C   C849      1.0  0.25730  0.93563  0.63509  1.0000
  C   C850      1.0  0.21430  0.90017  0.64547  1.0000
  H   H677      1.0  0.05392  0.74033  0.72328  1.0000
  H   H678      1.0  0.37316  0.48000  0.51147  1.0000
  C   C851      1.0  0.07325  0.84725  0.73395  1.0000
  H   H679      1.0  0.12505  0.94380  0.64040  1.0000
  C   C852      1.0  0.02908  0.59359  0.71294  1.0000
  C   C853      1.0  0.04450  0.57952  0.70707  1.0000
  H   H680      1.0  0.07642  0.47488  0.56940  1.0000
  C   C854      1.0  0.43279  0.59016  0.49473  1.0000
  C   C855      1.0  0.17317  0.48167  0.51359  1.0000
  H   H681      1.0  0.02903  0.62522  0.72965  1.0000
  H   H682      1.0  0.39731  0.96662  0.53040  1.0000
  C   C856      1.0  0.33767  0.48338  0.70503  1.0000
  C   C857      1.0  0.25230  0.72811  0.73381  1.0000
  C   C858      1.0  0.04115  0.61424  0.72542  1.0000
  C   C859      1.0  0.31308  0.52120  0.73519  1.0000
  C   C860      1.0  0.13707  0.67980  0.73420  1.0000
  C   C861      1.0  0.17782  0.96191  0.67248  1.0000
  H   H683      1.0  0.98614  0.54888  0.49775  1.0000
  H   H684      1.0  0.25519  0.48613  0.72984  1.0000
  C   C862      1.0  0.07523  0.67824  0.73979  1.0000
  C   C863      1.0  0.45445  0.93764  0.51351  1.0000
  C   C864      1.0  0.97666  0.47915  0.54551  1.0000
  C   C865      1.0  0.09199  0.48133  0.59653  1.0000
  H   H685      1.0  0.26204  0.49444  0.60916  1.0000
  H   H686      1.0  0.20649  0.47981  0.72195  1.0000
  H   H687      1.0  0.11176  0.48583  0.62263  1.0000
  H   H688      1.0  0.41077  0.96111  0.50104  1.0000
  H   H689      1.0  0.29737  0.55425  0.73302  1.0000
  C   C866      1.0  0.14787  0.48155  0.65324  1.0000
  H   H690      1.0  0.45101  0.91919  0.50625  1.0000
  C   C867      1.0  0.21979  0.48760  0.61393  1.0000
  C   C868      1.0  0.13722  0.47902  0.60382  1.0000
  C   C869      1.0  0.39249  0.48699  0.50491  1.0000
  C   C870      1.0  0.09336  0.47596  0.57898  1.0000
  C   C871      1.0  0.43951  0.48933  0.50359  1.0000
  S   S115      1.0  0.20274  0.76036  0.74134  1.0000
  C   C872      1.0  0.45733  0.74501  0.49300  1.0000
  H   H691      1.0  0.31691  0.67647  0.49172  1.0000
  H   H692      1.0  0.33287  0.70821  0.92532  1.0000
  H   H693      1.0  0.02776  0.95956  0.74323  1.0000
  S   S116      1.0  0.99791  0.90953  0.79747  1.0000
  Fe  Fe58      1.0  0.03001  0.86394  0.77424  1.0000
  H   H694      1.0  0.12606  0.63376  0.76972  1.0000
  H   H695      1.0  0.39804  0.61771  0.90480  1.0000
  H   H696      1.0  0.30392  0.56247  0.76502  1.0000
  Fe  Fe59      1.0  0.00905  0.87401  0.80884  1.0000
  S   S117      1.0  0.99960  0.85517  0.83636  1.0000
  S   S118      1.0  0.02001  0.89872  0.75973  1.0000
  S   S119      1.0  0.05102  0.89030  0.79776  1.0000
  Fe  Fe60      1.0  0.03683  0.85306  0.96074  1.0000
  S   S120      1.0  0.07463  0.84482  0.97160  1.0000
  C   C873      1.0  0.04945  0.61407  0.77236  1.0000
  Fe  Fe61      1.0  0.06805  0.88845  0.92914  1.0000
  S   S121      1.0  0.10785  0.88306  0.93805  1.0000
  S   S122      1.0  0.06794  0.91658  0.90486  1.0000
  Fe  Fe62      1.0  0.08046  0.83778  0.94331  1.0000
  S   S123      1.0  0.08618  0.79926  0.93372  1.0000
  Fe  Fe63      1.0  0.09905  0.89096  0.96530  1.0000
  C   C874      1.0  0.13329  0.85817  0.79045  1.0000
  S   S124      1.0  0.04071  0.84291  0.93302  1.0000
  S   S125      1.0  0.06132  0.89951  0.95588  1.0000
  Fe  Fe64      1.0  0.17965  0.50690  0.85630  1.0000
  S   S126      1.0  0.16226  0.54031  0.84823  1.0000
  S   S127      1.0  0.28125  0.52355  0.86235  1.0000
  S   S128      1.0  0.21147  0.50525  0.83897  1.0000
  C   C875      1.0  0.35101  0.72708  0.81606  1.0000
  Fe  Fe65      1.0  0.41274  0.73724  0.86070  1.0000
  S   S129      1.0  0.41982  0.71965  0.88764  1.0000
  S   S130      1.0  0.39809  0.77291  0.85587  1.0000
  Fe  Fe66      1.0  0.39936  0.67795  0.87454  1.0000
  S   S131      1.0  0.36322  0.64396  0.88829  1.0000
  S   S132      1.0  0.39072  0.69582  0.84808  1.0000
  Fe  Fe67      1.0  0.17503  0.72364  0.83918  1.0000
  S   S133      1.0  0.15823  0.70766  0.86599  1.0000
  S   S134      1.0  0.14643  0.71692  0.81428  1.0000
  Fe  Fe68      1.0  0.23496  0.75042  0.85415  1.0000
  S   S135      1.0  0.22300  0.73744  0.88177  1.0000
  S   S136      1.0  0.27835  0.77830  0.84676  1.0000
  Fe  Fe69      1.0  0.19575  0.69595  0.87025  1.0000
  S   S137      1.0  0.20017  0.65775  0.88440  1.0000
  Fe  Fe70      1.0  0.18676  0.75055  0.87531  1.0000
  S   S138      1.0  0.18075  0.78222  0.89272  1.0000
  S   S139      1.0  0.21004  0.70853  0.84285  1.0000
  S   S140      1.0  0.20110  0.76688  0.84812  1.0000
  C   C876      1.0  0.36332  0.77071  0.85259  1.0000
  C   C877      1.0  0.34018  0.74851  0.85934  1.0000
  C   C878      1.0  0.31339  0.74967  0.85730  1.0000
  C   C879      1.0  0.30990  0.77291  0.84842  1.0000
  C   C880      1.0  0.33290  0.79424  0.84122  1.0000
  C   C881      1.0  0.35933  0.79326  0.84340  1.0000
  H   H697      1.0  0.34308  0.73107  0.86662  1.0000
  H   H698      1.0  0.29576  0.73318  0.86302  1.0000
  H   H699      1.0  0.33043  0.81217  0.83432  1.0000
  H   H700      1.0  0.37694  0.81041  0.83811  1.0000
  C   C882      1.0  0.30090  0.55883  0.86814  1.0000
  C   C883      1.0  0.29780  0.56859  0.88414  1.0000
  C   C884      1.0  0.31677  0.59490  0.88994  1.0000
  C   C885      1.0  0.33871  0.61205  0.87963  1.0000
  C   C886      1.0  0.34105  0.60290  0.86321  1.0000
  C   C887      1.0  0.32265  0.57615  0.85770  1.0000
  H   H701      1.0  0.28178  0.55505  0.89249  1.0000
  H   H702      1.0  0.31489  0.60167  0.90270  1.0000
  H   H703      1.0  0.35739  0.61613  0.85495  1.0000
  H   H704      1.0  0.32565  0.56867  0.84547  1.0000
  C   C888      1.0  0.17426  0.57342  0.85794  1.0000
  C   C889      1.0  0.19221  0.57945  0.87319  1.0000
  C   C890      1.0  0.20085  0.60581  0.88070  1.0000
  C   C891      1.0  0.19128  0.62621  0.87329  1.0000
  C   C892      1.0  0.17356  0.62036  0.85794  1.0000
  C   C893      1.0  0.16509  0.59405  0.85033  1.0000
  H   H705      1.0  0.19919  0.56367  0.87930  1.0000
  H   H706      1.0  0.21476  0.61035  0.89243  1.0000
  H   H707      1.0  0.16588  0.63583  0.85219  1.0000
  H   H708      1.0  0.15107  0.58950  0.83859  1.0000
  C   C894      1.0  0.11245  0.79525  0.92185  1.0000
  C   C895      1.0  0.13804  0.81733  0.91899  1.0000
  C   C896      1.0  0.15842  0.81291  0.90996  1.0000
  C   C897      1.0  0.15355  0.78650  0.90344  1.0000
  C   C898      1.0  0.12774  0.76453  0.90600  1.0000
  C   C899      1.0  0.10745  0.76889  0.91518  1.0000
  H   H709      1.0  0.14233  0.83771  0.92402  1.0000
  H   H710      1.0  0.17825  0.83010  0.90812  1.0000
  H   H711      1.0  0.12355  0.74407  0.90114  1.0000
  H   H712      1.0  0.08776  0.75165  0.91725  1.0000
  C   C900      1.0  0.19874  0.87066  0.83706  1.0000
  H   H713      1.0  0.02211  0.80645  0.80101  1.0000
  H   H714      1.0  0.33650  0.66918  0.91053  1.0000
  C   C901      1.0  0.31609  0.72491  0.79230  1.0000
  H   H715      1.0  0.15839  0.50371  0.92682  1.0000
  C   C902      1.0  0.13545  0.52109  0.95505  1.0000
  C   C903      1.0  0.01906  0.87273  0.85506  1.0000
  C   C904      1.0  0.01419  0.85877  0.87162  1.0000
  C   C905      1.0  0.02927  0.87201  0.88687  1.0000
  C   C906      1.0  0.04917  0.89947  0.88572  1.0000
  C   C907      1.0  0.05390  0.91361  0.86912  1.0000
  C   C908      1.0  0.03896  0.90017  0.85379  1.0000
  H   H716      1.0  0.99863  0.83760  0.87263  1.0000
  H   H717      1.0  0.02513  0.86106  0.89953  1.0000
  H   H718      1.0  0.06950  0.93468  0.86803  1.0000
  H   H719      1.0  0.04276  0.91085  0.84100  1.0000
  C   C909      1.0  0.18669  0.74985  0.76161  1.0000
  C   C910      1.0  0.15771  0.73774  0.76226  1.0000
  C   C911      1.0  0.14566  0.72831  0.77851  1.0000
  C   C912      1.0  0.16238  0.73068  0.79424  1.0000
  C   C913      1.0  0.19137  0.74357  0.79368  1.0000
  C   C914      1.0  0.20342  0.75319  0.77739  1.0000
  H   H720      1.0  0.28627  0.68346  0.76227  1.0000
  H   H721      1.0  0.12331  0.71914  0.77881  1.0000
  H   H722      1.0  0.20449  0.74593  0.80576  1.0000
  H   H723      1.0  0.22580  0.76311  0.77696  1.0000
  H   H724      1.0  0.04615  0.73906  0.88225  1.0000
  C   C915      1.0  0.02525  0.73835  0.90534  1.0000
  C   C916      1.0  0.18312  0.86426  0.82092  1.0000
  C   C917      1.0  0.44698  0.73515  0.79911  1.0000
  H   H725      1.0  0.13652  0.77042  0.80039  1.0000
  C   C918      1.0  0.12237  0.66061  0.74729  1.0000
  C   C919      1.0  0.26319  0.50776  0.81242  1.0000
  C   C920      1.0  0.24664  0.49496  0.79758  1.0000
  C   C921      1.0  0.26933  0.55376  0.79921  1.0000
  C   C922      1.0  0.27443  0.53698  0.81326  1.0000
  P   P28       1.0  0.28252  0.59150  0.80108  1.0000
  C   C923      1.0  0.27583  0.59855  0.82273  1.0000
  C   C924      1.0  0.31961  0.60792  0.79841  1.0000
  C   C925      1.0  0.33684  0.59305  0.80279  1.0000
  H   H726      1.0  0.00452  0.78926  0.91626  1.0000
  C   C926      1.0  0.25190  0.58014  0.83080  1.0000
  C   C927      1.0  0.24686  0.58478  0.84774  1.0000
  C   C928      1.0  0.26519  0.60830  0.85662  1.0000
  C   C929      1.0  0.28878  0.62717  0.84851  1.0000
  C   C930      1.0  0.29419  0.62227  0.83166  1.0000
  C   C931      1.0  0.26401  0.60586  0.78474  1.0000
  C   C932      1.0  0.27212  0.61119  0.76730  1.0000
  C   C933      1.0  0.25709  0.62111  0.75440  1.0000
  C   C934      1.0  0.23410  0.62613  0.75887  1.0000
  C   C935      1.0  0.22599  0.62097  0.77621  1.0000
  C   C936      1.0  0.24067  0.61059  0.78906  1.0000
  H   H727      1.0  0.26638  0.49500  0.82365  1.0000
  H   H728      1.0  0.28622  0.54637  0.82519  1.0000
  H   H729      1.0  0.32823  0.57140  0.80750  1.0000
  C   C937      1.0  0.13516  0.95929  0.92791  1.0000
  H   H730      1.0  0.23713  0.56202  0.82407  1.0000
  H   H731      1.0  0.22881  0.56979  0.85399  1.0000
  H   H732      1.0  0.26115  0.61159  0.86982  1.0000
  H   H733      1.0  0.30332  0.64528  0.85539  1.0000
  H   H734      1.0  0.31288  0.63687  0.82586  1.0000
  H   H735      1.0  0.28977  0.60723  0.76362  1.0000
  H   H736      1.0  0.01279  0.89766  0.98772  1.0000
  C   C938      1.0  0.07420  0.80519  0.74912  1.0000
  H   H737      1.0  0.20809  0.62463  0.77972  1.0000
  H   H738      1.0  0.23347  0.60604  0.80226  1.0000
  C   C939      1.0  0.27920  0.67222  0.88714  1.0000
  C   C940      1.0  0.29567  0.70700  0.90971  1.0000
  C   C941      1.0  0.27716  0.69456  0.89535  1.0000
  P   P29       1.0  0.29426  0.73700  0.91959  1.0000
  C   C942      1.0  0.31001  0.73989  0.94178  1.0000
  C   C943      1.0  0.30273  0.71607  0.95325  1.0000
  C   C944      1.0  0.31462  0.71808  0.97055  1.0000
  H   H739      1.0  0.16176  0.48449  0.76866  1.0000
  C   C945      1.0  0.34052  0.76786  0.96530  1.0000
  C   C946      1.0  0.32867  0.76591  0.94799  1.0000
  C   C947      1.0  0.25901  0.73365  0.92221  1.0000
  C   C948      1.0  0.25383  0.75738  0.92561  1.0000
  C   C949      1.0  0.22657  0.75510  0.92732  1.0000
  C   C950      1.0  0.20439  0.72899  0.92624  1.0000
  C   C951      1.0  0.20951  0.70503  0.92373  1.0000
  C   C952      1.0  0.23671  0.70727  0.92187  1.0000
  H   H740      1.0  0.26445  0.66245  0.87627  1.0000
  H   H741      1.0  0.26119  0.70215  0.89040  1.0000
  H   H742      1.0  0.35287  0.76073  0.91203  1.0000
  H   H743      1.0  0.28789  0.69596  0.94879  1.0000
  H   H744      1.0  0.98717  0.90456  0.96051  1.0000
  C   C953      1.0  0.15582  0.95733  0.94022  1.0000
  S   S141      1.0  0.44398  0.68624  0.81718  1.0000
  H   H745      1.0  0.33400  0.78476  0.93957  1.0000
  H   H746      1.0  0.27077  0.77779  0.92657  1.0000
  H   H747      1.0  0.22247  0.77368  0.92906  1.0000
  H   H748      1.0  0.18324  0.72748  0.92709  1.0000
  H   H749      1.0  0.19232  0.68480  0.92272  1.0000
  H   H750      1.0  0.24000  0.68841  0.91983  1.0000
  P   P30       1.0  0.28197  0.72440  0.78522  1.0000
  C   C954      1.0  0.25438  0.69765  0.79694  1.0000
  C   C955      1.0  0.22696  0.69611  0.79383  1.0000
  C   C956      1.0  0.20534  0.67625  0.80308  1.0000
  C   C957      1.0  0.21082  0.65725  0.81521  1.0000
  H   H751      1.0  0.19417  0.64216  0.82262  1.0000
  C   C958      1.0  0.25959  0.67796  0.80882  1.0000
  H   H752      1.0  0.25600  0.74676  0.81037  1.0000
  H   H753      1.0  0.22238  0.71069  0.78449  1.0000
  H   H754      1.0  0.18446  0.67611  0.80116  1.0000
  H   H755      1.0  0.14453  0.73526  0.75028  1.0000
  C   C959      1.0  0.06114  0.75189  0.84467  1.0000
  C   C960      1.0  0.43414  0.59900  0.86823  1.0000
  H   H756      1.0  0.39005  0.72824  0.80834  1.0000
  C   C961      1.0  0.13559  0.54438  0.89766  1.0000
  C   C962      1.0  0.14773  0.53681  0.91331  1.0000
  C   C963      1.0  0.26869  0.76373  0.80186  1.0000
  P   P31       1.0  0.16452  0.56198  0.93023  1.0000
  C   C964      1.0  0.20117  0.57948  0.92640  1.0000
  C   C965      1.0  0.14851  0.58733  0.92971  1.0000
  C   C966      1.0  0.15526  0.60917  0.91677  1.0000
  C   C967      1.0  0.14313  0.62893  0.91609  1.0000
  C   C968      1.0  0.12417  0.62714  0.92843  1.0000
  C   C969      1.0  0.11729  0.60548  0.94142  1.0000
  C   C970      1.0  0.12936  0.58560  0.94207  1.0000
  C   C971      1.0  0.21618  0.60743  0.93115  1.0000
  C   C972      1.0  0.24452  0.62087  0.92810  1.0000
  C   C973      1.0  0.25818  0.60638  0.92061  1.0000
  C   C974      1.0  0.24350  0.57853  0.91607  1.0000
  C   C975      1.0  0.21515  0.56509  0.91895  1.0000
  C   C976      1.0  0.16062  0.54354  0.95150  1.0000
  C   C977      1.0  0.18256  0.55142  0.96464  1.0000
  H   H757      1.0  0.25446  0.74913  0.75737  1.0000
  C   C978      1.0  0.11632  0.97261  0.83522  1.0000
  C   C979      1.0  0.97128  0.81799  0.98606  1.0000
  S   S142      1.0  0.06827  0.96918  0.78285  1.0000
  H   H758      1.0  0.13564  0.56519  0.89541  1.0000
  C   C980      1.0  0.42846  0.65618  0.91456  1.0000
  H   H759      1.0  0.16985  0.61084  0.90712  1.0000
  H   H760      1.0  0.14848  0.64557  0.90590  1.0000
  H   H761      1.0  0.11477  0.64248  0.92788  1.0000
  H   H762      1.0  0.10252  0.60407  0.95096  1.0000
  H   H763      1.0  0.12363  0.56904  0.95221  1.0000
  H   H764      1.0  0.20600  0.61896  0.93706  1.0000
  H   H765      1.0  0.25585  0.64261  0.93137  1.0000
  H   H766      1.0  0.25400  0.56731  0.91018  1.0000
  H   H767      1.0  0.20426  0.54356  0.91519  1.0000
  H   H768      1.0  0.20214  0.56870  0.96227  1.0000
  H   H769      1.0  0.02231  0.58723  0.79175  1.0000
  C   C981      1.0  0.27706  0.69622  0.75438  1.0000
  H   H770      1.0  0.34280  0.74551  0.98996  1.0000
  H   H771      1.0  0.35743  0.72807  0.82999  1.0000
  H   H772      1.0  0.17715  0.65074  0.77012  1.0000
  C   C982      1.0  0.45167  0.71045  0.79899  1.0000
  C   C983      1.0  0.35505  0.54355  0.91309  1.0000
  H   H773      1.0  0.46330  0.69395  0.92203  1.0000
  H   H774      1.0  0.99123  0.93496  0.76410  1.0000
  C   C984      1.0  0.10033  0.77928  0.86402  1.0000
  C   C985      1.0  0.02510  0.79025  0.89276  1.0000
  H   H775      1.0  0.04229  0.94410  0.97016  1.0000
  C   C986      1.0  0.07534  0.82863  0.86787  1.0000
  H   H776      1.0  0.21381  0.89178  0.83926  1.0000
  Fe  Fe71      1.0  0.23428  0.49961  0.86429  1.0000
  S   S143      1.0  0.20308  0.50293  0.88188  1.0000
  C   C987      1.0  0.25287  0.54070  0.78423  1.0000
  H   H777      1.0  0.30246  0.64589  0.88639  1.0000
  H   H778      1.0  0.28013  0.61672  0.91828  1.0000
  S   S144      1.0  0.98817  0.84579  0.78631  1.0000
  C   C988      1.0  0.34292  0.77342  0.90485  1.0000
  C   C989      1.0  0.26962  0.79071  0.80383  1.0000
  C   C990      1.0  0.28401  0.75912  0.78905  1.0000
  H   H779      1.0  0.06608  0.71860  0.83175  1.0000
  C   C991      1.0  0.24160  0.51142  0.78345  1.0000
  H   H780      1.0  0.24800  0.55282  0.77329  1.0000
  C   C992      1.0  0.99582  0.90437  0.98863  1.0000
  H   H781      1.0  0.06875  0.79015  0.76009  1.0000
  C   C993      1.0  0.27248  0.71771  0.76208  1.0000
  C   C994      1.0  0.30043  0.66291  0.89277  1.0000
  C   C995      1.0  0.33180  0.63643  0.79303  1.0000
  C   C996      1.0  0.31731  0.69793  0.91498  1.0000
  C   C997      1.0  0.31432  0.76690  0.90597  1.0000
  C   C998      1.0  0.12659  0.87221  0.80334  1.0000
  Fe  Fe72      1.0  0.03790  0.92368  0.78410  1.0000
  C   C999      1.0  0.07317  0.69654  0.75185  1.0000
  H   H782      1.0  0.22825  0.50132  0.77212  1.0000
  H   H783      1.0  0.33010  0.72724  0.76597  1.0000
  Fe  Fe73      1.0  0.43369  0.70013  0.84228  1.0000
  C   C1000     1.0  0.31956  0.67589  0.90659  1.0000
  H   H784      1.0  0.16333  0.94071  0.93954  1.0000
  C   C1001     1.0  0.31785  0.80582  0.88526  1.0000
  H   H785      1.0  0.43997  0.79197  0.82884  1.0000
  H   H786      1.0  0.22245  0.63387  0.74890  1.0000
  C   C1002     1.0  0.33519  0.72620  0.78001  1.0000
  H   H787      1.0  0.33570  0.52066  0.87136  1.0000
  C   C1003     1.0  0.12155  0.88780  0.76771  1.0000
  C   C1004     1.0  0.07570  0.73572  0.84062  1.0000
  H   H788      1.0  0.12673  0.94423  0.91760  1.0000
  H   H789      1.0  0.11396  0.72899  0.84488  1.0000
  H   H790      1.0  0.02409  0.97358  0.98535  1.0000
  H   H791      1.0  0.08926  0.81748  0.89382  1.0000
  C   C1005     1.0  0.34633  0.81237  0.88442  1.0000
  C   C1006     1.0  0.19684  0.81944  0.75469  1.0000
  H   H792      1.0  0.31914  0.64866  0.79017  1.0000
  C   C1007     1.0  0.07691  0.85110  0.85595  1.0000
  Fe  Fe74      1.0  0.98008  0.88274  0.77402  1.0000
  H   H793      1.0  0.18638  0.88064  0.81069  1.0000
  H   H794      1.0  0.10843  0.91880  0.77681  1.0000
  C   C1008     1.0  0.15441  0.51435  0.98439  1.0000
  H   H795      1.0  0.37016  0.67175  0.78801  1.0000
  C   C1009     1.0  0.36069  0.64966  0.79188  1.0000
  C   C1010     1.0  0.31969  0.53017  0.77156  1.0000
  S   S145      1.0  0.04815  0.83245  0.76639  1.0000
  H   H796      1.0  0.38449  0.55183  0.86706  1.0000
  H   H797      1.0  0.30789  0.81761  0.87704  1.0000
  H   H798      1.0  0.31096  0.72729  0.82004  1.0000
  H   H799      1.0  0.06475  0.84776  0.84348  1.0000
  C   C1011     1.0  0.28666  0.81336  0.79360  1.0000
  S   S146      1.0  0.44099  0.67900  0.86791  1.0000
  H   H800      1.0  0.09447  0.65570  0.81223  1.0000
  H   H801      1.0  0.28763  0.83425  0.79543  1.0000
  H   H802      1.0  0.31619  0.82668  0.77345  1.0000
  H   H803      1.0  0.40003  0.64506  0.79532  1.0000
  C   C1012     1.0  0.39361  0.56511  0.89410  1.0000
  C   C1013     1.0  0.42008  0.62987  0.90729  1.0000
  C   C1014     1.0  0.30148  0.78207  0.77901  1.0000
  H   H804      1.0  0.27954  0.77737  0.89531  1.0000
  C   C1015     1.0  0.32461  0.72639  0.81035  1.0000
  H   H805      1.0  0.40567  0.62865  0.83482  1.0000
  P   P32       1.0  0.05330  0.79274  0.86288  1.0000
  C   C1016     1.0  0.30274  0.80908  0.78127  1.0000
  C   C1017     1.0  0.44000  0.62013  0.90260  1.0000
  C   C1018     1.0  0.30177  0.78288  0.89574  1.0000
  C   C1019     1.0  0.06579  0.74634  0.79647  1.0000
  H   H806      1.0  0.04757  0.72686  0.79570  1.0000
  H   H807      1.0  0.09392  0.89592  0.85135  1.0000
  C   C1020     1.0  0.09344  0.87869  0.86041  1.0000
  H   H808      1.0  0.14534  0.79469  0.82953  1.0000
  H   H809      1.0  0.31396  0.77903  0.76933  1.0000
  C   C1021     1.0  0.98142  0.90860  0.97308  1.0000
  C   C1022     1.0  0.99904  0.78274  0.84863  1.0000
  C   C1023     1.0  0.06263  0.77192  0.79541  1.0000
  H   H810      1.0  0.00523  0.74362  0.92762  1.0000
  H   H811      1.0  0.11790  0.86604  0.90161  1.0000
  C   C1024     1.0  0.37660  0.54989  0.87997  1.0000
  C   C1025     1.0  0.38286  0.56124  0.91080  1.0000
  C   C1026     1.0  0.36173  0.72718  0.78578  1.0000
  C   C1027     1.0  0.16472  0.82523  0.78068  1.0000
  H   H812      1.0  0.04202  0.77235  0.79339  1.0000
  C   C1028     1.0  0.01565  0.79923  0.81425  1.0000
  C   C1029     1.0  0.09054  0.83434  0.88427  1.0000
  C   C1030     1.0  0.35882  0.79603  0.89409  1.0000
  C   C1031     1.0  0.36949  0.72730  0.80382  1.0000
  C   C1032     1.0  0.10817  0.88414  0.87686  1.0000
  H   H813      1.0  0.41290  0.66382  0.91770  1.0000
  C   C1033     1.0  0.12451  0.49847  0.88632  1.0000
  H   H814      1.0  0.11003  0.79550  0.87350  1.0000
  C   C1034     1.0  0.97438  0.92952  0.83353  1.0000
  C   C1035     1.0  0.16598  0.65885  0.76010  1.0000
  C   C1036     1.0  0.11569  0.90214  0.78064  1.0000
  H   H815      1.0  0.13515  0.76660  0.86623  1.0000
  C   C1037     1.0  0.33358  0.74395  0.97656  1.0000
  C   C1038     1.0  0.10259  0.74141  0.84811  1.0000
  H   H816      1.0  0.25741  0.79409  0.81357  1.0000
  C   C1039     1.0  0.23790  0.65806  0.81805  1.0000
  C   C1040     1.0  0.99930  0.94733  0.84198  1.0000
  H   H817      1.0  0.05103  0.61380  0.81724  1.0000
  H   H818      1.0  0.12007  0.90556  0.88058  1.0000
  S   S147      1.0  0.45529  0.74347  0.85234  1.0000
  C   C1041     1.0  0.07344  0.77399  0.85631  1.0000
  C   C1042     1.0  0.10681  0.86194  0.88875  1.0000
  H   H819      1.0  0.24207  0.64339  0.82756  1.0000
  C   C1043     1.0  0.01356  0.75242  0.91501  1.0000
  S   S148      1.0  0.13426  0.92000  0.98354  1.0000
  C   C1044     1.0  0.11471  0.76292  0.85996  1.0000
  C   C1045     1.0  0.46208  0.74763  0.76911  1.0000
  C   C1046     1.0  0.45192  0.75354  0.78416  1.0000
  H   H820      1.0  0.11526  0.53139  0.87205  1.0000
  H   H821      1.0  0.44894  0.83211  0.84748  1.0000
  C   C1047     1.0  0.04121  0.60552  0.78956  1.0000
  H   H822      1.0  0.34657  0.54118  0.92587  1.0000
  C   C1048     1.0  0.03687  0.77625  0.88294  1.0000
  H   H823      1.0  0.12946  0.80437  0.76252  1.0000
  C   C1049     1.0  0.19383  0.83458  0.78356  1.0000
  P   P33       1.0  0.14351  0.82919  0.79701  1.0000
  C   C1050     1.0  0.41555  0.60944  0.85907  1.0000
  C   C1051     1.0  0.45677  0.67314  0.91696  1.0000
  H   H824      1.0  0.02550  0.81067  0.88826  1.0000
  C   C1052     1.0  0.09245  0.74592  0.79852  1.0000
  H   H825      1.0  0.05715  0.80699  0.82517  1.0000
  H   H826      1.0  0.35504  0.78796  0.97000  1.0000
  C   C1053     1.0  0.03680  0.75013  0.88932  1.0000
  H   H827      1.0  0.19651  0.54283  0.99106  1.0000
  C   C1054     1.0  0.03543  0.79978  0.82798  1.0000
  H   H828      1.0  0.08305  0.81669  0.79489  1.0000
  H   H829      1.0  0.04010  0.74674  0.83896  1.0000
  C   C1055     1.0  0.02734  0.79180  0.84532  1.0000
  H   H830      1.0  0.08322  0.96574  0.95282  1.0000
  C   C1056     1.0  0.08610  0.79714  0.79626  1.0000
  C   C1057     1.0  0.41958  0.61972  0.84162  1.0000
  H   H831      1.0  0.11304  0.48903  0.97402  1.0000
  C   C1058     1.0  0.17944  0.53682  0.98101  1.0000
  H   H832      1.0  0.43925  0.73990  0.81066  1.0000
  C   C1059     1.0  0.36570  0.60635  0.80152  1.0000
  C   C1060     1.0  0.16003  0.81599  0.83140  1.0000
  C   C1061     1.0  0.16355  0.83687  0.81797  1.0000
  C   C1062     1.0  0.11297  0.79690  0.79803  1.0000
  C   C1063     1.0  0.33806  0.52905  0.89884  1.0000
  H   H833      1.0  0.99209  0.77664  0.86181  1.0000
  C   C1064     1.0  0.01328  0.77823  0.90864  1.0000
  P   P34       1.0  0.42947  0.58794  0.89112  1.0000
  S   S149      1.0  0.99560  0.84505  0.97308  1.0000
  H   H834      1.0  0.09500  0.72612  0.79963  1.0000
  H   H835      1.0  0.46308  0.51190  0.88780  1.0000
  C   C1065     1.0  0.12386  0.52518  0.88431  1.0000
  H   H836      1.0  0.39849  0.61048  0.86568  1.0000
  C   C1066     1.0  0.13698  0.64953  0.75993  1.0000
  H   H837      1.0  0.10916  0.67069  0.78216  1.0000
  H   H838      1.0  0.12755  0.86589  0.81717  1.0000
  C   C1067     1.0  0.17576  0.82253  0.84751  1.0000
  C   C1068     1.0  0.09005  0.65256  0.78399  1.0000
  C   C1069     1.0  0.25942  0.73318  0.75173  1.0000
  C   C1070     1.0  0.11596  0.77109  0.79917  1.0000
  H   H839      1.0  0.35846  0.82936  0.87566  1.0000
  H   H840      1.0  0.32185  0.53331  0.78562  1.0000
  C   C1071     1.0  0.96726  0.95965  0.75644  1.0000
  H   H841      1.0  0.17329  0.80647  0.85784  1.0000
  H   H842      1.0  0.00880  0.93899  0.85295  1.0000
  H   H843      1.0  0.39584  0.57217  0.92200  1.0000
  C   C1072     1.0  0.14838  0.50990  0.91518  1.0000
  H   H844      1.0  0.11862  0.89318  0.75388  1.0000
  C   C1073     1.0  0.98756  0.79012  0.81766  1.0000
  H   H845      1.0  0.98898  0.78732  0.98417  1.0000
  H   H846      1.0  0.11819  0.51475  0.94513  1.0000
  C   C1074     1.0  0.19503  0.84978  0.85036  1.0000
  H   H847      1.0  0.33476  0.49685  0.77405  1.0000
  H   H848      1.0  0.20434  0.84390  0.79578  1.0000
  H   H849      1.0  0.23215  0.83836  0.77295  1.0000
  C   C1075     1.0  0.32371  0.50513  0.74691  1.0000
  H   H850      1.0  0.44775  0.77238  0.78422  1.0000
  H   H851      1.0  0.28023  0.67783  0.81111  1.0000
  C   C1076     1.0  0.05736  0.62048  0.80393  1.0000
  C   C1077     1.0  0.20978  0.83158  0.77060  1.0000
  C   C1078     1.0  0.13667  0.49081  0.90177  1.0000
  H   H852      1.0  0.30908  0.69960  0.97933  1.0000
  H   H853      1.0  0.11309  0.90509  0.80843  1.0000
  C   C1079     1.0  0.11826  0.89437  0.79845  1.0000
  P   P35       1.0  0.08493  0.64917  0.74730  1.0000
  H   H854      1.0  0.13327  0.96688  0.83228  1.0000
  C   C1080     1.0  0.13241  0.50653  0.97143  1.0000
  H   H855      1.0  0.02591  0.71860  0.91046  1.0000
  C   C1081     1.0  0.98966  0.95170  0.75547  1.0000
  H   H856      1.0  0.13395  0.85471  0.76223  1.0000
  C   C1082     1.0  0.08178  0.64402  0.80113  1.0000
  C   C1083     1.0  0.05228  0.96675  0.96903  1.0000
  C   C1084     1.0  0.07399  0.63768  0.76944  1.0000
  H   H857      1.0  0.11620  0.48397  0.87571  1.0000
  H   H858      1.0  0.03665  0.60215  0.76146  1.0000
  H   H859      1.0  0.06442  0.73320  0.75522  1.0000
  H   H860      1.0  0.37658  0.72845  0.77630  1.0000
  H   H861      1.0  0.07748  0.69379  0.76582  1.0000
  C   C1085     1.0  0.46120  0.80668  0.83167  1.0000
  C   C1086     1.0  0.16790  0.80973  0.75183  1.0000
  C   C1087     1.0  0.18056  0.67882  0.74744  1.0000
  H   H862      1.0  0.31635  0.51569  0.90044  1.0000
  H   H863      1.0  0.20715  0.85454  0.86289  1.0000
  C   C1088     1.0  0.13025  0.86585  0.77255  1.0000
  C   C1089     1.0  0.06554  0.71886  0.74591  1.0000
  C   C1090     1.0  0.15189  0.81232  0.76484  1.0000
  H   H864      1.0  0.37895  0.59489  0.80506  1.0000
  C   C1091     1.0  0.44940  0.56747  0.89915  1.0000
  H   H865      1.0  0.08679  0.94466  0.81662  1.0000
  C   C1092     1.0  0.37760  0.63462  0.79607  1.0000
  C   C1093     1.0  0.97926  0.78185  0.83482  1.0000
  C   C1094     1.0  0.97253  0.79164  0.98938  1.0000
  H   H866      1.0  0.38064  0.80035  0.89278  1.0000
  H   H867      1.0  0.20306  0.68653  0.74778  1.0000
  C   C1095     1.0  0.30942  0.54648  0.75995  1.0000
  C   C1096     1.0  0.32691  0.50959  0.76504  1.0000
  C   C1097     1.0  0.34897  0.53195  0.88237  1.0000
  H   H868      1.0  0.09434  0.94546  0.98910  1.0000
  C   C1098     1.0  0.06633  0.82834  0.74853  1.0000
  H   H869      1.0  0.97230  0.79017  0.80709  1.0000
  C   C1099     1.0  0.09009  0.95990  0.82649  1.0000
  C   C1100     1.0  0.97484  0.96756  0.81306  1.0000
  C   C1101     1.0  0.06816  0.96736  0.83005  1.0000
  H   H870      1.0  0.43680  0.54091  0.87667  1.0000
  H   H871      1.0  0.04827  0.95768  0.82270  1.0000
  H   H872      1.0  0.96499  0.90761  0.83784  1.0000
  C   C1102     1.0  0.44881  0.54541  0.88923  1.0000
  H   H873      1.0  0.44588  0.62863  0.81988  1.0000
  H   H874      1.0  0.05905  0.97051  0.90978  1.0000
  Fe  Fe75      1.0  0.46107  0.72272  0.87843  1.0000
  C   C1103     1.0  0.46122  0.60981  0.84234  1.0000
  H   H875      1.0  0.18134  0.97388  0.96374  1.0000
  C   C1104     1.0  0.44239  0.61987  0.83324  1.0000
  C   C1105     1.0  0.45728  0.59960  0.85984  1.0000
  H   H876      1.0  0.17309  0.47584  0.80042  1.0000
  C   C1106     1.0  0.01002  0.96537  0.74351  1.0000
  H   H877      1.0  0.20919  0.81704  0.74469  1.0000
  H   H878      1.0  0.32917  0.48886  0.74220  1.0000
  C   C1107     1.0  0.46201  0.70457  0.78400  1.0000
  C   C1108     1.0  0.46354  0.52886  0.89553  1.0000
  H   H879      1.0  0.96499  0.85194  0.93516  1.0000
  C   C1109     1.0  0.30589  0.54187  0.74185  1.0000
  H   H880      1.0  0.81655  0.26233  0.09325  1.0000
  Fe  Fe76      1.0  0.82692  0.02434  0.20028  1.0000
  S   S150      1.0  0.86089  0.04170  0.18149  1.0000
  C   C1110     1.0  0.86061  0.22475  0.11871  1.0000
  Fe  Fe77      1.0  0.84203  0.08155  0.21709  1.0000
  S   S151      1.0  0.87815  0.10236  0.19970  1.0000
  Fe  Fe78      1.0  0.84830  0.07844  0.17782  1.0000
  S   S152      1.0  0.83876  0.09933  0.15242  1.0000
  Fe  Fe79      1.0  0.88771  0.06361  0.20496  1.0000
  S   S153      1.0  0.81184  0.05956  0.19483  1.0000
  Fe  Fe80      1.0  0.81112  0.06333  0.02206  1.0000
  S   S154      1.0  0.80858  0.10255  0.00913  1.0000
  H   H881      1.0  0.89648  0.04992  0.01954  1.0000
  Fe  Fe81      1.0  0.84965  0.09613  0.05292  1.0000
  S   S155      1.0  0.85088  0.13820  0.04182  1.0000
  S   S156      1.0  0.87278  0.08451  0.07681  1.0000
  Fe  Fe82      1.0  0.80426  0.11478  0.03646  1.0000
  S   S157      1.0  0.76654  0.12439  0.04264  1.0000
  Fe  Fe83      1.0  0.85529  0.12305  0.01534  1.0000
  C   C1111     1.0  0.78987  0.99486  0.15060  1.0000
  S   S158      1.0  0.80344  0.07370  0.04882  1.0000
  S   S159      1.0  0.85743  0.08315  0.02718  1.0000
  C   C1112     1.0  0.50062  0.16095  0.07603  1.0000
  H   H882      1.0  0.48901  0.19502  0.03815  1.0000
  S   S160      1.0  0.70822  0.41443  0.09053  1.0000
  S   S161      1.0  0.61279  0.42993  0.13471  1.0000
  S   S162      1.0  0.68671  0.43740  0.13293  1.0000
  S   S163      1.0  0.85399  0.04442  0.22414  1.0000
  H   H883      1.0  0.64306  0.12631  0.22326  1.0000
  S   S164      1.0  0.50857  0.20462  0.12978  1.0000
  Fe  Fe84      1.0  0.68872  0.20705  0.13967  1.0000
  S   S165      1.0  0.73006  0.23795  0.13149  1.0000
  S   S166      1.0  0.68714  0.18186  0.16537  1.0000
  Fe  Fe85      1.0  0.65779  0.21980  0.10674  1.0000
  S   S167      1.0  0.69757  0.25134  0.09587  1.0000
  S   S168      1.0  0.61661  0.21589  0.09201  1.0000
  Fe  Fe86      1.0  0.71653  0.21968  0.10450  1.0000
  S   S169      1.0  0.75152  0.21413  0.09066  1.0000
  Fe  Fe87      1.0  0.70755  0.26648  0.12350  1.0000
  S   S170      1.0  0.72211  0.31052  0.13349  1.0000
  S   S171      1.0  0.67591  0.18686  0.11327  1.0000
  S   S172      1.0  0.66712  0.23667  0.13384  1.0000
  C   C1113     1.0  0.53952  0.20962  0.11970  1.0000
  C   C1114     1.0  0.55710  0.19671  0.12748  1.0000
  C   C1115     1.0  0.58145  0.19949  0.11951  1.0000
  C   C1116     1.0  0.58810  0.21474  0.10348  1.0000
  C   C1117     1.0  0.57064  0.22786  0.09579  1.0000
  C   C1118     1.0  0.54651  0.22541  0.10389  1.0000
  H   H884      1.0  0.55183  0.18440  0.13970  1.0000
  H   H885      1.0  0.59465  0.18918  0.12551  1.0000
  H   H886      1.0  0.57551  0.23951  0.08333  1.0000
  H   H887      1.0  0.53291  0.23509  0.09765  1.0000
  C   C1119     1.0  0.58667  0.40145  0.12359  1.0000
  C   C1120     1.0  0.58490  0.39983  0.10523  1.0000
  C   C1121     1.0  0.56280  0.37778  0.09682  1.0000
  C   C1122     1.0  0.54273  0.35667  0.10665  1.0000
  C   C1123     1.0  0.54486  0.35794  0.12507  1.0000
  C   C1124     1.0  0.56660  0.38039  0.13344  1.0000
  H   H888      1.0  0.60015  0.41590  0.09744  1.0000
  H   H889      1.0  0.56117  0.37712  0.08261  1.0000
  H   H890      1.0  0.52953  0.34189  0.13278  1.0000
  H   H891      1.0  0.56808  0.38146  0.14761  1.0000
  C   C1125     1.0  0.70988  0.38439  0.10229  1.0000
  C   C1126     1.0  0.70967  0.36162  0.09319  1.0000
  C   C1127     1.0  0.71247  0.33823  0.10251  1.0000
  C   C1128     1.0  0.71578  0.33773  0.12097  1.0000
  C   C1129     1.0  0.71518  0.36014  0.12991  1.0000
  C   C1130     1.0  0.71223  0.38327  0.12068  1.0000
  H   H892      1.0  0.70787  0.36230  0.07892  1.0000
  H   H893      1.0  0.71294  0.32108  0.09543  1.0000
  H   H894      1.0  0.71703  0.35969  0.14409  1.0000
  H   H895      1.0  0.71277  0.40069  0.12780  1.0000
  H   H896      1.0  0.55446  0.37893  0.19739  1.0000
  H   H897      1.0  0.89139  0.24592  0.09985  1.0000
  H   H898      1.0  0.74068  0.02519  0.05613  1.0000
  S   S173      1.0  0.92729  0.05604  0.21317  1.0000
  C   C1131     1.0  0.67123  0.32257  0.05141  1.0000
  H   H899      1.0  0.54103  0.16252  0.08624  1.0000
  C   C1132     1.0  0.82996  0.97651  0.14009  1.0000
  C   C1133     1.0  0.52952  0.16953  0.07577  1.0000
  C   C1134     1.0  0.76286  0.14929  0.05628  1.0000
  C   C1135     1.0  0.73599  0.14592  0.06062  1.0000
  C   C1136     1.0  0.73201  0.16530  0.07117  1.0000
  C   C1137     1.0  0.75486  0.18873  0.07725  1.0000
  C   C1138     1.0  0.78166  0.19220  0.07272  1.0000
  C   C1139     1.0  0.78571  0.17252  0.06255  1.0000
  H   H900      1.0  0.71811  0.12817  0.05578  1.0000
  H   H901      1.0  0.71125  0.16228  0.07441  1.0000
  H   H902      1.0  0.79954  0.21018  0.07719  1.0000
  H   H903      1.0  0.80648  0.17558  0.05930  1.0000
  C   C1140     1.0  0.84881  0.09503  0.13161  1.0000
  C   C1141     1.0  0.83868  0.10592  0.11644  1.0000
  C   C1142     1.0  0.84556  0.10238  0.09959  1.0000
  C   C1143     1.0  0.86319  0.08843  0.09780  1.0000
  C   C1144     1.0  0.87364  0.07776  0.11298  1.0000
  C   C1145     1.0  0.86644  0.08100  0.12985  1.0000
  H   H904      1.0  0.82555  0.11730  0.11764  1.0000
  H   H905      1.0  0.83758  0.11087  0.08800  1.0000
  H   H906      1.0  0.88746  0.06712  0.11168  1.0000
  H   H907      1.0  0.87469  0.07292  0.14149  1.0000
  C   C1146     1.0  0.69277  0.19980  0.18508  1.0000
  C   C1147     1.0  0.70017  0.18810  0.20089  1.0000
  C   C1148     1.0  0.70357  0.20130  0.21691  1.0000
  C   C1149     1.0  0.69920  0.22617  0.21729  1.0000
  C   C1150     1.0  0.69208  0.23802  0.20145  1.0000
  C   C1151     1.0  0.68931  0.22515  0.18535  1.0000
  H   H908      1.0  0.70356  0.16888  0.20076  1.0000
  H   H909      1.0  0.70968  0.19221  0.22893  1.0000
  H   H910      1.0  0.68870  0.25716  0.20161  1.0000
  H   H911      1.0  0.68397  0.23455  0.17321  1.0000
  C   C1152     1.0  0.67362  0.30059  0.06222  1.0000
  C   C1153     1.0  0.73292  0.30681  0.18703  1.0000
  C   C1154     1.0  0.74347  0.30279  0.20403  1.0000
  C   C1155     1.0  0.75041  0.32370  0.21627  1.0000
  C   C1156     1.0  0.74757  0.34904  0.21139  1.0000
  C   C1157     1.0  0.73810  0.35371  0.19407  1.0000
  C   C1158     1.0  0.72975  0.33192  0.18219  1.0000
  P   P36       1.0  0.73462  0.38637  0.18721  1.0000
  C   C1159     1.0  0.69768  0.37894  0.18500  1.0000
  H   H912      1.0  0.47613  0.28131  0.20626  1.0000
  H   H913      1.0  0.76328  0.45924  0.13941  1.0000
  H   H914      1.0  0.92600  0.18064  0.01460  1.0000
  C   C1160     1.0  0.54377  0.18750  0.06216  1.0000
  C   C1161     1.0  0.62106  0.43120  0.18544  1.0000
  C   C1162     1.0  0.77934  0.45940  0.22437  1.0000
  C   C1163     1.0  0.68516  0.38649  0.16953  1.0000
  C   C1164     1.0  0.65694  0.38228  0.16862  1.0000
  C   C1165     1.0  0.64085  0.36990  0.18298  1.0000
  C   C1166     1.0  0.65297  0.36164  0.19829  1.0000
  C   C1167     1.0  0.68130  0.36623  0.19932  1.0000
  C   C1168     1.0  0.75235  0.40206  0.16739  1.0000
  C   C1169     1.0  0.76825  0.39026  0.15936  1.0000
  C   C1170     1.0  0.75211  0.45395  0.21761  1.0000
  C   C1171     1.0  0.59870  0.43955  0.18208  1.0000
  H   H915      1.0  0.78700  0.01032  0.04993  1.0000
  H   H916      1.0  0.72711  0.29046  0.17754  1.0000
  H   H917      1.0  0.74571  0.28318  0.20785  1.0000
  H   H918      1.0  0.81411  0.44679  0.22510  1.0000
  H   H919      1.0  0.90886  0.04289  0.07894  1.0000
  H   H920      1.0  0.72125  0.33439  0.16900  1.0000
  C   C1172     1.0  0.75115  0.41344  0.20294  1.0000
  C   C1173     1.0  0.58893  0.44916  0.19575  1.0000
  H   H921      1.0  0.62922  0.42482  0.17463  1.0000
  C   C1174     1.0  0.96260  0.19808  0.99933  1.0000
  C   C1175     1.0  0.51645  0.35490  0.21021  1.0000
  H   H922      1.0  0.69698  0.39561  0.15813  1.0000
  H   H923      1.0  0.64759  0.38869  0.15671  1.0000
  H   H924      1.0  0.61898  0.36661  0.18214  1.0000
  H   H925      1.0  0.64047  0.35176  0.20937  1.0000
  H   H926      1.0  0.69054  0.36008  0.21133  1.0000
  H   H927      1.0  0.77019  0.37118  0.16463  1.0000
  C   C1176     1.0  0.89675  0.07436  0.99545  1.0000
  H   H928      1.0  0.95218  0.10412  0.18855  1.0000
  C   C1177     1.0  0.57646  0.17681  0.19148  1.0000
  C   C1178     1.0  0.59584  0.16968  0.18358  1.0000
  C   C1179     1.0  0.61695  0.19022  0.17437  1.0000
  C   C1180     1.0  0.61862  0.21783  0.17293  1.0000
  C   C1181     1.0  0.59864  0.22498  0.18024  1.0000
  C   C1182     1.0  0.57800  0.20442  0.18997  1.0000
  P   P37       1.0  0.60185  0.26101  0.17924  1.0000
  C   C1183     1.0  0.61820  0.27902  0.15949  1.0000
  C   C1184     1.0  0.63661  0.30729  0.15963  1.0000
  C   C1185     1.0  0.64989  0.32066  0.14440  1.0000
  C   C1186     1.0  0.64484  0.30596  0.12893  1.0000
  C   C1187     1.0  0.62604  0.27805  0.12860  1.0000
  C   C1188     1.0  0.61239  0.26477  0.14371  1.0000
  C   C1189     1.0  0.60950  0.27360  0.21482  1.0000
  H   H929      1.0  0.56028  0.16091  0.19878  1.0000
  H   H930      1.0  0.59470  0.14832  0.18469  1.0000
  H   H931      1.0  0.63226  0.18482  0.16846  1.0000
  H   H932      1.0  0.63562  0.23355  0.16616  1.0000
  H   H933      1.0  0.56308  0.20965  0.19638  1.0000
  H   H934      1.0  0.64092  0.31895  0.17148  1.0000
  H   H935      1.0  0.66409  0.34242  0.14446  1.0000
  H   H936      1.0  0.65534  0.31626  0.11717  1.0000
  H   H937      1.0  0.62224  0.26661  0.11665  1.0000
  H   H938      1.0  0.59772  0.24322  0.14315  1.0000
  H   H939      1.0  0.58700  0.26474  0.21496  1.0000
  H   H940      1.0  0.54626  0.22461  0.16451  1.0000
  H   H941      1.0  0.90345  0.99211  0.21587  1.0000
  C   C1190     1.0  0.63354  0.43221  0.20253  1.0000
  H   H942      1.0  0.52617  0.36052  0.22327  1.0000
  H   H943      1.0  0.77271  0.16766  0.16458  1.0000
  C   C1191     1.0  0.80349  0.13122  0.19195  1.0000
  C   C1192     1.0  0.80947  0.15315  0.20328  1.0000
  C   C1193     1.0  0.78786  0.15938  0.20888  1.0000
  C   C1194     1.0  0.76017  0.14321  0.20356  1.0000
  C   C1195     1.0  0.75389  0.12052  0.19260  1.0000
  C   C1196     1.0  0.77584  0.11521  0.18642  1.0000
  P   P38       1.0  0.71825  0.09842  0.18607  1.0000
  C   C1197     1.0  0.69367  0.10655  0.19763  1.0000
  C   C1198     1.0  0.71371  0.10442  0.16253  1.0000
  C   C1199     1.0  0.71535  0.13091  0.15593  1.0000
  C   C1200     1.0  0.71194  0.13620  0.13782  1.0000
  C   C1201     1.0  0.70662  0.11493  0.12608  1.0000
  C   C1202     1.0  0.70516  0.08846  0.13248  1.0000
  C   C1203     1.0  0.70909  0.08329  0.15062  1.0000
  C   C1204     1.0  0.67185  0.11235  0.18849  1.0000
  C   C1205     1.0  0.65357  0.11928  0.19773  1.0000
  Fe  Fe88      1.0  0.65489  0.45488  0.12330  1.0000
  C   C1206     1.0  0.69599  0.10650  0.21614  1.0000
  C   C1207     1.0  0.71127  0.06196  0.19178  1.0000
  C   C1208     1.0  0.73131  0.05377  0.20130  1.0000
  C   C1209     1.0  0.72564  0.02537  0.20518  1.0000
  C   C1210     1.0  0.69973  0.00498  0.19996  1.0000
  C   C1211     1.0  0.67936  0.01298  0.19097  1.0000
  C   C1212     1.0  0.68505  0.04137  0.18695  1.0000
  H   H944      1.0  0.82031  0.12635  0.18766  1.0000
  H   H945      1.0  0.83081  0.16486  0.20803  1.0000
  H   H946      1.0  0.79251  0.17628  0.21777  1.0000
  H   H947      1.0  0.74393  0.14852  0.20818  1.0000
  H   H948      1.0  0.77159  0.09819  0.17768  1.0000
  H   H949      1.0  0.71877  0.14739  0.16485  1.0000
  H   H950      1.0  0.71330  0.15683  0.13291  1.0000
  H   H951      1.0  0.70408  0.11917  0.11202  1.0000
  H   H952      1.0  0.70151  0.07215  0.12332  1.0000
  H   H953      1.0  0.70869  0.06294  0.15521  1.0000
  H   H954      1.0  0.66906  0.11216  0.17425  1.0000
  H   H955      1.0  0.63758  0.12489  0.19052  1.0000
  H   H956      1.0  0.71239  0.10178  0.22346  1.0000
  H   H957      1.0  0.75134  0.06904  0.20584  1.0000
  H   H958      1.0  0.74145  0.01921  0.21221  1.0000
  H   H959      1.0  0.68301  0.98127  0.05507  1.0000
  H   H960      1.0  0.65918  0.99718  0.18707  1.0000
  H   H961      1.0  0.66910  0.04733  0.17997  1.0000
  H   H962      1.0  0.77498  0.00206  0.15538  1.0000
  H   H963      1.0  0.73588  0.06374  0.03729  1.0000
  C   C1213     1.0  0.77907  0.11148  0.13491  1.0000
  C   C1214     1.0  0.76722  0.11068  0.11769  1.0000
  C   C1215     1.0  0.76944  0.13562  0.10846  1.0000
  H   H964      1.0  0.77784  0.09222  0.14202  1.0000
  H   H965      1.0  0.75650  0.09081  0.11144  1.0000
  H   H966      1.0  0.76018  0.13505  0.09513  1.0000
  C   C1216     1.0  0.84691  0.19119  0.15690  1.0000
  Fe  Fe89      1.0  0.48689  0.28864  0.10810  1.0000
  S   S174      1.0  0.49801  0.27297  0.13451  1.0000
  H   H967      1.0  0.56256  0.21734  0.23397  1.0000
  C   C1217     1.0  0.87120  0.24292  0.10423  1.0000
  C   C1218     1.0  0.65668  0.12013  0.21614  1.0000
  S   S175      1.0  0.51483  0.32993  0.09529  1.0000
  C   C1219     1.0  0.54449  0.24199  0.17070  1.0000
  H   H968      1.0  0.50546  0.25943  0.03183  1.0000
  H   H969      1.0  0.79227  0.39271  0.13721  1.0000
  C   C1220     1.0  0.62250  0.27544  0.19911  1.0000
  H   H970      1.0  0.78873  0.43656  0.12429  1.0000
  C   C1221     1.0  0.56811  0.26326  0.17829  1.0000
  C   C1222     1.0  0.79411  0.13726  0.14261  1.0000
  H   H971      1.0  0.74212  0.46791  0.22023  1.0000
  C   C1223     1.0  0.78411  0.16140  0.11626  1.0000
  H   H972      1.0  0.87293  0.21397  0.12533  1.0000
  H   H973      1.0  0.80429  0.13743  0.15557  1.0000
  H   H974      1.0  0.78557  0.18034  0.10881  1.0000
  H   H975      1.0  0.68997  0.29322  0.06052  1.0000
  H   H976      1.0  0.75266  0.36472  0.22118  1.0000
  H   H977      1.0  0.50004  0.22653  0.16497  1.0000
  C   C1224     1.0  0.79727  0.16250  0.13322  1.0000
  H   H978      1.0  0.69007  0.30080  0.21579  1.0000
  C   C1225     1.0  0.87381  0.98766  0.11599  1.0000
  H   H979      1.0  0.81851  0.03640  0.14349  1.0000
  C   C1226     1.0  0.51819  0.24305  0.17089  1.0000
  H   H980      1.0  0.65649  0.37969  0.07312  1.0000
  H   H981      1.0  0.55179  0.26139  0.02481  1.0000
  H   H982      1.0  0.47287  0.21983  0.06064  1.0000
  C   C1227     1.0  0.91047  0.97759  0.22375  1.0000
  C   C1228     1.0  0.85967  0.17352  0.15228  1.0000
  P   P39       1.0  0.81960  0.19585  0.14239  1.0000
  C   C1229     1.0  0.83418  0.22027  0.12422  1.0000
  H   H983      1.0  0.82371  0.25276  0.14883  1.0000
  H   H984      1.0  0.84550  0.21802  0.17708  1.0000
  C   C1230     1.0  0.60169  0.40575  0.04968  1.0000
  C   C1231     1.0  0.85494  0.20430  0.17316  1.0000
  C   C1232     1.0  0.71492  0.01323  0.00694  1.0000
  S   S176      1.0  0.79617  0.01804  0.01343  1.0000
  C   C1233     1.0  0.64104  0.38661  0.06639  1.0000
  C   C1234     1.0  0.87500  0.19933  0.18472  1.0000
  C   C1235     1.0  0.85551  0.25671  0.09515  1.0000
  H   H985      1.0  0.70782  0.01006  0.99316  1.0000
  H   H986      1.0  0.65614  0.27064  0.08339  1.0000
  C   C1236     1.0  0.80641  0.23773  0.15571  1.0000
  C   C1237     1.0  0.55031  0.27427  0.03496  1.0000
  C   C1238     1.0  0.95975  0.07064  0.20338  1.0000
  C   C1239     1.0  0.57286  0.30887  0.05727  1.0000
  C   C1240     1.0  0.79940  0.20874  0.15478  1.0000
  C   C1241     1.0  0.81854  0.23415  0.11495  1.0000
  C   C1242     1.0  0.81454  0.01422  0.14402  1.0000
  H   H987      1.0  0.59451  0.29228  0.04103  1.0000
  C   C1243     1.0  0.88711  0.18122  0.18017  1.0000
  H   H988      1.0  0.88085  0.20914  0.19736  1.0000
  C   C1244     1.0  0.65170  0.28542  0.19957  1.0000
  H   H989      1.0  0.85375  0.16297  0.13987  1.0000
  C   C1245     1.0  0.87955  0.16847  0.16392  1.0000
  C   C1246     1.0  0.82922  0.25238  0.10056  1.0000
  H   H990      1.0  0.66217  0.28561  0.18784  1.0000
  C   C1247     1.0  0.65478  0.28798  0.07522  1.0000
  H   H991      1.0  0.88857  0.15406  0.16044  1.0000
  C   C1248     1.0  0.53897  0.28775  0.18485  1.0000
  C   C1249     1.0  0.77878  0.41942  0.20944  1.0000
  C   C1250     1.0  0.59387  0.37729  0.05457  1.0000
  H   H992      1.0  0.79767  0.23034  0.11851  1.0000
  C   C1251     1.0  0.60578  0.34530  0.12247  1.0000
  H   H993      1.0  0.55599  0.27900  0.12259  1.0000
  H   H994      1.0  0.57243  0.36324  0.05196  1.0000
  C   C1252     1.0  0.55230  0.45429  0.22764  1.0000
  C   C1253     1.0  0.56531  0.28659  0.18489  1.0000
  C   C1254     1.0  0.52247  0.29004  0.05188  1.0000
  C   C1255     1.0  0.72818  0.99545  0.03519  1.0000
  C   C1256     1.0  0.59685  0.32688  0.09308  1.0000
  H   H995      1.0  0.50243  0.28946  0.05506  1.0000
  C   C1257     1.0  0.62552  0.28223  0.23064  1.0000
  Fe  Fe90      1.0  0.48354  0.23134  0.12189  1.0000
  H   H996      1.0  0.79563  0.26991  0.16555  1.0000
  H   H997      1.0  0.62712  0.36811  0.10002  1.0000
  H   H998      1.0  0.56583  0.28447  0.09123  1.0000
  C   C1258     1.0  0.80128  0.01693  0.07716  1.0000
  H   H999      1.0  0.61925  0.28699  0.08760  1.0000
  C   C1259     1.0  0.47242  0.27329  0.21970  1.0000
  C   C1260     1.0  0.62920  0.42456  0.05301  1.0000
  C   C1261     1.0  0.63386  0.29748  0.07766  1.0000
  C   C1262     1.0  0.79081  0.24761  0.16541  1.0000
  C   C1263     1.0  0.57144  0.29847  0.11760  1.0000
  C   C1264     1.0  0.48578  0.17085  0.06285  1.0000
  C   C1265     1.0  0.57457  0.29197  0.04415  1.0000
  C   C1266     1.0  0.89928  0.02689  0.08902  1.0000
  C   C1267     1.0  0.52424  0.27319  0.03889  1.0000
  C   C1268     1.0  0.76251  0.19998  0.17451  1.0000
  C   C1269     1.0  0.57705  0.30167  0.09977  1.0000
  C   C1270     1.0  0.58563  0.32036  0.12892  1.0000
  C   C1271     1.0  0.54668  0.30785  0.06094  1.0000
  H   H1000     1.0  0.58096  0.31799  0.14266  1.0000
  H   H1001     1.0  0.78979  0.40696  0.20572  1.0000
  H   H1002     1.0  0.54509  0.32083  0.07094  1.0000
  H   H1003     1.0  0.65154  0.42672  0.20496  1.0000
  C   C1272     1.0  0.51537  0.26580  0.17806  1.0000
  C   C1273     1.0  0.76473  0.43998  0.14496  1.0000
  H   H1004     1.0  0.75627  0.23620  0.18201  1.0000
  H   H1005     1.0  0.58635  0.41327  0.04344  1.0000
  C   C1274     1.0  0.76872  0.22870  0.17471  1.0000
  H   H1006     1.0  0.49496  0.26678  0.17779  1.0000
  P   P40       1.0  0.60365  0.33096  0.06991  1.0000
  H   H1007     1.0  0.61670  0.36242  0.13115  1.0000
  C   C1275     1.0  0.61153  0.34853  0.10466  1.0000
  H   H1008     1.0  0.64830  0.34873  0.04504  1.0000
  H   H1009     1.0  0.63528  0.44665  0.04936  1.0000
  C   C1276     1.0  0.63174  0.31996  0.06721  1.0000
  C   C1277     1.0  0.77779  0.18998  0.16461  1.0000
  H   H1010     1.0  0.57214  0.45639  0.19275  1.0000
  H   H1011     1.0  0.58344  0.30382  0.19005  1.0000
  C   C1278     1.0  0.61350  0.36750  0.06302  1.0000
  C   C1279     1.0  0.90298  0.00157  0.11649  1.0000
  C   C1280     1.0  0.53261  0.36528  0.19559  1.0000
  C   C1281     1.0  0.73074  0.04343  0.03179  1.0000
  C   C1282     1.0  0.64888  0.41492  0.06125  1.0000
  H   H1012     1.0  0.53676  0.30573  0.18990  1.0000
  H   H1013     1.0  0.68578  0.33230  0.04128  1.0000
  C   C1283     1.0  0.65014  0.33202  0.05374  1.0000
  H   H1014     1.0  0.86346  0.27036  0.08373  1.0000
  H   H1015     1.0  0.67025  0.42944  0.06392  1.0000
  C   C1284     1.0  0.73803  0.43114  0.20693  1.0000
  H   H1016     1.0  0.88013  0.00834  0.16094  1.0000
  H   H1017     1.0  0.56626  0.19431  0.06217  1.0000
  S   S177      1.0  0.47480  0.24757  0.09476  1.0000
  H   H1018     1.0  0.74553  0.18553  0.18187  1.0000
  C   C1285     1.0  0.75147  0.42748  0.16034  1.0000
  H   H1019     1.0  0.85380  0.02060  0.13412  1.0000
  S   S178      1.0  0.83715  0.11150  0.23630  1.0000
  C   C1286     1.0  0.91561  0.02120  0.10306  1.0000
  C   C1287     1.0  0.65459  0.29235  0.23094  1.0000
  C   C1288     1.0  0.88738  0.04993  0.00620  1.0000
  H   H1020     1.0  0.63463  0.44364  0.22917  1.0000
  H   H1021     1.0  0.76596  0.97980  0.11212  1.0000
  C   C1289     1.0  0.77049  0.98623  0.09850  1.0000
  H   H1022     1.0  0.75778  0.32001  0.22956  1.0000
  C   C1290     1.0  0.49255  0.34027  0.17615  1.0000
  C   C1291     1.0  0.53540  0.42794  0.22104  1.0000
  C   C1292     1.0  0.78125  0.40266  0.14384  1.0000
  H   H1023     1.0  0.91299  0.09337  0.00046  1.0000
  H   H1024     1.0  0.71948  0.05648  0.00585  1.0000
  C   C1293     1.0  0.93481  0.18000  0.00237  1.0000
  C   C1294     1.0  0.83452  0.00514  0.13878  1.0000
  C   C1295     1.0  0.52910  0.19675  0.04870  1.0000
  H   H1025     1.0  0.71740  0.42822  0.20124  1.0000
  H   H1026     1.0  0.46924  0.17941  0.09762  1.0000
  P   P41       1.0  0.58972  0.46473  0.23026  1.0000
  H   H1027     1.0  0.77678  0.07810  0.23488  1.0000
  C   C1296     1.0  0.52060  0.35802  0.17857  1.0000
  H   H1028     1.0  0.54021  0.21038  0.03806  1.0000
  C   C1297     1.0  0.62386  0.44188  0.21625  1.0000
  C   C1298     1.0  0.87037  0.01262  0.08821  1.0000
  C   C1299     1.0  0.66763  0.29401  0.21541  1.0000
  C   C1300     1.0  0.79531  0.00867  0.09467  1.0000
  H   H1029     1.0  0.85786  0.01751  0.07741  1.0000
  Fe  Fe91      1.0  0.70095  0.44710  0.10548  1.0000
  C   C1301     1.0  0.50636  0.41906  0.21975  1.0000
  H   H1030     1.0  0.58951  0.43927  0.16869  1.0000
  H   H1031     1.0  0.74014  0.43749  0.16659  1.0000
  C   C1302     1.0  0.85763  0.99312  0.10164  1.0000
  C   C1303     1.0  0.48806  0.33748  0.20785  1.0000
  H   H1032     1.0  0.90215  0.17681  0.18928  1.0000
  C   C1304     1.0  0.72144  0.03933  0.01406  1.0000
  H   H1033     1.0  0.91559  0.01545  0.18555  1.0000
  H   H1034     1.0  0.53295  0.36597  0.16722  1.0000
  H   H1035     1.0  0.80989  0.01993  0.10521  1.0000
  C   C1305     1.0  0.86499  0.02617  0.00018  1.0000
  C   C1306     1.0  0.75680  0.98137  0.06711  1.0000
  S   S179      1.0  0.70290  0.24293  0.23734  1.0000
  H   H1036     1.0  0.85655  0.00780  0.00889  1.0000
  C   C1307     1.0  0.88972  0.99330  0.16343  1.0000
  C   C1308     1.0  0.46750  0.28894  0.23239  1.0000
  H   H1037     1.0  0.93829  0.98152  0.19185  1.0000
  C   C1309     1.0  0.67780  0.11357  0.22534  1.0000
  C   C1310     1.0  0.71840  0.99141  0.01741  1.0000
  S   S180      1.0  0.66765  0.46288  0.09534  1.0000
  C   C1311     1.0  0.77496  0.00165  0.99464  1.0000
  C   C1312     1.0  0.50017  0.18823  0.04891  1.0000
  H   H1038     1.0  0.54471  0.41419  0.21706  1.0000
  C   C1313     1.0  0.77927  0.42736  0.13655  1.0000
  C   C1314     1.0  0.60139  0.45037  0.21299  1.0000
  C   C1315     1.0  0.79270  0.44213  0.22029  1.0000
  H   H1039     1.0  0.82036  0.03458  0.07419  1.0000
  H   H1040     1.0  0.93798  0.03268  0.10376  1.0000
  H   H1041     1.0  0.49005  0.14655  0.08653  1.0000
  H   H1042     1.0  0.49346  0.39879  0.21454  1.0000
  H   H1043     1.0  0.68051  0.11451  0.23960  1.0000
  C   C1316     1.0  0.73376  0.02152  0.04237  1.0000
  C   C1317     1.0  0.49393  0.43623  0.22534  1.0000
  C   C1318     1.0  0.47634  0.33011  0.19070  1.0000
  H   H1044     1.0  0.48330  0.33408  0.16299  1.0000
  C   C1319     1.0  0.92277  0.97839  0.18092  1.0000
  H   H1045     1.0  0.91599  0.99801  0.12746  1.0000
  H   H1046     1.0  0.69546  0.98298  0.20295  1.0000
  C   C1320     1.0  0.51055  0.46233  0.23214  1.0000
  C   C1321     1.0  0.78227  0.00321  0.06344  1.0000
  P   P42       1.0  0.46702  0.32315  0.22658  1.0000
  C   C1322     1.0  0.47100  0.24614  0.22396  1.0000
  H   H1047     1.0  0.47142  0.42927  0.22451  1.0000
  C   C1323     1.0  0.90993  0.99744  0.17741  1.0000
  H   H1048     1.0  0.60765  0.21122  0.23662  1.0000
  C   C1324     1.0  0.53962  0.47137  0.23330  1.0000
  H   H1049     1.0  0.47348  0.23371  0.21386  1.0000
  S   S181      1.0  0.79862  0.97858  0.19680  1.0000
  H   H1050     1.0  0.83511  0.98284  0.10108  1.0000
  C   C1325     1.0  0.78068  0.09794  0.24053  1.0000
  C   C1326     1.0  0.93018  0.98727  0.23787  1.0000
  C   C1327     1.0  0.46461  0.23434  0.24088  1.0000
  H   H1051     1.0  0.93873  0.00942  0.24060  1.0000
  S   S182      1.0  0.88202  0.14121  0.99143  1.0000
  Fe  Fe92      1.0  0.82797  0.40695  0.39490  1.0000
  S   S183      1.0  0.85800  0.39386  0.38213  1.0000
  H   H1052     1.0  0.80100  0.44752  0.25874  1.0000
  H   H1053     1.0  0.51241  0.03467  0.28888  1.0000
  S   S184      1.0  0.86691  0.44643  0.35395  1.0000
  Fe  Fe93      1.0  0.83670  0.40110  0.35636  1.0000
  S   S185      1.0  0.82216  0.37558  0.33132  1.0000
  H   H1054     1.0  0.58757  0.26867  0.43748  1.0000
  S   S186      1.0  0.80496  0.41110  0.36932  1.0000
  C   C1328     1.0  0.58465  0.42598  0.27953  1.0000
  H   H1055     1.0  0.67484  0.26858  0.47524  1.0000
  S   S187      1.0  0.50745  0.07071  0.39894  1.0000
  H   H1056     1.0  0.88069  0.37432  0.33778  1.0000
  S   S188      1.0  0.49990  0.11645  0.36941  1.0000
  C   C1329     1.0  0.66394  0.17144  0.45372  1.0000
  Fe  Fe94      1.0  0.52464  0.08941  0.37268  1.0000
  S   S189      1.0  0.57199  0.11082  0.37019  1.0000
  Fe  Fe95      1.0  0.48044  0.09537  0.39437  1.0000
  C   C1330     1.0  0.48060  0.34568  0.24516  1.0000
  Fe  Fe96      1.0  0.47271  0.03651  0.38415  1.0000
  S   S190      1.0  0.46753  0.38362  0.47622  1.0000
  Fe  Fe97      1.0  0.72624  0.16919  0.27434  1.0000
  S   S191      1.0  0.74966  0.21620  0.27176  1.0000
  S   S192      1.0  0.73437  0.13358  0.26250  1.0000
  Fe  Fe98      1.0  0.67551  0.17488  0.29016  1.0000
  S   S193      1.0  0.69496  0.22193  0.28769  1.0000
  S   S194      1.0  0.63000  0.15158  0.29697  1.0000
  Fe  Fe99      1.0  0.70821  0.21668  0.26134  1.0000
  Fe  Fe100     1.0  0.73466  0.21798  0.29854  1.0000
  S   S195      1.0  0.75762  0.24321  0.32276  1.0000
  S   S196      1.0  0.68545  0.17012  0.26271  1.0000
  S   S197      1.0  0.71447  0.17053  0.30218  1.0000
  H   H1057     1.0  0.77076  0.05486  0.38488  1.0000
  H   H1058     1.0  0.79453  0.16858  0.26188  1.0000
  H   H1059     1.0  0.48095  0.45057  0.42573  1.0000
  Fe  Fe101     1.0  0.50369  0.42476  0.37904  1.0000
  S   S198      1.0  0.52808  0.42017  0.40442  1.0000
  S   S199      1.0  0.50543  0.40378  0.35454  1.0000
  H   H1060     1.0  0.94828  0.44566  0.35892  1.0000
  C   C1331     1.0  0.51092  0.41085  0.42427  1.0000
  C   C1332     1.0  0.48202  0.39616  0.42422  1.0000
  C   C1333     1.0  0.93204  0.45233  0.33261  1.0000
  C   C1334     1.0  0.48474  0.39420  0.45643  1.0000
  C   C1335     1.0  0.51361  0.40893  0.45651  1.0000
  C   C1336     1.0  0.52668  0.41701  0.44046  1.0000
  H   H1061     1.0  0.72499  0.41344  0.46578  1.0000
  H   H1062     1.0  0.73249  0.03039  0.27848  1.0000
  C   C1337     1.0  0.59160  0.37531  0.44191  1.0000
  C   C1338     1.0  0.76322  0.12864  0.25451  1.0000
  C   C1339     1.0  0.50174  0.38047  0.27412  1.0000
  C   C1340     1.0  0.79049  0.14884  0.25604  1.0000
  H   H1063     1.0  0.78192  0.35876  0.45119  1.0000
  C   C1341     1.0  0.55799  0.17362  0.31174  1.0000
  C   C1342     1.0  0.79391  0.08568  0.28617  1.0000
  H   H1064     1.0  0.50961  0.39371  0.28542  1.0000
  C   C1343     1.0  0.56948  0.37434  0.41239  1.0000
  H   H1065     1.0  0.46975  0.39091  0.41184  1.0000
  C   C1344     1.0  0.61467  0.14021  0.31758  1.0000
  C   C1345     1.0  0.58561  0.12539  0.31764  1.0000
  C   C1346     1.0  0.57228  0.11645  0.33358  1.0000
  C   C1347     1.0  0.58795  0.12160  0.34974  1.0000
  C   C1348     1.0  0.61713  0.13578  0.34971  1.0000
  C   C1349     1.0  0.63041  0.14536  0.33374  1.0000
  H   H1066     1.0  0.57321  0.12075  0.30528  1.0000
  H   H1067     1.0  0.54987  0.10540  0.33336  1.0000
  H   H1068     1.0  0.62953  0.13937  0.36211  1.0000
  H   H1069     1.0  0.65279  0.15643  0.33389  1.0000
  C   C1350     1.0  0.49399  0.12671  0.43427  1.0000
  C   C1351     1.0  0.51581  0.11740  0.43644  1.0000
  C   C1352     1.0  0.53222  0.12116  0.45235  1.0000
  C   C1353     1.0  0.52703  0.13434  0.46624  1.0000
  C   C1354     1.0  0.50553  0.14421  0.46408  1.0000
  C   C1355     1.0  0.48899  0.14034  0.44810  1.0000
  H   H1070     1.0  0.52030  0.10750  0.42583  1.0000
  H   H1071     1.0  0.54904  0.11382  0.45389  1.0000
  H   H1072     1.0  0.50159  0.15464  0.47473  1.0000
  H   H1073     1.0  0.63067  0.15435  0.40609  1.0000
  C   C1356     1.0  0.80268  0.33886  0.32943  1.0000
  C   C1357     1.0  0.79730  0.32011  0.34410  1.0000
  C   C1358     1.0  0.78324  0.29098  0.34181  1.0000
  C   C1359     1.0  0.77406  0.28024  0.32488  1.0000
  C   C1360     1.0  0.77869  0.29906  0.31026  1.0000
  C   C1361     1.0  0.79304  0.32815  0.31254  1.0000
  H   H1074     1.0  0.80451  0.32797  0.35718  1.0000
  H   H1075     1.0  0.77970  0.27666  0.35323  1.0000
  H   H1076     1.0  0.77181  0.29116  0.29716  1.0000
  H   H1077     1.0  0.79712  0.34245  0.30112  1.0000
  C   C1362     1.0  0.79925  0.39718  0.43555  1.0000
  C   C1363     1.0  0.80626  0.42618  0.43491  1.0000
  C   C1364     1.0  0.80107  0.43896  0.44913  1.0000
  C   C1365     1.0  0.78885  0.42287  0.46407  1.0000
  C   C1366     1.0  0.78198  0.39392  0.46476  1.0000
  C   C1367     1.0  0.78719  0.38114  0.45054  1.0000
  H   H1078     1.0  0.81540  0.43874  0.42340  1.0000
  H   H1079     1.0  0.67528  0.13599  0.45214  1.0000
  H   H1080     1.0  0.77256  0.38133  0.47621  1.0000
  H   H1081     1.0  0.54903  0.42827  0.44055  1.0000
  C   C1368     1.0  0.70976  0.17589  0.35291  1.0000
  C   C1369     1.0  0.70569  0.15841  0.36812  1.0000
  C   C1370     1.0  0.69551  0.16492  0.38286  1.0000
  C   C1371     1.0  0.68930  0.18886  0.38236  1.0000
  C   C1372     1.0  0.69283  0.20623  0.36699  1.0000
  C   C1373     1.0  0.70338  0.19972  0.35231  1.0000
  P   P43       1.0  0.68484  0.23714  0.36654  1.0000
  C   C1374     1.0  0.65263  0.22774  0.37735  1.0000
  C   C1375     1.0  0.71348  0.26580  0.37689  1.0000
  C   C1376     1.0  0.73652  0.26159  0.38549  1.0000
  C   C1377     1.0  0.75930  0.28427  0.39246  1.0000
  C   C1378     1.0  0.75930  0.31128  0.39090  1.0000
  C   C1379     1.0  0.73654  0.31568  0.38232  1.0000
  C   C1380     1.0  0.71378  0.29309  0.37526  1.0000
  C   C1381     1.0  0.63084  0.20153  0.37445  1.0000
  C   C1382     1.0  0.60560  0.19402  0.38234  1.0000
  C   C1383     1.0  0.60186  0.21262  0.39328  1.0000
  C   C1384     1.0  0.62357  0.23856  0.39653  1.0000
  C   C1385     1.0  0.64889  0.24610  0.38864  1.0000
  C   C1386     1.0  0.67978  0.24769  0.34377  1.0000
  C   C1387     1.0  0.70234  0.26742  0.33501  1.0000
  C   C1388     1.0  0.69882  0.27533  0.31733  1.0000
  C   C1389     1.0  0.67279  0.26342  0.30818  1.0000
  C   C1390     1.0  0.65041  0.24326  0.31663  1.0000
  C   C1391     1.0  0.65386  0.23538  0.33435  1.0000
  H   H1082     1.0  0.71785  0.17108  0.34148  1.0000
  H   H1083     1.0  0.71052  0.13989  0.36851  1.0000
  H   H1084     1.0  0.69247  0.15143  0.39468  1.0000
  H   H1085     1.0  0.68170  0.19382  0.39393  1.0000
  H   H1086     1.0  0.70667  0.21289  0.34035  1.0000
  H   H1087     1.0  0.73736  0.24103  0.38653  1.0000
  H   H1088     1.0  0.77721  0.28105  0.39889  1.0000
  H   H1089     1.0  0.77707  0.32890  0.39621  1.0000
  H   H1090     1.0  0.73685  0.33675  0.38097  1.0000
  H   H1091     1.0  0.69663  0.29699  0.36823  1.0000
  H   H1092     1.0  0.63324  0.18690  0.36593  1.0000
  H   H1093     1.0  0.58897  0.17364  0.37998  1.0000
  H   H1094     1.0  0.58230  0.20670  0.39944  1.0000
  H   H1095     1.0  0.62079  0.25282  0.40520  1.0000
  H   H1096     1.0  0.66534  0.26622  0.39142  1.0000
  H   H1097     1.0  0.72294  0.27622  0.34163  1.0000
  H   H1098     1.0  0.71661  0.29002  0.31065  1.0000
  H   H1099     1.0  0.67024  0.26892  0.29433  1.0000
  H   H1100     1.0  0.63054  0.23316  0.30932  1.0000
  H   H1101     1.0  0.63641  0.21929  0.34042  1.0000
  H   H1102     1.0  0.66705  0.29811  0.24327  1.0000
  H   H1103     1.0  0.71796  0.05361  0.30061  1.0000
  H   H1104     1.0  0.74247  0.30311  0.26434  1.0000
  C   C1392     1.0  0.84271  0.46511  0.27058  1.0000
  C   C1393     1.0  0.89437  0.45967  0.48285  1.0000
  H   H1105     1.0  0.86174  0.45345  0.31338  1.0000
  P   P44       1.0  0.48079  0.25464  0.44870  1.0000
  C   C1394     1.0  0.48900  0.28677  0.43525  1.0000
  C   C1395     1.0  0.51247  0.25345  0.45980  1.0000
  C   C1396     1.0  0.53494  0.27818  0.46478  1.0000
  C   C1397     1.0  0.55886  0.27693  0.47388  1.0000
  H   H1106     1.0  0.90935  0.45203  0.30740  1.0000
  C   C1398     1.0  0.59138  0.19950  0.24543  1.0000
  C   C1399     1.0  0.51444  0.22746  0.46418  1.0000
  C   C1400     1.0  0.48772  0.28648  0.41674  1.0000
  C   C1401     1.0  0.49264  0.31132  0.40653  1.0000
  C   C1402     1.0  0.49920  0.33661  0.41472  1.0000
  C   C1403     1.0  0.50115  0.33715  0.43310  1.0000
  C   C1404     1.0  0.49582  0.31240  0.44332  1.0000
  H   H1107     1.0  0.52563  0.19070  0.25398  1.0000
  C   C1405     1.0  0.91003  0.44987  0.44944  1.0000
  H   H1108     1.0  0.74198  0.41192  0.35816  1.0000
  H   H1109     1.0  0.80641  0.46137  0.44851  1.0000
  C   C1406     1.0  0.81274  0.14328  0.25028  1.0000
  H   H1110     1.0  0.95411  0.97643  0.25920  1.0000
  H   H1111     1.0  0.63553  0.09716  0.31053  1.0000
  H   H1112     1.0  0.86576  0.43523  0.44194  1.0000
  C   C1407     1.0  0.67204  0.21644  0.49042  1.0000
  C   C1408     1.0  0.53282  0.04877  0.46095  1.0000
  C   C1409     1.0  0.71907  0.30055  0.44303  1.0000
  H   H1113     1.0  0.53405  0.29849  0.46204  1.0000
  H   H1114     1.0  0.57570  0.29609  0.47806  1.0000
  H   H1115     1.0  0.95279  0.42035  0.43630  1.0000
  C   C1410     1.0  0.65329  0.14276  0.42814  1.0000
  H   H1116     1.0  0.49723  0.20792  0.46106  1.0000
  H   H1117     1.0  0.61539  0.28028  0.24278  1.0000
  H   H1118     1.0  0.49090  0.31097  0.39225  1.0000
  H   H1119     1.0  0.50292  0.35590  0.40684  1.0000
  H   H1120     1.0  0.50651  0.35677  0.43947  1.0000
  H   H1121     1.0  0.49658  0.31330  0.45756  1.0000
  H   H1122     1.0  0.49762  0.16037  0.34194  1.0000
  C   C1411     1.0  0.93381  0.42350  0.43775  1.0000
  H   H1123     1.0  0.90876  0.39080  0.42021  1.0000
  S   S200      1.0  0.46386  0.99239  0.39740  1.0000
  H   H1124     1.0  0.50187  0.23003  0.42293  1.0000
  Fe  Fe102     1.0  0.51175  0.44538  0.34039  1.0000
  H   H1125     1.0  0.53982  0.20616  0.47646  1.0000
  C   C1412     1.0  0.46653  0.28475  0.31181  1.0000
  H   H1126     1.0  0.75187  0.45210  0.30671  1.0000
  H   H1127     1.0  0.86520  0.39778  0.42362  1.0000
  H   H1128     1.0  0.55213  0.35463  0.46722  1.0000
  C   C1413     1.0  0.51460  0.16468  0.33350  1.0000
  H   H1129     1.0  0.53157  0.36120  0.27864  1.0000
  C   C1414     1.0  0.53853  0.22631  0.47309  1.0000
  H   H1130     1.0  0.61703  0.43324  0.30040  1.0000
  C   C1415     1.0  0.58582  0.34653  0.44118  1.0000
  C   C1416     1.0  0.89355  0.41167  0.32085  1.0000
  S   S201      1.0  0.78244  0.43951  0.48164  1.0000
  H   H1131     1.0  0.53079  0.06385  0.26199  1.0000
  C   C1417     1.0  0.56592  0.19766  0.43843  1.0000
  H   H1132     1.0  0.80717  0.09786  0.37252  1.0000
  H   H1133     1.0  0.48212  0.26714  0.41004  1.0000
  H   H1134     1.0  0.47662  0.11139  0.25934  1.0000
  H   H1135     1.0  0.48696  0.14620  0.31134  1.0000
  C   C1418     1.0  0.56604  0.20296  0.24398  1.0000
  C   C1419     1.0  0.77469  0.06099  0.27890  1.0000
  C   C1420     1.0  0.66516  0.42144  0.47290  1.0000
  C   C1421     1.0  0.73913  0.06296  0.29656  1.0000
  C   C1422     1.0  0.48828  0.01204  0.45310  1.0000
  S   S202      1.0  0.80486  0.38025  0.41781  1.0000
  H   H1136     1.0  0.64165  0.36678  0.44527  1.0000
  C   C1423     1.0  0.56070  0.25101  0.47801  1.0000
  C   C1424     1.0  0.50859  0.15685  0.31596  1.0000
  C   C1425     1.0  0.65569  0.38337  0.45341  1.0000
  H   H1137     1.0  0.61535  0.17793  0.25947  1.0000
  H   H1138     1.0  0.71314  0.31327  0.46826  1.0000
  C   C1426     1.0  0.63283  0.45700  0.27658  1.0000
  C   C1427     1.0  0.65656  0.09773  0.31242  1.0000
  C   C1428     1.0  0.93426  0.44466  0.44835  1.0000
  C   C1429     1.0  0.46439  0.22383  0.43569  1.0000
  C   C1430     1.0  0.50809  0.09532  0.29960  1.0000
  H   H1139     1.0  0.65983  0.09345  0.28486  1.0000
  C   C1431     1.0  0.56473  0.35545  0.47940  1.0000
  C   C1432     1.0  0.74525  0.41156  0.34433  1.0000
  S   S203      1.0  0.53945  0.45916  0.31660  1.0000
  H   H1140     1.0  0.70275  0.46637  0.24409  1.0000
  C   C1433     1.0  0.68467  0.27098  0.46295  1.0000
  C   C1434     1.0  0.75856  0.10312  0.24681  1.0000
  H   H1141     1.0  0.56842  0.41210  0.28770  1.0000
  C   C1435     1.0  0.47963  0.46405  0.43557  1.0000
  H   H1142     1.0  0.70765  0.31236  0.28011  1.0000
  H   H1143     1.0  0.77459  0.47243  0.27797  1.0000
  H   H1144     1.0  0.85190  0.44936  0.47193  1.0000
  H   H1145     1.0  0.49173  0.31400  0.33125  1.0000
  H   H1146     1.0  0.46550  0.28661  0.35618  1.0000
  C   C1436     1.0  0.62229  0.44946  0.44988  1.0000
  C   C1437     1.0  0.72717  0.32939  0.27728  1.0000
  H   H1147     1.0  0.73588  0.32042  0.43994  1.0000
  C   C1438     1.0  0.75559  0.45941  0.27079  1.0000
  C   C1439     1.0  0.74634  0.43003  0.27200  1.0000
  C   C1440     1.0  0.72111  0.41388  0.26286  1.0000
  P   P45       1.0  0.76553  0.41348  0.28638  1.0000
  C   C1441     1.0  0.75586  0.41184  0.30876  1.0000
  C   C1442     1.0  0.75828  0.37858  0.27920  1.0000
  C   C1443     1.0  0.73292  0.35640  0.28280  1.0000
  H   H1148     1.0  0.55243  0.06470  0.45707  1.0000
  C   C1444     1.0  0.74679  0.32419  0.26835  1.0000
  C   C1445     1.0  0.77214  0.34608  0.26482  1.0000
  C   C1446     1.0  0.77786  0.37319  0.27014  1.0000
  S   S204      1.0  0.85633  0.45246  0.39530  1.0000
  C   C1447     1.0  0.57794  0.43315  0.26217  1.0000
  H   H1149     1.0  0.78760  0.34191  0.25823  1.0000
  C   C1448     1.0  0.75035  0.38941  0.33812  1.0000
  C   C1449     1.0  0.75598  0.38968  0.32047  1.0000
  C   C1450     1.0  0.80254  0.43419  0.28618  1.0000
  C   C1451     1.0  0.81413  0.44874  0.27068  1.0000
  S   S205      1.0  0.54821  0.13825  0.48590  1.0000
  C   C1452     1.0  0.93363  0.43632  0.34800  1.0000
  C   C1453     1.0  0.84861  0.45212  0.30136  1.0000
  C   C1454     1.0  0.82007  0.43575  0.30149  1.0000
  H   H1150     1.0  0.54736  0.17895  0.43582  1.0000
  C   C1455     1.0  0.53022  0.16129  0.30488  1.0000
  C   C1456     1.0  0.74563  0.43394  0.33286  1.0000
  C   C1457     1.0  0.52447  0.07269  0.27249  1.0000
  H   H1151     1.0  0.71320  0.39126  0.26359  1.0000
  H   H1152     1.0  0.71768  0.36000  0.28997  1.0000
  H   H1153     1.0  0.48136  0.18476  0.40799  1.0000
  C   C1458     1.0  0.68410  0.38830  0.45454  1.0000
  C   C1459     1.0  0.61488  0.21932  0.44846  1.0000
  H   H1154     1.0  0.79775  0.38967  0.26742  1.0000
  C   C1460     1.0  0.64030  0.15935  0.41931  1.0000
  H   H1155     1.0  0.78098  0.05098  0.26900  1.0000
  H   H1156     1.0  0.75119  0.37260  0.34715  1.0000
  H   H1157     1.0  0.76157  0.37315  0.31625  1.0000
  H   H1158     1.0  0.56267  0.38513  0.40138  1.0000
  H   H1159     1.0  0.68226  0.23679  0.42577  1.0000
  H   H1160     1.0  0.81500  0.09469  0.28186  1.0000
  C   C1461     1.0  0.58566  0.45791  0.47126  1.0000
  H   H1161     1.0  0.81186  0.42455  0.31363  1.0000
  C   C1462     1.0  0.67031  0.10150  0.32920  1.0000
  C   C1463     1.0  0.69749  0.09676  0.30029  1.0000
  C   C1464     1.0  0.71136  0.10012  0.31712  1.0000
  C   C1465     1.0  0.69769  0.10293  0.33154  1.0000
  P   P46       1.0  0.74774  0.10536  0.31988  1.0000
  C   C1466     1.0  0.76674  0.14292  0.31930  1.0000
  C   C1467     1.0  0.75476  0.08981  0.34070  1.0000
  C   C1468     1.0  0.78112  0.10135  0.34969  1.0000
  C   C1469     1.0  0.46440  0.45246  0.45039  1.0000
  H   H1162     1.0  0.72017  0.28214  0.41882  1.0000
  H   H1163     1.0  0.60260  0.18256  0.47929  1.0000
  C   C1470     1.0  0.73447  0.06513  0.34755  1.0000
  C   C1471     1.0  0.76922  0.15821  0.33432  1.0000
  C   C1472     1.0  0.78265  0.18748  0.33363  1.0000
  C   C1473     1.0  0.79362  0.20164  0.31797  1.0000
  C   C1474     1.0  0.79084  0.18661  0.30293  1.0000
  C   C1475     1.0  0.77720  0.15741  0.30354  1.0000
  C   C1476     1.0  0.75811  0.08825  0.30356  1.0000
  C   C1477     1.0  0.78581  0.09905  0.29865  1.0000
  S   S206      1.0  0.93163  0.45138  0.39139  1.0000
  C   C1478     1.0  0.70626  0.29657  0.45893  1.0000
  H   H1164     1.0  0.47779  0.29711  0.30081  1.0000
  H   H1165     1.0  0.91636  0.39628  0.36191  1.0000
  H   H1166     1.0  0.87729  0.40222  0.31066  1.0000
  C   C1479     1.0  0.91171  0.43983  0.31909  1.0000
  H   H1167     1.0  0.70831  0.10660  0.34452  1.0000
  H   H1168     1.0  0.79740  0.11981  0.34429  1.0000
  C   C1480     1.0  0.65055  0.18797  0.44504  1.0000
  H   H1169     1.0  0.70821  0.44268  0.48215  1.0000
  H   H1170     1.0  0.71433  0.05533  0.34049  1.0000
  H   H1171     1.0  0.76036  0.14762  0.34644  1.0000
  H   H1172     1.0  0.78402  0.19941  0.34506  1.0000
  H   H1173     1.0  0.80354  0.22437  0.31737  1.0000
  H   H1174     1.0  0.79866  0.19762  0.29065  1.0000
  H   H1175     1.0  0.77438  0.14626  0.29161  1.0000
  H   H1176     1.0  0.80118  0.11795  0.30427  1.0000
  C   C1481     1.0  0.50582  0.06752  0.30112  1.0000
  C   C1482     1.0  0.51407  0.36215  0.27029  1.0000
  C   C1483     1.0  0.60639  0.42752  0.46121  1.0000
  C   C1484     1.0  0.67018  0.09547  0.29797  1.0000
  C   C1485     1.0  0.47426  0.29429  0.32895  1.0000
  C   C1486     1.0  0.70552  0.42693  0.25277  1.0000
  H   H1177     1.0  0.51901  0.03443  0.43450  1.0000
  P   P47       1.0  0.60927  0.39392  0.46153  1.0000
  H   H1178     1.0  0.53446  0.11280  0.25900  1.0000
  C   C1487     1.0  0.68879  0.25318  0.43520  1.0000
  C   C1488     1.0  0.50357  0.34483  0.25587  1.0000
  C   C1489     1.0  0.54226  0.17651  0.34029  1.0000
  H   H1179     1.0  0.83381  0.15881  0.25188  1.0000
  H   H1180     1.0  0.73777  0.08695  0.24600  1.0000
  C   C1490     1.0  0.75085  0.43409  0.31514  1.0000
  C   C1491     1.0  0.59075  0.19521  0.44492  1.0000
  H   H1181     1.0  0.72444  0.03365  0.36874  1.0000
  H   H1182     1.0  0.58532  0.18919  0.33482  1.0000
  C   C1492     1.0  0.88452  0.41093  0.43046  1.0000
  C   C1493     1.0  0.61205  0.43793  0.28673  1.0000
  H   H1183     1.0  0.58594  0.41083  0.42775  1.0000
  H   H1184     1.0  0.65981  0.10383  0.34029  1.0000
  P   P48       1.0  0.64732  0.21616  0.45618  1.0000
  C   C1494     1.0  0.59325  0.37283  0.48056  1.0000
  C   C1495     1.0  0.91546  0.40819  0.34975  1.0000
  C   C1496     1.0  0.76629  0.06461  0.37258  1.0000
  H   H1185     1.0  0.55641  0.42416  0.25713  1.0000
  C   C1497     1.0  0.67611  0.24884  0.45129  1.0000
  C   C1498     1.0  0.51413  0.05622  0.28762  1.0000
  S   S207      1.0  0.51348  0.46728  0.36536  1.0000
  S   S208      1.0  0.49233  0.05343  0.35802  1.0000
  C   C1499     1.0  0.78678  0.08887  0.36564  1.0000
  H   H1186     1.0  0.59191  0.33550  0.45230  1.0000
  C   C1500     1.0  0.57228  0.33191  0.42608  1.0000
  H   H1187     1.0  0.70788  0.09571  0.28886  1.0000
  C   C1501     1.0  0.64712  0.20734  0.47963  1.0000
  C   C1502     1.0  0.89540  0.39587  0.33620  1.0000
  C   C1503     1.0  0.74019  0.05270  0.36350  1.0000
  H   H1188     1.0  0.51321  0.33060  0.25315  1.0000
  C   C1504     1.0  0.56393  0.18100  0.32941  1.0000
  C   C1505     1.0  0.64594  0.39988  0.46264  1.0000
  C   C1506     1.0  0.51887  0.11221  0.28458  1.0000
  H   H1189     1.0  0.52581  0.41402  0.46894  1.0000
  H   H1190     1.0  0.56780  0.30974  0.42561  1.0000
  H   H1191     1.0  0.65822  0.43445  0.48013  1.0000
  Fe  Fe103     1.0  0.83581  0.45571  0.36830  1.0000
  C   C1507     1.0  0.69351  0.42625  0.47403  1.0000
  C   C1508     1.0  0.62616  0.46452  0.25931  1.0000
  C   C1509     1.0  0.56443  0.34592  0.41161  1.0000
  H   H1192     1.0  0.74272  0.45164  0.33782  1.0000
  H   H1193     1.0  0.69178  0.22914  0.48499  1.0000
  C   C1510     1.0  0.52668  0.10052  0.27090  1.0000
  C   C1511     1.0  0.88497  0.43231  0.44082  1.0000
  C   C1512     1.0  0.58286  0.38898  0.42748  1.0000
  C   C1513     1.0  0.74736  0.04954  0.28416  1.0000
  Fe  Fe104     1.0  0.88565  0.44026  0.38119  1.0000
  H   H1194     1.0  0.49751  0.05477  0.31282  1.0000
  H   H1195     1.0  0.59097  0.17442  0.44728  1.0000
  C   C1514     1.0  0.58819  0.43198  0.47200  1.0000
  H   H1196     1.0  0.55395  0.33472  0.39988  1.0000
  C   C1515     1.0  0.51399  0.03186  0.44823  1.0000
  H   H1197     1.0  0.67305  0.17561  0.46707  1.0000
  H   H1198     1.0  0.57514  0.17651  0.30380  1.0000
  H   H1199     1.0  0.62903  0.19458  0.42069  1.0000
  C   C1516     1.0  0.90899  0.40678  0.42872  1.0000
  C   C1517     1.0  0.61351  0.24585  0.44578  1.0000
  H   H1200     1.0  0.57839  0.15055  0.27915  1.0000
  C   C1518     1.0  0.58860  0.24819  0.43931  1.0000
  C   C1519     1.0  0.54927  0.16872  0.26825  1.0000
  H   H1201     1.0  0.54683  0.18140  0.35411  1.0000
  C   C1520     1.0  0.71024  0.27892  0.43114  1.0000
  C   C1521     1.0  0.48132  0.00912  0.47069  1.0000
  H   H1202     1.0  0.69162  0.37554  0.44746  1.0000
  C   C1522     1.0  0.46880  0.19100  0.41605  1.0000
  C   C1523     1.0  0.52607  0.04569  0.47858  1.0000
  H   H1203     1.0  0.54549  0.22583  0.43077  1.0000
  C   C1524     1.0  0.54508  0.18773  0.25537  1.0000
  C   C1525     1.0  0.57473  0.16529  0.26950  1.0000
  C   C1526     1.0  0.85995  0.46685  0.28594  1.0000
  C   C1527     1.0  0.46903  0.38769  0.44024  1.0000
  H   H1204     1.0  0.65378  0.12493  0.42175  1.0000
  C   C1528     1.0  0.63920  0.18202  0.42767  1.0000
  H   H1205     1.0  0.63154  0.26477  0.44875  1.0000
  C   C1529     1.0  0.66529  0.14893  0.44527  1.0000
  S   S209      1.0  0.47304  0.12177  0.41436  1.0000
  C   C1530     1.0  0.56488  0.22411  0.43554  1.0000
  C   C1531     1.0  0.70299  0.40972  0.46484  1.0000
  C   C1532     1.0  0.48147  0.17112  0.27809  1.0000
  H   H1206     1.0  0.57908  0.24993  0.48527  1.0000
  H   H1207     1.0  0.57598  0.41570  0.48111  1.0000
  H   H1208     1.0  0.65389  0.46692  0.28239  1.0000
  H   H1209     1.0  0.54052  0.05988  0.48804  1.0000
  P   P49       1.0  0.52209  0.14831  0.28277  1.0000
  H   H1210     1.0  0.49505  0.18755  0.28659  1.0000
  Fe  Fe105     1.0  0.46656  0.08006  0.35598  1.0000
  H   H1211     1.0  0.47725  0.18384  0.36390  1.0000
  C   C1533     1.0  0.47120  0.12843  0.26276  1.0000
  C   C1534     1.0  0.47890  0.38144  0.26354  1.0000
  C   C1535     1.0  0.48032  0.21645  0.42458  1.0000
  C   C1536     1.0  0.59572  0.18071  0.25824  1.0000
  C   C1537     1.0  0.86519  0.44787  0.48337  1.0000
  H   H1212     1.0  0.68603  0.41442  0.24585  1.0000
  C   C1538     1.0  0.71489  0.45616  0.25176  1.0000
  H   H1213     1.0  0.50133  0.10338  0.31024  1.0000
  H   H1214     1.0  0.46908  0.39530  0.26674  1.0000
  C   C1539     1.0  0.62210  0.19030  0.48718  1.0000
  C   C1540     1.0  0.48904  0.14910  0.27413  1.0000
  C   C1541     1.0  0.50049  0.02532  0.48370  1.0000
  S   S210      1.0  0.46529  0.43417  0.33515  1.0000
  H   H1215     1.0  0.57171  0.46122  0.47976  1.0000
  C   C1542     1.0  0.80801  0.11788  0.24240  1.0000
  C   C1543     1.0  0.74006  0.47235  0.26062  1.0000
  Fe  Fe106     1.0  0.46664  0.45305  0.36142  1.0000
  C   C1544     1.0  0.59866  0.45267  0.25193  1.0000
  H   H1216     1.0  0.47220  0.14773  0.44650  1.0000
  C   C1545     1.0  0.46828  0.36409  0.24915  1.0000
  H   H1217     1.0  0.47119  0.10831  0.48969  1.0000
  H   H1218     1.0  0.46762  0.22283  0.48234  1.0000
  H   H1219     1.0  0.46545  0.22504  0.35600  1.0000
  H   H1220     1.0  0.63649  0.44645  0.44146  1.0000
  H   H1221     1.0  0.47358  0.99948  0.44303  1.0000
  H   H1222     1.0  0.95360  0.45703  0.45543  1.0000
  Fe  Fe107     1.0  0.51583  0.19248  0.52682  1.0000
  S   S211      1.0  0.53036  0.18243  0.55422  1.0000
  C   C1546     1.0  0.47105  0.06359  0.56285  1.0000
  Fe  Fe108     1.0  0.53865  0.15553  0.50972  1.0000
  S   S212      1.0  0.55590  0.14388  0.53560  1.0000
  C   C1547     1.0  0.91081  0.45588  0.49763  1.0000
  Fe  Fe109     1.0  0.51453  0.13725  0.54581  1.0000
  S   S213      1.0  0.49906  0.09739  0.56405  1.0000
  Fe  Fe110     1.0  0.57014  0.18926  0.54163  1.0000
  S   S214      1.0  0.61286  0.21460  0.55443  1.0000
  S   S215      1.0  0.49659  0.14689  0.51931  1.0000
  S   S216      1.0  0.55636  0.20133  0.51491  1.0000
  Fe  Fe111     1.0  0.76450  0.41268  0.50587  1.0000
  S   S217      1.0  0.77875  0.37907  0.51723  1.0000
  Fe  Fe112     1.0  0.72524  0.40454  0.53519  1.0000
  S   S218      1.0  0.73759  0.37084  0.54889  1.0000
  S   S219      1.0  0.69199  0.41226  0.54881  1.0000
  Fe  Fe113     1.0  0.78212  0.39898  0.54326  1.0000
  S   S220      1.0  0.81768  0.40602  0.56498  1.0000
  Fe  Fe114     1.0  0.73311  0.35447  0.52182  1.0000
  S   S221      1.0  0.70657  0.31076  0.51218  1.0000
  S   S222      1.0  0.76980  0.43375  0.53159  1.0000
  S   S223      1.0  0.71889  0.38696  0.50842  1.0000
  Fe  Fe115     1.0  0.49609  0.42816  0.53604  1.0000
  C   C1548     1.0  0.47914  0.02876  0.61570  1.0000
  H   H1223     1.0  0.54606  0.08458  0.55429  1.0000
  Fe  Fe116     1.0  0.54908  0.42521  0.52220  1.0000
  S   S224      1.0  0.52638  0.38183  0.51232  1.0000
  S   S225      1.0  0.59439  0.44866  0.51587  1.0000
  Fe  Fe117     1.0  0.49249  0.39635  0.50235  1.0000
  C   C1549     1.0  0.89554  0.45398  0.58615  1.0000
  Fe  Fe118     1.0  0.50593  0.37276  0.53795  1.0000
  S   S226      1.0  0.50267  0.33278  0.55386  1.0000
  S   S227      1.0  0.51657  0.44068  0.51004  1.0000
  S   S228      1.0  0.53075  0.41583  0.54876  1.0000
  H   H1224     1.0  0.49278  0.27528  0.50308  1.0000
  H   H1225     1.0  0.69375  0.29579  0.60033  1.0000
  C   C1550     1.0  0.60239  0.34424  0.57617  1.0000
  C   C1551     1.0  0.66407  0.42000  0.53825  1.0000
  C   C1552     1.0  0.89828  0.44186  0.51297  1.0000
  H   H1226     1.0  0.90257  0.01561  0.72231  1.0000
  C   C1553     1.0  0.62039  0.43623  0.52413  1.0000
  C   C1554     1.0  0.61771  0.42044  0.53998  1.0000
  C   C1555     1.0  0.63956  0.41270  0.54712  1.0000
  C   C1556     1.0  0.54524  0.06931  0.54500  1.0000
  H   H1227     1.0  0.47036  0.34664  0.57798  1.0000
  H   H1228     1.0  0.59929  0.41545  0.54710  1.0000
  H   H1229     1.0  0.63765  0.40146  0.55977  1.0000
  C   C1557     1.0  0.50245  0.25569  0.52723  1.0000
  C   C1558     1.0  0.50927  0.25892  0.54536  1.0000
  C   C1559     1.0  0.50992  0.28294  0.55335  1.0000
  C   C1560     1.0  0.50399  0.30398  0.54329  1.0000
  C   C1561     1.0  0.55171  0.25895  0.60113  1.0000
  C   C1562     1.0  0.50814  0.99789  0.60052  1.0000
  H   H1230     1.0  0.51315  0.24254  0.55332  1.0000
  H   H1231     1.0  0.51453  0.28497  0.56745  1.0000
  H   H1232     1.0  0.71160  0.38191  0.58435  1.0000
  C   C1563     1.0  0.47277  0.98845  0.51529  1.0000
  C   C1564     1.0  0.63706  0.24348  0.54275  1.0000
  C   C1565     1.0  0.63424  0.24666  0.52438  1.0000
  C   C1566     1.0  0.65542  0.26769  0.51524  1.0000
  C   C1567     1.0  0.67912  0.28661  0.52438  1.0000
  C   C1568     1.0  0.68123  0.28452  0.54284  1.0000
  C   C1569     1.0  0.66050  0.26273  0.55195  1.0000
  H   H1233     1.0  0.61634  0.23216  0.51712  1.0000
  H   H1234     1.0  0.65343  0.26922  0.50102  1.0000
  H   H1235     1.0  0.69938  0.29892  0.55006  1.0000
  H   H1236     1.0  0.66290  0.26048  0.56616  1.0000
  C   C1570     1.0  0.85192  0.43299  0.56769  1.0000
  C   C1571     1.0  0.86366  0.45326  0.55439  1.0000
  H   H1237     1.0  0.53689  0.03044  0.58405  1.0000
  H   H1238     1.0  0.85145  0.45344  0.54220  1.0000
  C   C1572     1.0  0.57269  0.23348  0.58597  1.0000
  H   H1239     1.0  0.58324  0.03406  0.53278  1.0000
  C   C1573     1.0  0.92968  0.05816  0.71676  1.0000
  H   H1240     1.0  0.57249  0.11316  0.59430  1.0000
  H   H1241     1.0  0.50520  0.06569  0.53348  1.0000
  H   H1242     1.0  0.53152  0.99975  0.55974  1.0000
  C   C1574     1.0  0.58884  0.28799  0.52278  1.0000
  C   C1575     1.0  0.61265  0.30235  0.51349  1.0000
  C   C1576     1.0  0.63646  0.32186  0.52194  1.0000
  C   C1577     1.0  0.63677  0.32661  0.53981  1.0000
  C   C1578     1.0  0.61327  0.31164  0.54943  1.0000
  C   C1579     1.0  0.58905  0.29281  0.54065  1.0000
  P   P50       1.0  0.61400  0.31662  0.57278  1.0000
  C   C1580     1.0  0.57245  0.36931  0.56739  1.0000
  C   C1581     1.0  0.65868  0.30486  0.58925  1.0000
  C   C1582     1.0  0.59054  0.28435  0.58288  1.0000
  C   C1583     1.0  0.57055  0.28430  0.59411  1.0000
  C   C1584     1.0  0.61215  0.36040  0.59123  1.0000
  H   H1243     1.0  0.57023  0.27288  0.51630  1.0000
  C   C1585     1.0  0.54279  0.02982  0.52104  1.0000
  C   C1586     1.0  0.50878  0.00043  0.63877  1.0000
  H   H1244     1.0  0.65561  0.34169  0.54600  1.0000
  H   H1245     1.0  0.57042  0.28146  0.54762  1.0000
  S   S229      1.0  0.49745  0.22434  0.51682  1.0000
  H   H1246     1.0  0.64456  0.28316  0.59039  1.0000
  H   H1247     1.0  0.56908  0.30366  0.59729  1.0000
  C   C1587     1.0  0.49754  0.27724  0.51713  1.0000
  C   C1588     1.0  0.69680  0.36047  0.58607  1.0000
  H   H1248     1.0  0.57356  0.33580  0.55303  1.0000
  C   C1589     1.0  0.86925  0.43065  0.51344  1.0000
  C   C1590     1.0  0.58214  0.34855  0.56441  1.0000
  C   C1591     1.0  0.55280  0.23354  0.59708  1.0000
  C   C1592     1.0  0.59184  0.09962  0.61728  1.0000
  H   H1249     1.0  0.64736  0.45653  0.50318  1.0000
  H   H1250     1.0  0.64616  0.18787  0.53001  1.0000
  C   C1593     1.0  0.56611  0.04083  0.53288  1.0000
  H   H1251     1.0  0.56197  0.03863  0.64108  1.0000
  H   H1252     1.0  0.55719  0.37287  0.55808  1.0000
  C   C1594     1.0  0.95940  0.44781  0.61850  1.0000
  H   H1253     1.0  0.46781  0.00312  0.54017  1.0000
  H   H1254     1.0  0.66245  0.36969  0.57432  1.0000
  H   H1255     1.0  0.53811  0.21388  0.60240  1.0000
  H   H1256     1.0  0.58539  0.06923  0.55401  1.0000
  H   H1257     1.0  0.61029  0.39392  0.60561  1.0000
  H   H1258     1.0  0.50090  0.07392  0.61760  1.0000
  H   H1259     1.0  0.60542  0.08082  0.64041  1.0000
  H   H1260     1.0  0.85918  0.41839  0.59413  1.0000
  C   C1595     1.0  0.52036  0.99117  0.57151  1.0000
  H   H1261     1.0  0.52901  0.07127  0.59467  1.0000
  C   C1596     1.0  0.56734  0.06059  0.54486  1.0000
  C   C1597     1.0  0.92401  0.39176  0.56715  1.0000
  C   C1598     1.0  0.90270  0.38456  0.57886  1.0000
  C   C1599     1.0  0.87482  0.37556  0.57238  1.0000
  C   C1600     1.0  0.86798  0.37360  0.55424  1.0000
  C   C1601     1.0  0.88900  0.38018  0.54252  1.0000
  C   C1602     1.0  0.91693  0.38931  0.54892  1.0000
  H   H1262     1.0  0.76874  0.42375  0.57563  1.0000
  H   H1263     1.0  0.54194  0.01433  0.51193  1.0000
  C   C1603     1.0  0.57023  0.09674  0.60443  1.0000
  C   C1604     1.0  0.92318  0.03150  0.72490  1.0000
  C   C1605     1.0  0.68672  0.31196  0.59494  1.0000
  C   C1606     1.0  0.49366  0.00279  0.65252  1.0000
  C   C1607     1.0  0.52325  0.00860  0.58541  1.0000
  C   C1608     1.0  0.86805  0.43368  0.58362  1.0000
  H   H1264     1.0  0.49350  0.31714  0.51721  1.0000
  H   H1265     1.0  0.65503  0.33289  0.51479  1.0000
  C   C1609     1.0  0.52228  0.98161  0.64094  1.0000
  C   C1610     1.0  0.59125  0.25874  0.57877  1.0000
  C   C1611     1.0  0.59545  0.35973  0.51177  1.0000
  H   H1266     1.0  0.96163  0.31600  0.55772  1.0000
  C   C1612     1.0  0.52204  0.05857  0.53307  1.0000
  C   C1613     1.0  0.48110  0.05660  0.61560  1.0000
  H   H1267     1.0  0.90746  0.38638  0.59296  1.0000
  H   H1268     1.0  0.85842  0.37082  0.58138  1.0000
  H   H1269     1.0  0.84635  0.36730  0.54933  1.0000
  H   H1270     1.0  0.88362  0.37861  0.52845  1.0000
  H   H1271     1.0  0.94202  0.44899  0.55854  1.0000
  C   C1614     1.0  0.52074  0.03888  0.52092  1.0000
  C   C1615     1.0  0.56389  0.05457  0.63074  1.0000
  H   H1272     1.0  0.81292  0.46108  0.56723  1.0000
  H   H1273     1.0  0.60608  0.25837  0.56983  1.0000
  C   C1616     1.0  0.58266  0.38576  0.58215  1.0000
  H   H1274     1.0  0.53609  0.25901  0.60958  1.0000
  H   H1275     1.0  0.57363  0.21387  0.58271  1.0000
  H   H1276     1.0  0.72762  0.34513  0.59734  1.0000
  C   C1617     1.0  0.64950  0.32557  0.58184  1.0000
  S   S230      1.0  0.46989  0.38414  0.52739  1.0000
  C   C1618     1.0  0.46948  0.04451  0.50539  1.0000
  S   S231      1.0  0.47715  0.45929  0.54352  1.0000
  H   H1277     1.0  0.61295  0.29822  0.49981  1.0000
  C   C1619     1.0  0.77110  0.44550  0.57543  1.0000
  H   H1278     1.0  0.61096  0.11825  0.61710  1.0000
  C   C1620     1.0  0.54549  0.07282  0.60470  1.0000
  H   H1279     1.0  0.57517  0.40197  0.58425  1.0000
  H   H1280     1.0  0.69072  0.21750  0.51691  1.0000
  H   H1281     1.0  0.85947  0.41942  0.52522  1.0000
  C   C1621     1.0  0.60844  0.37511  0.49693  1.0000
  H   H1282     1.0  0.91103  0.43951  0.52450  1.0000
  H   H1283     1.0  0.72895  0.43569  0.58204  1.0000
  H   H1284     1.0  0.48314  0.01719  0.65123  1.0000
  C   C1622     1.0  0.66882  0.35345  0.58039  1.0000
  H   H1285     1.0  0.47250  0.39497  0.57962  1.0000
  C   C1623     1.0  0.95612  0.43859  0.60130  1.0000
  H   H1286     1.0  0.91409  0.06254  0.70819  1.0000
  C   C1624     1.0  0.47567  0.04020  0.57050  1.0000
  C   C1625     1.0  0.60247  0.38125  0.59411  1.0000
  P   P51       1.0  0.49035  0.02367  0.50605  1.0000
  C   C1626     1.0  0.56737  0.34165  0.51033  1.0000
  C   C1627     1.0  0.64661  0.19269  0.51590  1.0000
  C   C1628     1.0  0.67167  0.20945  0.50852  1.0000
  C   C1629     1.0  0.62191  0.18294  0.50520  1.0000
  C   C1630     1.0  0.70580  0.33973  0.59329  1.0000
  H   H1287     1.0  0.49636  0.04282  0.57548  1.0000
  C   C1631     1.0  0.66651  0.43518  0.52208  1.0000
  P   P52       1.0  0.50988  0.02039  0.61818  1.0000
  C   C1632     1.0  0.58867  0.07854  0.63041  1.0000
  C   C1633     1.0  0.49820  0.30118  0.52509  1.0000
  C   C1634     1.0  0.54198  0.05150  0.61789  1.0000
  H   H1288     1.0  0.62714  0.35684  0.60079  1.0000
  H   H1289     1.0  0.93326  0.46353  0.49729  1.0000
  H   H1290     1.0  0.83019  0.42478  0.49892  1.0000
  P   P53       1.0  0.96033  0.40587  0.57512  1.0000
  H   H1291     1.0  0.60243  0.17006  0.51092  1.0000
  H   H1292     1.0  0.60714  0.36213  0.52445  1.0000
  C   C1635     1.0  0.64493  0.44370  0.51524  1.0000
  C   C1636     1.0  0.46433  0.46898  0.56208  1.0000
  H   H1293     1.0  0.90722  0.45442  0.59863  1.0000
  H   H1294     1.0  0.93305  0.39489  0.53966  1.0000
  H   H1295     1.0  0.68548  0.44140  0.51528  1.0000
  H   H1296     1.0  0.94022  0.35029  0.55922  1.0000
  C   C1637     1.0  0.47939  0.07138  0.49713  1.0000
  H   H1297     1.0  0.55731  0.32983  0.52186  1.0000
  H   H1298     1.0  0.94890  0.44959  0.59074  1.0000
  C   C1638     1.0  0.94312  0.02575  0.73626  1.0000
  C   C1639     1.0  0.49143  0.98599  0.66798  1.0000
  H   H1299     1.0  0.53407  0.97941  0.63053  1.0000
  H   H1300     1.0  0.96143  0.09970  0.71323  1.0000
  C   C1640     1.0  0.55203  0.33947  0.49414  1.0000
  C   C1641     1.0  0.96113  0.35518  0.56505  1.0000
  C   C1642     1.0  0.79622  0.46675  0.57075  1.0000
  C   C1643     1.0  0.74878  0.45222  0.57910  1.0000
  C   C1644     1.0  0.95629  0.07909  0.71960  1.0000
  H   H1301     1.0  0.63015  0.38910  0.49845  1.0000
  C   C1645     1.0  0.46673  0.45821  0.57926  1.0000
  H   H1302     1.0  0.49954  0.07990  0.49147  1.0000
  C   C1646     1.0  0.96320  0.41617  0.59770  1.0000
  H   H1303     1.0  0.47735  0.44404  0.58175  1.0000
  C   C1647     1.0  0.85274  0.43363  0.49864  1.0000
  H   H1304     1.0  0.95461  0.46567  0.62104  1.0000
  C   C1648     1.0  0.89133  0.47321  0.55679  1.0000
  H   H1305     1.0  0.47920  0.98741  0.67839  1.0000
  C   C1649     1.0  0.90750  0.47389  0.57269  1.0000
  C   C1650     1.0  0.46392  0.98498  0.53252  1.0000
  H   H1306     1.0  0.53002  0.32619  0.49324  1.0000
  C   C1651     1.0  0.96331  0.45428  0.55532  1.0000
  H   H1307     1.0  0.79548  0.00195  0.95671  1.0000
  H   H1308     1.0  0.80800  0.11672  0.97058  1.0000
  H   H1309     1.0  0.92191  0.07291  0.76146  1.0000
  C   C1652     1.0  0.94977  0.24882  0.80772  1.0000
  H   H1310     1.0  0.78954  0.03673  0.93259  1.0000
  C   C1653     1.0  0.93552  0.06570  0.87334  1.0000
  S   S232      1.0  0.93179  0.08723  0.79901  1.0000
  C   C1654     1.0  0.83196  0.01672  0.94150  1.0000
  S   S233      1.0  0.83214  0.99130  0.75745  1.0000
  H   H1311     1.0  0.92167  0.14164  0.80168  1.0000
  H   H1312     1.0  0.88895  0.25911  0.82827  1.0000
  H   H1313     1.0  0.84382  0.09150  0.92118  1.0000
  C   C1655     1.0  0.83211  0.01580  0.83902  1.0000
  H   H1314     1.0  0.85910  0.05980  0.84103  1.0000
  C   C1656     1.0  0.88406  0.07489  0.97858  1.0000
  C   C1657     1.0  0.91735  0.98970  0.80494  1.0000
  C   C1658     1.0  0.86093  0.01671  0.76916  1.0000
  C   C1659     1.0  0.86180  0.01825  0.78746  1.0000
  C   C1660     1.0  0.88360  0.03997  0.79626  1.0000
  C   C1661     1.0  0.90553  0.05977  0.78707  1.0000
  C   C1662     1.0  0.90527  0.05778  0.76879  1.0000
  C   C1663     1.0  0.88277  0.03665  0.75987  1.0000
  H   H1315     1.0  0.84514  0.00329  0.79478  1.0000
  H   H1316     1.0  0.88336  0.04153  0.81025  1.0000
  C   C1664     1.0  0.76307  0.01562  0.98224  1.0000
  C   C1665     1.0  0.86215  0.05080  0.97216  1.0000
  H   H1317     1.0  0.93035  0.13341  0.77160  1.0000
  C   C1666     1.0  0.94163  0.01492  0.77935  1.0000
  H   H1318     1.0  0.84131  0.07427  0.81256  1.0000
  H   H1319     1.0  0.76729  0.03754  0.98374  1.0000
  C   C1667     1.0  0.93896  0.15454  0.77641  1.0000
  H   H1320     1.0  0.93474  0.24051  0.87945  1.0000
  C   C1668     1.0  0.92387  0.24223  0.79822  1.0000
  H   H1321     1.0  0.90295  0.19860  0.86375  1.0000
  H   H1322     1.0  0.91736  0.14824  0.96310  1.0000
  C   C1669     1.0  0.93580  0.01437  0.79700  1.0000
  C   C1670     1.0  0.81113  0.03283  0.80710  1.0000
  C   C1671     1.0  0.93604  0.19013  0.85375  1.0000
  H   H1323     1.0  0.94162  0.09874  0.92980  1.0000
  C   C1672     1.0  0.92530  0.20534  0.86318  1.0000
  C   C1673     1.0  0.82082  0.00336  0.87526  1.0000
  C   C1674     1.0  0.88070  0.02778  0.86520  1.0000
  C   C1675     1.0  0.74506  0.00093  0.96813  1.0000
  H   H1324     1.0  0.85747  0.97915  0.82968  1.0000
  H   H1325     1.0  0.87587  0.02658  0.89325  1.0000
  H   H1326     1.0  0.94127  0.06586  0.84556  1.0000
  H   H1327     1.0  0.95650  0.08082  0.87637  1.0000
  H   H1328     1.0  0.92378  0.06058  0.90020  1.0000
  H   H1329     1.0  0.93435  0.27021  0.84536  1.0000
  H   H1330     1.0  0.87987  0.12517  0.90283  1.0000
  C   C1676     1.0  0.82407  0.08776  0.96189  1.0000
  C   C1677     1.0  0.94586  0.18635  0.79984  1.0000
  C   C1678     1.0  0.90204  0.24596  0.80562  1.0000
  C   C1679     1.0  0.89982  0.03815  0.85202  1.0000
  C   C1680     1.0  0.93148  0.26247  0.83217  1.0000
  H   H1331     1.0  0.88212  0.03588  0.74569  1.0000
  C   C1681     1.0  0.80663  0.99672  0.94713  1.0000
  H   H1332     1.0  0.92062  0.23428  0.78506  1.0000
  C   C1682     1.0  0.86495  0.09245  0.92301  1.0000
  C   C1683     1.0  0.91815  0.16209  0.98927  1.0000
  H   H1333     1.0  0.78324  0.98940  0.80521  1.0000
  C   C1684     1.0  0.80500  0.02734  0.89558  1.0000
  C   C1685     1.0  0.90587  0.25618  0.82256  1.0000
  H   H1334     1.0  0.89367  0.03160  0.83860  1.0000
  C   C1686     1.0  0.79985  0.00477  0.81304  1.0000
  H   H1335     1.0  0.86623  0.02374  0.92521  1.0000
  C   C1687     1.0  0.88535  0.11159  0.91255  1.0000
  P   P54       1.0  0.84522  0.00433  0.85951  1.0000
  C   C1688     1.0  0.85241  0.02655  0.98323  1.0000
  H   H1336     1.0  0.87648  0.97947  0.74665  1.0000
  C   C1689     1.0  0.80392  0.09911  0.96236  1.0000
  C   C1690     1.0  0.77858  0.08765  0.95243  1.0000
  C   C1691     1.0  0.93411  0.15925  0.79342  1.0000
  C   C1692     1.0  0.88977  0.03533  0.88271  1.0000
  C   C1693     1.0  0.84272  0.04418  0.83330  1.0000
  C   C1694     1.0  0.91702  0.05442  0.88672  1.0000
  H   H1337     1.0  0.94464  0.33265  0.87998  1.0000
  C   C1695     1.0  0.92909  0.99069  0.76949  1.0000
  H   H1338     1.0  0.89096  0.09444  0.97080  1.0000
  H   H1339     1.0  0.73559  0.01173  0.95875  1.0000
  C   C1696     1.0  0.77360  0.06516  0.94173  1.0000
  C   C1697     1.0  0.89971  0.07721  0.93803  1.0000
  C   C1698     1.0  0.92011  0.09660  0.92770  1.0000
  H   H1340     1.0  0.76280  0.09616  0.95312  1.0000
  H   H1341     1.0  0.92209  0.17154  0.84704  1.0000
  C   C1699     1.0  0.87204  0.07532  0.93598  1.0000
  C   C1700     1.0  0.92697  0.05735  0.85601  1.0000
  H   H1342     1.0  0.96163  0.35439  0.85091  1.0000
  C   C1701     1.0  0.93001  0.16186  0.97337  1.0000
  C   C1702     1.0  0.82420  0.02784  0.88370  1.0000
  H   H1343     1.0  0.94507  0.03338  0.80435  1.0000
  H   H1344     1.0  0.80351  0.03916  0.79452  1.0000
  C   C1703     1.0  0.81921  0.06502  0.95129  1.0000
  P   P55       1.0  0.84612  0.05155  0.95018  1.0000
  C   C1704     1.0  0.79390  0.05403  0.94102  1.0000
  C   C1705     1.0  0.84641  0.00901  0.92950  1.0000
  H   H1345     1.0  0.90566  0.06416  0.94792  1.0000
  C   C1706     1.0  0.95802  0.17939  0.97053  1.0000
  C   C1707     1.0  0.83245  0.05256  0.81727  1.0000
  C   C1708     1.0  0.94338  0.22908  0.87205  1.0000
  H   H1346     1.0  0.88213  0.24091  0.79818  1.0000
  H   H1347     1.0  0.84143  0.04743  0.88094  1.0000
  H   H1348     1.0  0.94209  0.18960  0.81310  1.0000
  C   C1709     1.0  0.95849  0.32596  0.87345  1.0000
  H   H1349     1.0  0.75384  0.05610  0.93414  1.0000
  H   H1350     1.0  0.95988  0.17322  0.75274  1.0000
  C   C1710     1.0  0.91296  0.11383  0.91499  1.0000
  H   H1351     1.0  0.84341  0.09689  0.96984  1.0000
  C   C1711     1.0  0.81027  0.99630  0.82895  1.0000
  H   H1352     1.0  0.95551  0.03443  0.77344  1.0000
  H   H1353     1.0  0.92893  0.12920  0.90722  1.0000
  H   H1354     1.0  0.80778  0.04622  0.90211  1.0000
  C   C1712     1.0  0.95330  0.25860  0.82485  1.0000
  H   H1355     1.0  0.84624  0.97625  0.91347  1.0000
  H   H1356     1.0  0.95720  0.21420  0.93759  1.0000
  H   H1357     1.0  0.91242  0.98947  0.81848  1.0000
  C   C1713     1.0  0.83519  0.98203  0.92284  1.0000
  C   C1714     1.0  0.95551  0.17695  0.76579  1.0000
  H   H1358     1.0  0.95898  0.29579  0.89409  1.0000
  P   P56       1.0  0.93557  0.99118  0.74646  1.0000
  C   C1715     1.0  0.78200  0.00254  0.89886  1.0000
  H   H1359     1.0  0.83461  0.00815  0.97915  1.0000
  H   H1360     1.0  0.76706  0.00194  0.90810  1.0000
  C   C1716     1.0  0.79699  0.97888  0.87806  1.0000
  H   H1361     1.0  0.96059  0.28840  0.78061  1.0000
  C   C1717     1.0  0.96263  0.20899  0.78926  1.0000
  C   C1718     1.0  0.77792  0.97842  0.89001  1.0000
  H   H1362     1.0  0.80138  0.97445  0.83332  1.0000
  C   C1719     1.0  0.76415  0.79458  0.00992  1.0000
  Fe  Fe119     1.0  0.85207  0.79319  0.20838  1.0000
  S   S234      1.0  0.81671  0.80652  0.19972  1.0000
  C   C1720     1.0  0.84124  0.83569  0.01124  1.0000
  Fe  Fe120     1.0  0.89526  0.84713  0.19051  1.0000
  S   S235      1.0  0.86263  0.86330  0.18006  1.0000
  Fe  Fe121     1.0  0.84593  0.85028  0.20690  1.0000
  S   S236      1.0  0.83705  0.87967  0.22384  1.0000
  Fe  Fe122     1.0  0.83665  0.81844  0.17365  1.0000
  S   S237      1.0  0.80956  0.80376  0.14868  1.0000
  S   S238      1.0  0.88017  0.83627  0.21786  1.0000
  S   S239      1.0  0.87045  0.80302  0.18178  1.0000
  Fe  Fe123     1.0  0.86547  0.74469  0.03071  1.0000
  S   S240      1.0  0.85092  0.77987  0.03013  1.0000
  S   S241      1.0  0.90514  0.74794  0.01815  1.0000
  Fe  Fe124     1.0  0.81713  0.70544  0.05437  1.0000
  S   S242      1.0  0.79969  0.73900  0.05514  1.0000
  S   S243      1.0  0.80597  0.66399  0.07139  1.0000
  Fe  Fe125     1.0  0.80757  0.74691  0.02603  1.0000
  S   S244      1.0  0.68151  0.51062  0.22705  1.0000
  Fe  Fe126     1.0  0.84449  0.76934  0.05902  1.0000
  S   S245      1.0  0.86564  0.80463  0.07799  1.0000
  S   S246      1.0  0.82242  0.71150  0.02505  1.0000
  S   S247      1.0  0.86162  0.73588  0.05989  1.0000
  H   H1363     1.0  0.95624  0.87269  0.14735  1.0000
  S   S248      1.0  0.68269  0.49890  0.13083  1.0000
  S   S249      1.0  0.74263  0.49357  0.16340  1.0000
  Fe  Fe127     1.0  0.69877  0.50583  0.10359  1.0000
  S   S250      1.0  0.70346  0.54722  0.08803  1.0000
  H   H1364     1.0  0.77898  0.96247  0.00168  1.0000
  S   S251      1.0  0.73293  0.49027  0.11143  1.0000
  C   C1721     1.0  0.64535  0.91612  0.07189  1.0000
  H   H1365     1.0  0.76615  0.95147  0.15730  1.0000
  H   H1366     1.0  0.90699  0.78225  0.08073  1.0000
  C   C1722     1.0  0.78124  0.63005  0.20820  1.0000
  C   C1723     1.0  0.95317  0.86423  0.03583  1.0000
  H   H1367     1.0  0.83604  0.91336  0.15618  1.0000
  C   C1724     1.0  0.94665  0.85250  0.12238  1.0000
  C   C1725     1.0  0.93034  0.77562  0.00600  1.0000
  H   H1368     1.0  0.66544  0.54610  0.16801  1.0000
  C   C1726     1.0  0.77700  0.63156  0.07535  1.0000
  C   C1727     1.0  0.74943  0.62727  0.06976  1.0000
  C   C1728     1.0  0.72732  0.60151  0.07386  1.0000
  C   C1729     1.0  0.73233  0.57948  0.08344  1.0000
  C   C1730     1.0  0.75992  0.58379  0.08898  1.0000
  C   C1731     1.0  0.78196  0.60962  0.08507  1.0000
  H   H1369     1.0  0.74508  0.64382  0.06233  1.0000
  H   H1370     1.0  0.70616  0.59855  0.06942  1.0000
  H   H1371     1.0  0.76434  0.56701  0.09595  1.0000
  H   H1372     1.0  0.80313  0.61243  0.08929  1.0000
  C   C1732     1.0  0.82588  0.80278  0.12960  1.0000
  C   C1733     1.0  0.80989  0.78636  0.11564  1.0000
  C   C1734     1.0  0.82207  0.78616  0.09992  1.0000
  C   C1735     1.0  0.85014  0.80302  0.09792  1.0000
  C   C1736     1.0  0.86611  0.81957  0.11186  1.0000
  C   C1737     1.0  0.85416  0.81911  0.12779  1.0000
  H   H1373     1.0  0.78797  0.77383  0.11695  1.0000
  H   H1374     1.0  0.80957  0.77348  0.08920  1.0000
  H   H1375     1.0  0.88774  0.83281  0.11031  1.0000
  H   H1376     1.0  0.86657  0.83192  0.13848  1.0000
  C   C1738     1.0  0.82833  0.90801  0.21522  1.0000
  C   C1739     1.0  0.83466  0.93128  0.22566  1.0000
  C   C1740     1.0  0.82725  0.95383  0.21959  1.0000
  C   C1741     1.0  0.81208  0.95265  0.20338  1.0000
  C   C1742     1.0  0.80547  0.92923  0.19300  1.0000
  C   C1743     1.0  0.81417  0.90731  0.19867  1.0000
  H   H1377     1.0  0.92294  0.71418  0.12726  1.0000
  H   H1378     1.0  0.94447  0.87021  0.11497  1.0000
  C   C1744     1.0  0.94612  0.77946  0.09018  1.0000
  H   H1379     1.0  0.80880  0.88930  0.19064  1.0000
  C   C1745     1.0  0.72593  0.50002  0.18066  1.0000
  C   C1746     1.0  0.69703  0.49219  0.17950  1.0000
  H   H1380     1.0  0.91230  0.83652  0.04360  1.0000
  C   C1747     1.0  0.69930  0.50803  0.20914  1.0000
  C   C1748     1.0  0.72828  0.51639  0.21023  1.0000
  C   C1749     1.0  0.74157  0.51241  0.19598  1.0000
  H   H1381     1.0  0.62521  0.90411  0.07709  1.0000
  H   H1382     1.0  0.92130  0.85113  0.07446  1.0000
  H   H1383     1.0  0.74037  0.52532  0.22215  1.0000
  H   H1384     1.0  0.76394  0.51850  0.19690  1.0000
  C   C1750     1.0  0.76944  0.97326  0.99239  1.0000
  H   H1385     1.0  0.64491  0.58395  0.22731  1.0000
  P   P57       1.0  0.85679  0.96527  0.13436  1.0000
  C   C1751     1.0  0.79334  0.71881  0.22814  1.0000
  H   H1386     1.0  0.61869  0.50564  0.20208  1.0000
  C   C1752     1.0  0.73965  0.94329  0.03680  1.0000
  H   H1387     1.0  0.95970  0.92053  0.01828  1.0000
  C   C1753     1.0  0.93242  0.85229  0.04780  1.0000
  C   C1754     1.0  0.94438  0.92117  0.13951  1.0000
  H   H1388     1.0  0.78887  0.73669  0.22302  1.0000
  C   C1755     1.0  0.94214  0.82790  0.11385  1.0000
  C   C1756     1.0  0.66129  0.54607  0.15391  1.0000
  H   H1389     1.0  0.93644  0.82681  0.09984  1.0000
  C   C1757     1.0  0.69034  0.91902  0.06400  1.0000
  C   C1758     1.0  0.96359  0.88043  0.07084  1.0000
  Fe  Fe128     1.0  0.71532  0.48165  0.13819  1.0000
  H   H1390     1.0  0.71389  0.97172  0.01139  1.0000
  C   C1759     1.0  0.95465  0.83073  0.15034  1.0000
  C   C1760     1.0  0.77254  0.92361  0.02956  1.0000
  C   C1761     1.0  0.92688  0.78299  0.07718  1.0000
  C   C1762     1.0  0.89586  0.95151  0.15614  1.0000
  C   C1763     1.0  0.90024  0.89968  0.12275  1.0000
  H   H1391     1.0  0.80951  0.84953  0.11799  1.0000
  C   C1764     1.0  0.93659  0.94130  0.11088  1.0000
  C   C1765     1.0  0.90963  0.92041  0.10934  1.0000
  H   H1392     1.0  0.75071  0.69368  0.23401  1.0000
  C   C1766     1.0  0.72534  0.90516  0.01646  1.0000
  H   H1393     1.0  0.93553  0.87088  0.23657  1.0000
  H   H1394     1.0  0.84707  0.69765  0.23652  1.0000
  H   H1395     1.0  0.95891  0.83177  0.16454  1.0000
  C   C1767     1.0  0.76649  0.94294  0.03861  1.0000
  H   H1396     1.0  0.78475  0.59354  0.22159  1.0000
  H   H1397     1.0  0.91294  0.80651  0.00818  1.0000
  C   C1768     1.0  0.86683  0.85521  0.01770  1.0000
  C   C1769     1.0  0.91584  0.95550  0.17024  1.0000
  H   H1398     1.0  0.83957  0.74943  0.12781  1.0000
  H   H1399     1.0  0.95718  0.92178  0.15160  1.0000
  H   H1400     1.0  0.64483  0.54219  0.10323  1.0000
  C   C1770     1.0  0.66442  0.90359  0.07081  1.0000
  H   H1401     1.0  0.91720  0.78807  0.04936  1.0000
  S   S252      1.0  0.77914  0.75078  0.00230  1.0000
  C   C1771     1.0  0.63401  0.56134  0.22770  1.0000
  H   H1402     1.0  0.68987  0.66625  0.11818  1.0000
  H   H1403     1.0  0.84423  0.93616  0.10060  1.0000
  H   H1404     1.0  0.82318  0.82911  0.01904  1.0000
  H   H1405     1.0  0.70492  0.90902  0.06328  1.0000
  H   H1406     1.0  0.76356  0.62850  0.21527  1.0000
  C   C1772     1.0  0.76405  0.77597  0.99746  1.0000
  S   S253      1.0  0.94041  0.86941  0.18319  1.0000
  C   C1773     1.0  0.70489  0.65653  0.12030  1.0000
  H   H1407     1.0  0.79319  0.92780  0.18068  1.0000
  C   C1774     1.0  0.89020  0.86305  0.00778  1.0000
  P   P58       1.0  0.73076  0.96679  0.04926  1.0000
  H   H1408     1.0  0.79021  0.47740  0.23244  1.0000
  H   H1409     1.0  0.83217  0.97157  0.22779  1.0000
  H   H1410     1.0  0.75666  0.89003  0.01121  1.0000
  C   C1775     1.0  0.63041  0.52437  0.12875  1.0000
  H   H1411     1.0  0.82008  0.70678  0.10998  1.0000
  C   C1776     1.0  0.92941  0.80220  0.00298  1.0000
  H   H1412     1.0  0.88992  0.77782  0.12950  1.0000
  C   C1777     1.0  0.93756  0.86046  0.06528  1.0000
  C   C1778     1.0  0.63251  0.54615  0.21293  1.0000
  H   H1413     1.0  0.94325  0.95766  0.10062  1.0000
  H   H1414     1.0  0.87935  0.88351  0.12159  1.0000
  C   C1779     1.0  0.64903  0.54362  0.11742  1.0000
  C   C1780     1.0  0.80480  0.95713  0.14638  1.0000
  C   C1781     1.0  0.91751  0.90026  0.13791  1.0000
  H   H1415     1.0  0.82371  0.88601  0.09384  1.0000
  H   H1416     1.0  0.69823  0.92394  0.02403  1.0000
  H   H1417     1.0  0.95069  0.78815  0.14978  1.0000
  H   H1418     1.0  0.95324  0.75025  0.00157  1.0000
  C   C1782     1.0  0.88226  0.97011  0.15281  1.0000
  H   H1419     1.0  0.61164  0.50801  0.12337  1.0000
  H   H1420     1.0  0.89941  0.90842  0.22713  1.0000
  C   C1783     1.0  0.93266  0.78651  0.05938  1.0000
  H   H1421     1.0  0.91005  0.87787  0.01293  1.0000
  H   H1422     1.0  0.64231  0.55698  0.20109  1.0000
  H   H1423     1.0  0.93294  0.91139  0.20373  1.0000
  H   H1424     1.0  0.86856  0.86383  0.03051  1.0000
  C   C1784     1.0  0.84237  0.71887  0.11115  1.0000
  C   C1785     1.0  0.88209  0.75899  0.12201  1.0000
  S   S254      1.0  0.84956  0.75177  0.22303  1.0000
  H   H1425     1.0  0.85153  0.69242  0.09431  1.0000
  H   H1426     1.0  0.70287  0.57008  0.21513  1.0000
  C   C1786     1.0  0.85338  0.74288  0.12111  1.0000
  H   H1427     1.0  0.81570  0.86334  0.14902  1.0000
  C   C1787     1.0  0.65223  0.94413  0.06622  1.0000
  C   C1788     1.0  0.90813  0.93036  0.23032  1.0000
  H   H1428     1.0  0.62236  0.51025  0.15573  1.0000
  H   H1429     1.0  0.78287  0.95764  0.04684  1.0000
  H   H1430     1.0  0.89585  0.92041  0.09785  1.0000
  H   H1431     1.0  0.77348  0.79371  0.02308  1.0000
  H   H1432     1.0  0.90994  0.88473  0.14860  1.0000
  H   H1433     1.0  0.75093  0.82766  0.01531  1.0000
  C   C1789     1.0  0.68381  0.49637  0.19365  1.0000
  C   C1790     1.0  0.94408  0.80463  0.12355  1.0000
  H   H1434     1.0  0.79331  0.92358  0.03089  1.0000
  C   C1791     1.0  0.71911  0.92417  0.02566  1.0000
  H   H1435     1.0  0.80064  0.93502  0.14776  1.0000
  H   H1436     1.0  0.90192  0.72090  0.09534  1.0000
  C   C1792     1.0  0.89998  0.75117  0.11284  1.0000
  C   C1793     1.0  0.67812  0.95961  0.05939  1.0000
  C   C1794     1.0  0.95786  0.78688  0.05438  1.0000
  P   P59       1.0  0.93697  0.77228  0.11295  1.0000
  C   C1795     1.0  0.75199  0.90479  0.01846  1.0000
  H   H1437     1.0  0.92599  0.94089  0.17289  1.0000
  H   H1438     1.0  0.73180  0.95589  0.08808  1.0000
  C   C1796     1.0  0.88871  0.72698  0.10291  1.0000
  C   C1797     1.0  0.75131  0.81377  0.00548  1.0000
  H   H1439     1.0  0.65909  0.88187  0.07518  1.0000
  H   H1440     1.0  0.70956  0.89070  0.00767  1.0000
  H   H1441     1.0  0.66146  0.49033  0.19264  1.0000
  C   C1798     1.0  0.95416  0.91965  0.19982  1.0000
  H   H1442     1.0  0.89106  0.93389  0.14792  1.0000
  C   C1799     1.0  0.95712  0.75467  0.12518  1.0000
  C   C1800     1.0  0.86009  0.71082  0.10222  1.0000
  C   C1801     1.0  0.82080  0.72043  0.22906  1.0000
  C   C1802     1.0  0.70544  0.58592  0.20458  1.0000
  C   C1803     1.0  0.70674  0.61238  0.20832  1.0000
  C   C1804     1.0  0.71098  0.63309  0.19484  1.0000
  C   C1805     1.0  0.71311  0.62712  0.17750  1.0000
  C   C1806     1.0  0.71079  0.60020  0.17348  1.0000
  C   C1807     1.0  0.70769  0.57991  0.18730  1.0000
  P   P60       1.0  0.71301  0.59172  0.15106  1.0000
  C   C1808     1.0  0.72010  0.62179  0.13576  1.0000
  C   C1809     1.0  0.74022  0.57845  0.15077  1.0000
  C   C1810     1.0  0.74198  0.56463  0.13600  1.0000
  C   C1811     1.0  0.76356  0.55526  0.13542  1.0000
  C   C1812     1.0  0.78322  0.55908  0.14964  1.0000
  C   C1813     1.0  0.78162  0.57271  0.16441  1.0000
  C   C1814     1.0  0.76045  0.58270  0.16492  1.0000
  C   C1815     1.0  0.74290  0.63054  0.12508  1.0000
  C   C1816     1.0  0.74677  0.65223  0.11229  1.0000
  C   C1817     1.0  0.72776  0.66519  0.10987  1.0000
  C   C1818     1.0  0.70092  0.63475  0.13307  1.0000
  C   C1819     1.0  0.68029  0.56548  0.14260  1.0000
  C   C1820     1.0  0.67380  0.56404  0.12427  1.0000
  H   H1443     1.0  0.70523  0.61707  0.22176  1.0000
  H   H1444     1.0  0.71288  0.65389  0.19790  1.0000
  H   H1445     1.0  0.71687  0.64371  0.16743  1.0000
  H   H1446     1.0  0.70728  0.55943  0.18477  1.0000
  H   H1447     1.0  0.72690  0.56128  0.12482  1.0000
  H   H1448     1.0  0.76477  0.54454  0.12406  1.0000
  H   H1449     1.0  0.79922  0.55076  0.14937  1.0000
  H   H1450     1.0  0.79654  0.57507  0.17554  1.0000
  H   H1451     1.0  0.76006  0.59368  0.17637  1.0000
  H   H1452     1.0  0.75721  0.62011  0.12602  1.0000
  H   H1453     1.0  0.76407  0.65841  0.10383  1.0000
  H   H1454     1.0  0.68254  0.62758  0.14060  1.0000
  H   H1455     1.0  0.73050  0.68157  0.09967  1.0000
  H   H1456     1.0  0.68817  0.57815  0.11510  1.0000
  C   C1821     1.0  0.81758  0.63028  0.13007  1.0000
  C   C1822     1.0  0.84351  0.63990  0.12287  1.0000
  C   C1823     1.0  0.86590  0.66231  0.13032  1.0000
  C   C1824     1.0  0.86225  0.67562  0.14474  1.0000
  C   C1825     1.0  0.83608  0.66623  0.15190  1.0000
  C   C1826     1.0  0.81392  0.64323  0.14460  1.0000
  P   P61       1.0  0.83040  0.68239  0.17067  1.0000
  C   C1827     1.0  0.81558  0.65441  0.18687  1.0000
  C   C1828     1.0  0.86247  0.70835  0.17982  1.0000
  C   C1829     1.0  0.87582  0.73345  0.17009  1.0000
  C   C1830     1.0  0.89954  0.75473  0.17735  1.0000
  C   C1831     1.0  0.90982  0.75133  0.19454  1.0000
  C   C1832     1.0  0.89654  0.72651  0.20439  1.0000
  C   C1833     1.0  0.87292  0.70508  0.19710  1.0000
  C   C1834     1.0  0.79229  0.65204  0.19577  1.0000
  C   C1835     1.0  0.79335  0.61045  0.21190  1.0000
  C   C1836     1.0  0.81664  0.61278  0.20320  1.0000
  C   C1837     1.0  0.82764  0.63457  0.19064  1.0000
  C   C1838     1.0  0.80780  0.70087  0.16455  1.0000
  C   C1839     1.0  0.79342  0.69820  0.14785  1.0000
  C   C1840     1.0  0.77737  0.71403  0.14306  1.0000
  C   C1841     1.0  0.77547  0.73250  0.15489  1.0000
  C   C1842     1.0  0.78963  0.73522  0.17151  1.0000
  C   C1843     1.0  0.80581  0.71957  0.17633  1.0000
  H   H1457     1.0  0.80029  0.61282  0.12427  1.0000
  H   H1458     1.0  0.84619  0.63006  0.11145  1.0000
  H   H1459     1.0  0.88592  0.66954  0.12466  1.0000
  H   H1460     1.0  0.87981  0.69308  0.15016  1.0000
  H   H1461     1.0  0.79371  0.63555  0.15008  1.0000
  H   H1462     1.0  0.86728  0.73688  0.15711  1.0000
  H   H1463     1.0  0.90915  0.77437  0.16997  1.0000
  H   H1464     1.0  0.92747  0.76830  0.20045  1.0000
  H   H1465     1.0  0.90383  0.72436  0.21796  1.0000
  H   H1466     1.0  0.86238  0.68663  0.20529  1.0000
  H   H1467     1.0  0.78268  0.66713  0.19335  1.0000
  H   H1468     1.0  0.82607  0.59760  0.20616  1.0000
  H   H1469     1.0  0.84566  0.63608  0.18394  1.0000
  H   H1470     1.0  0.79492  0.68450  0.13831  1.0000
  H   H1471     1.0  0.76687  0.71249  0.13004  1.0000
  H   H1472     1.0  0.76365  0.74536  0.15101  1.0000
  H   H1473     1.0  0.78865  0.75007  0.18050  1.0000
  H   H1474     1.0  0.81711  0.72243  0.18917  1.0000
  C   C1844     1.0  0.82207  0.87938  0.13851  1.0000
  C   C1845     1.0  0.81855  0.87159  0.12099  1.0000
  C   C1846     1.0  0.82660  0.89219  0.10741  1.0000
  C   C1847     1.0  0.83820  0.92063  0.11133  1.0000
  C   C1848     1.0  0.84189  0.92864  0.12893  1.0000
  C   C1849     1.0  0.83360  0.90774  0.14249  1.0000
  C   C1850     1.0  0.63652  0.52563  0.14699  1.0000
  C   C1851     1.0  0.95305  0.85390  0.14060  1.0000
  C   C1852     1.0  0.61896  0.51689  0.21356  1.0000
  H   H1475     1.0  0.88514  0.94191  0.20851  1.0000
  H   H1476     1.0  0.68474  0.48238  0.16784  1.0000
  C   C1853     1.0  0.60695  0.50258  0.22906  1.0000
  C   C1854     1.0  0.95456  0.94112  0.12568  1.0000
  C   C1855     1.0  0.95219  0.77065  0.99927  1.0000
  C   C1856     1.0  0.78490  0.96633  0.15164  1.0000
  H   H1477     1.0  0.94887  0.85749  0.02235  1.0000
  C   C1857     1.0  0.94963  0.82313  0.99297  1.0000
  C   C1858     1.0  0.90002  0.94930  0.21971  1.0000
  C   C1859     1.0  0.69730  0.94709  0.05812  1.0000
  C   C1860     1.0  0.75121  0.97266  0.08479  1.0000
  C   C1861     1.0  0.95003  0.80611  0.14190  1.0000
  H   H1478     1.0  0.84548  0.93195  0.23850  1.0000
  C   C1862     1.0  0.96281  0.90373  0.18947  1.0000
  C   C1863     1.0  0.95673  0.88598  0.23848  1.0000
  C   C1864     1.0  0.83905  0.82375  0.99501  1.0000
  C   C1865     1.0  0.77170  0.69434  0.23446  1.0000
  H   H1479     1.0  0.63744  0.95386  0.06704  1.0000
  C   C1866     1.0  0.82600  0.69680  0.23581  1.0000
  C   C1867     1.0  0.94473  0.72622  0.13048  1.0000
  H   H1480     1.0  0.85383  0.72639  0.99284  1.0000
  H   H1481     1.0  0.95085  0.69100  0.14409  1.0000
  H   H1482     1.0  0.96182  0.78870  0.04050  1.0000
  C   C1868     1.0  0.96051  0.71302  0.14014  1.0000
  H   H1483     1.0  0.55196  0.49149  0.23883  1.0000
  H   H1484     1.0  0.50092  0.47553  0.23668  1.0000
  C   C1869     1.0  0.46849  0.58439  0.44543  1.0000
  C   C1870     1.0  0.49200  0.51059  0.44621  1.0000
  P   P62       1.0  0.95220  0.48966  0.33143  1.0000
  Fe  Fe129     1.0  0.70592  0.53631  0.25008  1.0000
  S   S255      1.0  0.69210  0.56838  0.25971  1.0000
  Fe  Fe130     1.0  0.75247  0.54704  0.27881  1.0000
  S   S256      1.0  0.74226  0.58043  0.29046  1.0000
  S   S257      1.0  0.78764  0.53170  0.28578  1.0000
  Fe  Fe131     1.0  0.69716  0.54997  0.28678  1.0000
  S   S258      1.0  0.66805  0.54072  0.30943  1.0000
  Fe  Fe132     1.0  0.73805  0.59619  0.26219  1.0000
  H   H1485     1.0  0.50344  0.53300  0.44456  1.0000
  S   S259      1.0  0.70803  0.51600  0.27686  1.0000
  S   S260      1.0  0.75106  0.56470  0.25090  1.0000
  C   C1871     1.0  0.81285  0.61810  0.28572  1.0000
  H   H1486     1.0  0.80070  0.63138  0.33321  1.0000
  H   H1487     1.0  0.50525  0.50202  0.42197  1.0000
  C   C1872     1.0  0.57527  0.48206  0.31500  1.0000
  C   C1873     1.0  0.79456  0.69874  0.29326  1.0000
  C   C1874     1.0  0.63230  0.51776  0.31114  1.0000
  C   C1875     1.0  0.62062  0.51311  0.32765  1.0000
  C   C1876     1.0  0.59237  0.49532  0.32961  1.0000
  C   C1877     1.0  0.68972  0.61324  0.30262  1.0000
  H   H1488     1.0  0.59908  0.50758  0.25583  1.0000
  C   C1878     1.0  0.61523  0.50454  0.29654  1.0000
  H   H1489     1.0  0.63351  0.52329  0.33905  1.0000
  H   H1490     1.0  0.81912  0.49826  0.29728  1.0000
  H   H1491     1.0  0.81501  0.61334  0.27243  1.0000
  C   C1879     1.0  0.92681  0.93964  0.24511  1.0000
  H   H1492     1.0  0.63171  0.49209  0.44024  1.0000
  C   C1880     1.0  0.81043  0.70779  0.36339  1.0000
  C   C1881     1.0  0.48017  0.55564  0.46883  1.0000
  H   H1493     1.0  0.74541  0.62733  0.33230  1.0000
  H   H1494     1.0  0.83111  0.48103  0.32693  1.0000
  C   C1882     1.0  0.82138  0.69120  0.33720  1.0000
  H   H1495     1.0  0.84276  0.53012  0.42627  1.0000
  C   C1883     1.0  0.82962  0.70298  0.35377  1.0000
  C   C1884     1.0  0.92419  0.50680  0.35459  1.0000
  H   H1496     1.0  0.82644  0.58650  0.29799  1.0000
  C   C1885     1.0  0.79889  0.64424  0.30556  1.0000
  H   H1497     1.0  0.74023  0.66352  0.27998  1.0000
  H   H1498     1.0  0.90089  0.51772  0.37270  1.0000
  H   H1499     1.0  0.59921  0.49955  0.45930  1.0000
  H   H1500     1.0  0.93005  0.96136  0.31225  1.0000
  C   C1886     1.0  0.81117  0.50270  0.30885  1.0000
  C   C1887     1.0  0.79434  0.51840  0.30702  1.0000
  C   C1888     1.0  0.78442  0.52420  0.32211  1.0000
  S   S261      1.0  0.74864  0.64099  0.24984  1.0000
  S   S262      1.0  0.81962  0.49042  0.36221  1.0000
  H   H1501     1.0  0.48486  0.62877  0.44947  1.0000
  H   H1502     1.0  0.77156  0.53636  0.32089  1.0000
  C   C1889     1.0  0.92857  0.50516  0.33685  1.0000
  H   H1503     1.0  0.84782  0.73556  0.26693  1.0000
  H   H1504     1.0  0.81887  0.59531  0.32826  1.0000
  C   C1890     1.0  0.80245  0.63847  0.28842  1.0000
  C   C1891     1.0  0.80474  0.62846  0.31994  1.0000
  C   C1892     1.0  0.78304  0.70101  0.35639  1.0000
  C   C1893     1.0  0.80882  0.49945  0.34076  1.0000
  C   C1894     1.0  0.81915  0.60287  0.30012  1.0000
  H   H1505     1.0  0.81765  0.76179  0.25910  1.0000
  P   P63       1.0  0.91010  0.47731  0.46280  1.0000
  C   C1895     1.0  0.81494  0.60792  0.31721  1.0000
  H   H1506     1.0  0.89917  0.48859  0.42509  1.0000
  C   C1896     1.0  0.46684  0.55815  0.45233  1.0000
  C   C1897     1.0  0.88813  0.83256  0.27123  1.0000
  C   C1898     1.0  0.86102  0.83175  0.26890  1.0000
  C   C1899     1.0  0.85669  0.85626  0.26402  1.0000
  C   C1900     1.0  0.87939  0.88150  0.26112  1.0000
  C   C1901     1.0  0.90663  0.88227  0.26267  1.0000
  C   C1902     1.0  0.91090  0.85781  0.26838  1.0000
  P   P64       1.0  0.93615  0.91488  0.25933  1.0000
  C   C1903     1.0  0.88959  0.49495  0.45120  1.0000
  H   H1507     1.0  0.58381  0.49195  0.34241  1.0000
  H   H1508     1.0  0.64232  0.48027  0.25194  1.0000
  H   H1509     1.0  0.76821  0.70495  0.36379  1.0000
  H   H1510     1.0  0.83568  0.85570  0.26201  1.0000
  C   C1904     1.0  0.77475  0.68922  0.33983  1.0000
  C   C1905     1.0  0.80430  0.67221  0.24193  1.0000
  C   C1906     1.0  0.85615  0.52074  0.43324  1.0000
  C   C1907     1.0  0.77826  0.71471  0.28942  1.0000
  C   C1908     1.0  0.88885  0.52524  0.34567  1.0000
  C   C1909     1.0  0.60831  0.51809  0.24377  1.0000
  C   C1910     1.0  0.61963  0.47533  0.44914  1.0000
  C   C1911     1.0  0.94462  0.50431  0.46642  1.0000
  H   H1511     1.0  0.69069  0.63253  0.27655  1.0000
  C   C1912     1.0  0.82855  0.72986  0.27340  1.0000
  C   C1913     1.0  0.49340  0.49311  0.43347  1.0000
  H   H1512     1.0  0.66806  0.59894  0.30092  1.0000
  H   H1513     1.0  0.75887  0.70933  0.29566  1.0000
  H   H1514     1.0  0.89147  0.81356  0.27508  1.0000
  H   H1515     1.0  0.84333  0.81217  0.27083  1.0000
  H   H1516     1.0  0.77344  0.74904  0.27377  1.0000
  H   H1517     1.0  0.87541  0.90018  0.25733  1.0000
  C   C1914     1.0  0.74630  0.64888  0.30677  1.0000
  H   H1518     1.0  0.88204  0.47963  0.28589  1.0000
  C   C1915     1.0  0.60129  0.47953  0.45982  1.0000
  C   C1916     1.0  0.70244  0.63213  0.28895  1.0000
  C   C1917     1.0  0.85856  0.51957  0.45168  1.0000
  H   H1519     1.0  0.83653  0.68785  0.32979  1.0000
  C   C1918     1.0  0.93300  0.94121  0.28916  1.0000
  H   H1520     1.0  0.83368  0.69574  0.28868  1.0000
  H   H1521     1.0  0.91452  0.51086  0.30978  1.0000
  C   C1919     1.0  0.87101  0.50976  0.42375  1.0000
  H   H1522     1.0  0.87983  0.52881  0.31771  1.0000
  H   H1523     1.0  0.81680  0.71690  0.37624  1.0000
  H   H1524     1.0  0.69550  0.59640  0.32859  1.0000
  H   H1525     1.0  0.52608  0.50782  0.47817  1.0000
  H   H1526     1.0  0.79622  0.64905  0.27713  1.0000
  C   C1920     1.0  0.82021  0.70702  0.28554  1.0000
  C   C1921     1.0  0.73347  0.62946  0.32034  1.0000
  H   H1527     1.0  0.75355  0.68446  0.33451  1.0000
  H   H1528     1.0  0.93524  0.49921  0.36500  1.0000
  H   H1529     1.0  0.85090  0.70844  0.35913  1.0000
  C   C1922     1.0  0.79376  0.68379  0.33027  1.0000
  H   H1530     1.0  0.74737  0.49505  0.25985  1.0000
  C   C1923     1.0  0.89269  0.52317  0.32796  1.0000
  P   P65       1.0  0.78343  0.66901  0.30880  1.0000
  C   C1924     1.0  0.81158  0.74480  0.26904  1.0000
  C   C1925     1.0  0.73064  0.64979  0.29097  1.0000
  C   C1926     1.0  0.70524  0.61190  0.31830  1.0000
  C   C1927     1.0  0.78658  0.73741  0.27717  1.0000
  H   H1531     1.0  0.86919  0.51078  0.40944  1.0000
  C   C1928     1.0  0.47612  0.49910  0.46092  1.0000
  H   H1532     1.0  0.94444  0.51174  0.39549  1.0000
  C   C1929     1.0  0.88783  0.49704  0.43268  1.0000
  C   C1930     1.0  0.91239  0.51305  0.32353  1.0000
  H   H1533     1.0  0.80879  0.65432  0.24695  1.0000
  C   C1931     1.0  0.49719  0.60622  0.47122  1.0000
  H   H1534     1.0  0.84708  0.52815  0.45904  1.0000
  C   C1932     1.0  0.49541  0.57991  0.47823  1.0000
  C   C1933     1.0  0.58692  0.48692  0.29845  1.0000
  C   C1934     1.0  0.87549  0.50702  0.46065  1.0000
  H   H1535     1.0  0.87730  0.50644  0.47492  1.0000
  H   H1536     1.0  0.91494  0.94358  0.28228  1.0000
  C   C1935     1.0  0.79195  0.51507  0.33891  1.0000
  H   H1537     1.0  0.62388  0.50805  0.28380  1.0000
  C   C1936     1.0  0.95278  0.51815  0.48244  1.0000
  C   C1937     1.0  0.81802  0.49290  0.32562  1.0000
  H   H1538     1.0  0.87309  0.53241  0.34910  1.0000
  C   C1938     1.0  0.90460  0.51707  0.35898  1.0000
  H   H1539     1.0  0.78479  0.52029  0.35056  1.0000
  C   C1939     1.0  0.94142  0.95117  0.30618  1.0000
  C   C1940     1.0  0.48370  0.60845  0.45484  1.0000
  H   H1540     1.0  0.93179  0.85817  0.27041  1.0000
  C   C1941     1.0  0.93861  0.96844  0.24843  1.0000
  P   P66       1.0  0.47612  0.52129  0.47816  1.0000
  H   H1541     1.0  0.57393  0.47700  0.28702  1.0000
  C   C1942     1.0  0.94776  0.92826  0.28109  1.0000
  H   H1542     1.0  0.50578  0.57866  0.49099  1.0000
  H   H1543     1.0  0.50886  0.62486  0.47856  1.0000
  H   H1544     1.0  0.62321  0.55903  0.25464  1.0000
  C   C1943     1.0  0.52512  0.51468  0.49111  1.0000
  H   H1545     1.0  0.46677  0.76496  0.48585  1.0000
  C   C1944     1.0  0.96178  0.48024  0.39960  1.0000
  H   H1546     1.0  0.85147  0.47659  0.25863  1.0000
  H   H1547     1.0  0.95701  0.50344  0.44004  1.0000
  C   C1945     1.0  0.62181  0.54731  0.24309  1.0000
  C   C1946     1.0  0.96308  0.90958  0.24862  1.0000
  H   H1548     1.0  0.49194  0.73301  0.49091  1.0000
  C   C1947     1.0  0.77698  0.67095  0.24161  1.0000
  C   C1948     1.0  0.96279  0.50762  0.39974  1.0000
  C   C1949     1.0  0.96317  0.51277  0.45284  1.0000
  C   C1950     1.0  0.88347  0.92484  0.71727  1.0000
  Fe  Fe133     1.0  0.49808  0.78954  0.68846  1.0000
  S   S263      1.0  0.53616  0.77930  0.68764  1.0000
  C   C1951     1.0  0.60706  0.85959  0.67625  1.0000
  Fe  Fe134     1.0  0.49072  0.76917  0.72739  1.0000
  S   S264      1.0  0.52708  0.75627  0.72902  1.0000
  Fe  Fe135     1.0  0.54985  0.79762  0.71475  1.0000
  S   S265      1.0  0.59046  0.83155  0.72657  1.0000
  Fe  Fe136     1.0  0.51048  0.73887  0.70191  1.0000
  S   S266      1.0  0.50791  0.69636  0.69343  1.0000
  S   S267      1.0  0.51346  0.81113  0.71406  1.0000
  C   C1952     1.0  0.54377  0.52157  0.52147  1.0000
  C   C1953     1.0  0.82948  0.55578  0.56268  1.0000
  H   H1549     1.0  0.54548  0.87657  0.63369  1.0000
  S   S268      1.0  0.47229  0.74845  0.70178  1.0000
  H   H1550     1.0  0.83629  0.55845  0.59108  1.0000
  H   H1551     1.0  0.84019  0.48659  0.59346  1.0000
  C   C1954     1.0  0.62614  0.83849  0.73353  1.0000
  H   H1552     1.0  0.83686  0.48877  0.49375  1.0000
  C   C1955     1.0  0.83411  0.51325  0.54048  1.0000
  C   C1956     1.0  0.86149  0.52376  0.57709  1.0000
  C   C1957     1.0  0.63942  0.82092  0.72986  1.0000
  H   H1553     1.0  0.56859  0.73704  0.65071  1.0000
  C   C1958     1.0  0.60251  0.86313  0.61680  1.0000
  C   C1959     1.0  0.52985  0.86247  0.62474  1.0000
  C   C1960     1.0  0.46886  0.69428  0.61599  1.0000
  C   C1961     1.0  0.58391  0.81617  0.60572  1.0000
  C   C1962     1.0  0.50938  0.81849  0.60988  1.0000
  C   C1963     1.0  0.81020  0.50428  0.52883  1.0000
  C   C1964     1.0  0.87863  0.96446  0.73833  1.0000
  C   C1965     1.0  0.54505  0.51393  0.50443  1.0000
  H   H1554     1.0  0.47693  0.96614  0.49328  1.0000
  C   C1966     1.0  0.79952  0.49497  0.57020  1.0000
  C   C1967     1.0  0.58936  0.86558  0.68654  1.0000
  S   S269      1.0  0.47449  0.79794  0.66351  1.0000
  H   H1555     1.0  0.48453  0.73204  0.64893  1.0000
  C   C1968     1.0  0.48941  0.85350  0.60428  1.0000
  H   H1556     1.0  0.77854  0.52303  0.57322  1.0000
  H   H1557     1.0  0.81949  0.60627  0.53511  1.0000
  H   H1558     1.0  0.79037  0.50297  0.53293  1.0000
  C   C1969     1.0  0.52295  0.53059  0.52513  1.0000
  H   H1559     1.0  0.52155  0.53576  0.53847  1.0000
  S   S270      1.0  0.94215  0.50035  0.57483  1.0000
  C   C1970     1.0  0.85957  0.50398  0.59105  1.0000
  C   C1971     1.0  0.48831  0.95178  0.58785  1.0000
  C   C1972     1.0  0.48469  0.73753  0.59823  1.0000
  H   H1560     1.0  0.50958  0.89139  0.61853  1.0000
  H   H1561     1.0  0.62797  0.80236  0.72244  1.0000
  C   C1973     1.0  0.48154  0.67416  0.67850  1.0000
  C   C1974     1.0  0.90860  0.52853  0.59955  1.0000
  C   C1975     1.0  0.50321  0.53173  0.51179  1.0000
  H   H1562     1.0  0.59703  0.87466  0.69931  1.0000
  C   C1976     1.0  0.88306  0.50641  0.60221  1.0000
  H   H1563     1.0  0.92700  0.52988  0.60784  1.0000
  H   H1564     1.0  0.88163  0.49073  0.61268  1.0000
  C   C1977     1.0  0.56275  0.77495  0.64188  1.0000
  H   H1565     1.0  0.83364  0.60489  0.59157  1.0000
  C   C1978     1.0  0.46736  0.82729  0.65502  1.0000
  H   H1566     1.0  0.50921  0.79824  0.60721  1.0000
  H   H1567     1.0  0.50068  0.94925  0.56199  1.0000
  C   C1979     1.0  0.52942  0.83577  0.62207  1.0000
  C   C1980     1.0  0.82639  0.60853  0.56338  1.0000
  C   C1981     1.0  0.56928  0.84139  0.65371  1.0000
  C   C1982     1.0  0.83114  0.59501  0.57910  1.0000
  C   C1983     1.0  0.48355  0.64957  0.67321  1.0000
  H   H1568     1.0  0.56854  0.79483  0.60571  1.0000
  H   H1569     1.0  0.62836  0.86386  0.68121  1.0000
  C   C1984     1.0  0.56148  0.85881  0.68070  1.0000
  P   P67       1.0  0.55594  0.82489  0.63291  1.0000
  H   H1570     1.0  0.48648  0.68893  0.57143  1.0000
  C   C1985     1.0  0.49063  0.96928  0.60156  1.0000
  H   H1571     1.0  0.47297  0.67739  0.62328  1.0000
  H   H1572     1.0  0.60563  0.80965  0.58473  1.0000
  C   C1986     1.0  0.46542  0.67527  0.56727  1.0000
  C   C1987     1.0  0.55141  0.84648  0.66444  1.0000
  H   H1573     1.0  0.51854  0.70946  0.65458  1.0000
  C   C1988     1.0  0.55367  0.74669  0.64749  1.0000
  H   H1574     1.0  0.90039  0.48822  0.54621  1.0000
  H   H1575     1.0  0.88914  0.56187  0.56416  1.0000
  C   C1989     1.0  0.85938  0.51432  0.53481  1.0000
  C   C1990     1.0  0.59706  0.84742  0.65991  1.0000
  C   C1991     1.0  0.77701  0.50159  0.57402  1.0000
  H   H1576     1.0  0.63858  0.89288  0.60441  1.0000
  H   H1577     1.0  0.48685  0.53815  0.51500  1.0000
  C   C1992     1.0  0.54350  0.78767  0.63811  1.0000
  C   C1993     1.0  0.91064  0.54845  0.58584  1.0000
  H   H1578     1.0  0.79275  0.48845  0.50317  1.0000
  C   C1994     1.0  0.49009  0.71566  0.60735  1.0000
  C   C1995     1.0  0.85713  0.92424  0.72003  1.0000
  H   H1579     1.0  0.47349  0.86011  0.59790  1.0000
  H   H1580     1.0  0.87977  0.50551  0.51393  1.0000
  C   C1996     1.0  0.62336  0.87144  0.60480  1.0000
  H   H1581     1.0  0.83441  0.94389  0.73267  1.0000
  C   C1997     1.0  0.47147  0.72699  0.49584  1.0000
  H   H1582     1.0  0.52959  0.84049  0.66036  1.0000
  C   C1998     1.0  0.51522  0.77195  0.64069  1.0000
  H   H1583     1.0  0.82518  0.62889  0.56365  1.0000
  C   C1999     1.0  0.51993  0.96479  0.65640  1.0000
  H   H1584     1.0  0.64080  0.85858  0.58406  1.0000
  C   C2000     1.0  0.50625  0.74381  0.64648  1.0000
  C   C2001     1.0  0.58297  0.83530  0.61756  1.0000
  C   C2002     1.0  0.60479  0.82454  0.59373  1.0000
  C   C2003     1.0  0.50980  0.87118  0.61596  1.0000
  C   C2004     1.0  0.85475  0.94419  0.73047  1.0000
  H   H1585     1.0  0.50121  0.75412  0.59159  1.0000
  H   H1586     1.0  0.49689  0.85739  0.67248  1.0000
  H   H1587     1.0  0.92758  0.94511  0.72290  1.0000
  H   H1588     1.0  0.60166  0.87839  0.62550  1.0000
  H   H1589     1.0  0.56096  0.50648  0.50173  1.0000
  C   C2005     1.0  0.50380  0.52328  0.49473  1.0000
  C   C2006     1.0  0.83644  0.49634  0.50659  1.0000
  H   H1590     1.0  0.47499  0.92970  0.58901  1.0000
  H   H1591     1.0  0.46823  0.69277  0.54081  1.0000
  C   C2007     1.0  0.90744  0.94531  0.72501  1.0000
  C   C2008     1.0  0.81146  0.49607  0.51193  1.0000
  H   H1592     1.0  0.47877  0.96029  0.61302  1.0000
  H   H1593     1.0  0.61091  0.84235  0.65231  1.0000
  C   C2009     1.0  0.48926  0.82721  0.60116  1.0000
  H   H1594     1.0  0.50077  0.64421  0.67857  1.0000
  H   H1595     1.0  0.93063  0.56529  0.58365  1.0000
  C   C2010     1.0  0.82475  0.56951  0.54692  1.0000
  C   C2011     1.0  0.50438  0.96686  0.66987  1.0000
  H   H1596     1.0  0.88533  0.90915  0.70938  1.0000
  H   H1597     1.0  0.54752  0.86248  0.68900  1.0000
  C   C2012     1.0  0.47717  0.87724  0.65293  1.0000
  C   C2013     1.0  0.88717  0.54623  0.57473  1.0000
  C   C2014     1.0  0.48178  0.85421  0.66137  1.0000
  H   H1598     1.0  0.47343  0.81357  0.59210  1.0000
  C   C2015     1.0  0.50294  0.96276  0.57274  1.0000
  C   C2016     1.0  0.52543  0.73112  0.64976  1.0000
  H   H1599     1.0  0.83854  0.90821  0.71421  1.0000
  H   H1600     1.0  0.52966  0.94970  0.65779  1.0000
  H   H1601     1.0  0.58486  0.78704  0.64095  1.0000
  H   H1602     1.0  0.55859  0.51993  0.53193  1.0000
  H   H1603     1.0  0.48901  0.89813  0.65754  1.0000
  H   H1604     1.0  0.50014  0.78153  0.63878  1.0000
  C   C2017     1.0  0.86047  0.50565  0.51797  1.0000
  P   P68       1.0  0.83139  0.52176  0.56268  1.0000
  H   H1605     1.0  0.67765  0.81368  0.73267  1.0000
  C   C2018     1.0  0.82319  0.59578  0.54730  1.0000
  H   H1606     1.0  0.47018  0.68719  0.50671  1.0000
  C   C2019     1.0  0.83267  0.56873  0.57877  1.0000
  H   H1607     1.0  0.82227  0.56012  0.53431  1.0000
  C   C2020     1.0  0.62458  0.85213  0.59332  1.0000
  H   H1608     1.0  0.51078  0.71540  0.60797  1.0000
  H   H1609     1.0  0.87809  0.52101  0.54349  1.0000
  C   C2021     1.0  0.46884  0.96447  0.50607  1.0000
  H   H1610     1.0  0.46570  0.61337  0.65681  1.0000
  C   C2022     1.0  0.90513  0.96520  0.73569  1.0000
  H   H1611     1.0  0.50211  0.95340  0.68169  1.0000
  H   H1612     1.0  0.93843  0.51326  0.49277  1.0000
  H   H1613     1.0  0.73416  0.48527  0.58091  1.0000
  C   C2023     1.0  0.75174  0.48023  0.57841  1.0000
  C   C2024     1.0  0.66768  0.82747  0.73566  1.0000
  S   S271      1.0  0.93942  0.88203  0.76024  1.0000
  H   H1614     1.0  0.52088  0.71883  0.80274  1.0000
  Fe  Fe137     1.0  0.80820  0.89992  0.79099  1.0000
  C   C2025     1.0  0.51997  0.82969  0.76882  1.0000
  S   S272      1.0  0.84026  0.88317  0.80313  1.0000
  Fe  Fe138     1.0  0.76816  0.92459  0.80223  1.0000
  S   S273      1.0  0.75739  0.93623  0.77434  1.0000
  S   S274      1.0  0.74779  0.93433  0.82439  1.0000
  Fe  Fe139     1.0  0.75382  0.89298  0.76822  1.0000
  C   C2026     1.0  0.73879  0.79641  0.97601  1.0000
  Fe  Fe140     1.0  0.80371  0.95088  0.77120  1.0000
  S   S275      1.0  0.76262  0.88096  0.79649  1.0000
  S   S276      1.0  0.81424  0.94254  0.79953  1.0000
  Fe  Fe141     1.0  0.70744  0.85251  0.95695  1.0000
  S   S277      1.0  0.67439  0.87087  0.95539  1.0000
  H   H1615     1.0  0.94840  0.84338  0.99038  1.0000
  Fe  Fe142     1.0  0.72294  0.87283  0.91930  1.0000
  S   S278      1.0  0.69189  0.89286  0.91547  1.0000
  S   S279      1.0  0.75375  0.87496  0.89942  1.0000
  Fe  Fe143     1.0  0.70687  0.90879  0.94279  1.0000
  S   S280      1.0  0.71718  0.95485  0.94787  1.0000
  Fe  Fe144     1.0  0.66166  0.85297  0.92811  1.0000
  S   S281      1.0  0.61768  0.83879  0.91335  1.0000
  S   S282      1.0  0.74008  0.89144  0.94559  1.0000
  S   S283      1.0  0.69265  0.83192  0.93065  1.0000
  C   C2027     1.0  0.59370  0.75268  0.85162  1.0000
  H   H1616     1.0  0.63798  0.81737  0.83840  1.0000
  H   H1617     1.0  0.69677  0.83172  0.78728  1.0000
  S   S284      1.0  0.50368  0.73283  0.89422  1.0000
  C   C2028     1.0  0.51854  0.82489  0.78708  1.0000
  C   C2029     1.0  0.58631  0.80886  0.90803  1.0000
  C   C2030     1.0  0.56409  0.81298  0.89801  1.0000
  C   C2031     1.0  0.53891  0.79017  0.89344  1.0000
  C   C2032     1.0  0.53537  0.76269  0.89894  1.0000
  C   C2033     1.0  0.55770  0.75853  0.90877  1.0000
  C   C2034     1.0  0.58295  0.78133  0.91325  1.0000
  H   H1618     1.0  0.56621  0.83410  0.89394  1.0000
  H   H1619     1.0  0.52205  0.79393  0.88596  1.0000
  H   H1620     1.0  0.55534  0.73748  0.91318  1.0000
  H   H1621     1.0  0.59962  0.77762  0.92098  1.0000
  C   C2035     1.0  0.60237  0.84669  0.85947  1.0000
  C   C2036     1.0  0.48344  0.80242  0.82527  1.0000
  C   C2037     1.0  0.46748  0.72326  0.76914  1.0000
  H   H1622     1.0  0.52278  0.77665  0.85230  1.0000
  C   C2038     1.0  0.84604  0.97031  0.85686  1.0000
  C   C2039     1.0  0.67708  0.79294  0.80267  1.0000
  H   H1623     1.0  0.89068  0.87511  0.81416  1.0000
  H   H1624     1.0  0.48412  0.63119  0.90031  1.0000
  H   H1625     1.0  0.50897  0.69685  0.83250  1.0000
  C   C2040     1.0  0.75033  0.91829  0.84523  1.0000
  C   C2041     1.0  0.76725  0.90304  0.84860  1.0000
  C   C2042     1.0  0.76852  0.89027  0.86540  1.0000
  C   C2043     1.0  0.75261  0.89228  0.87876  1.0000
  C   C2044     1.0  0.73598  0.90780  0.87539  1.0000
  C   C2045     1.0  0.73495  0.92088  0.85870  1.0000
  H   H1626     1.0  0.77940  0.90116  0.83832  1.0000
  H   H1627     1.0  0.78169  0.87863  0.86798  1.0000
  H   H1628     1.0  0.72382  0.90970  0.88558  1.0000
  H   H1629     1.0  0.72199  0.93285  0.85619  1.0000
  C   C2046     1.0  0.58987  0.86152  0.82480  1.0000
  C   C2047     1.0  0.84339  0.73641  0.98350  1.0000
  H   H1630     1.0  0.47920  0.78440  0.81745  1.0000
  C   C2048     1.0  0.81775  0.72049  0.97503  1.0000
  C   C2049     1.0  0.54128  0.82285  0.79750  1.0000
  C   C2050     1.0  0.51598  0.84423  0.83941  1.0000
  C   C2051     1.0  0.85389  0.93781  0.83860  1.0000
  C   C2052     1.0  0.75158  0.95861  0.97831  1.0000
  C   C2053     1.0  0.67920  0.88052  0.81571  1.0000
  C   C2054     1.0  0.84135  0.95051  0.87105  1.0000
  C   C2055     1.0  0.68325  0.85173  0.74516  1.0000
  C   C2056     1.0  0.93074  0.86323  0.94015  1.0000
  C   C2057     1.0  0.91259  0.88337  0.77245  1.0000
  C   C2058     1.0  0.91278  0.87894  0.79080  1.0000
  C   C2059     1.0  0.89058  0.87909  0.80002  1.0000
  C   C2060     1.0  0.86816  0.88402  0.79104  1.0000
  C   C2061     1.0  0.86822  0.88896  0.77273  1.0000
  C   C2062     1.0  0.89024  0.88843  0.76349  1.0000
  H   H1631     1.0  0.85113  0.89276  0.76561  1.0000
  S   S285      1.0  0.72128  0.83820  0.98391  1.0000
  C   C2063     1.0  0.82078  0.83103  0.91714  1.0000
  C   C2064     1.0  0.80376  0.84389  0.92224  1.0000
  C   C2065     1.0  0.80294  0.84814  0.94007  1.0000
  C   C2066     1.0  0.81943  0.83986  0.95284  1.0000
  C   C2067     1.0  0.83700  0.82734  0.94779  1.0000
  C   C2068     1.0  0.83725  0.82268  0.92986  1.0000
  P   P69       1.0  0.85858  0.81610  0.96380  1.0000
  C   C2069     1.0  0.84250  0.77861  0.96794  1.0000
  C   C2070     1.0  0.89231  0.82698  0.95473  1.0000
  C   C2071     1.0  0.90476  0.85432  0.94735  1.0000
  H   H1632     1.0  0.49863  0.67755  0.91333  1.0000
  C   C2072     1.0  0.90616  0.80862  0.95457  1.0000
  C   C2073     1.0  0.85532  0.76542  0.98035  1.0000
  C   C2074     1.0  0.62051  0.87132  0.85141  1.0000
  H   H1633     1.0  0.60940  0.73906  0.81181  1.0000
  C   C2075     1.0  0.80431  0.73355  0.96310  1.0000
  C   C2076     1.0  0.81666  0.76250  0.95947  1.0000
  H   H1634     1.0  0.50212  0.83053  0.76076  1.0000
  H   H1635     1.0  0.77544  0.95485  0.94453  1.0000
  H   H1636     1.0  0.63948  0.88651  0.77909  1.0000
  C   C2077     1.0  0.53031  0.76071  0.81085  1.0000
  H   H1637     1.0  0.60660  0.84140  0.87315  1.0000
  H   H1638     1.0  0.94816  0.92034  0.96174  1.0000
  H   H1639     1.0  0.82115  0.82745  0.90334  1.0000
  H   H1640     1.0  0.79091  0.85026  0.91241  1.0000
  H   H1641     1.0  0.78929  0.85769  0.94401  1.0000
  H   H1642     1.0  0.81822  0.84333  0.96652  1.0000
  H   H1643     1.0  0.85021  0.81254  0.92571  1.0000
  H   H1644     1.0  0.89435  0.86874  0.94720  1.0000
  C   C2078     1.0  0.63425  0.77733  0.76967  1.0000
  H   H1645     1.0  0.75088  0.76243  0.97095  1.0000
  H   H1646     1.0  0.62803  0.89815  0.82792  1.0000
  H   H1647     1.0  0.70505  0.74360  0.81087  1.0000
  C   C2079     1.0  0.58811  0.75621  0.75523  1.0000
  H   H1648     1.0  0.48996  0.52108  0.91681  1.0000
  H   H1649     1.0  0.95170  0.94847  0.76576  1.0000
  C   C2080     1.0  0.51690  0.73589  0.84440  1.0000
  C   C2081     1.0  0.64825  0.87669  0.78962  1.0000
  C   C2082     1.0  0.57187  0.83620  0.83263  1.0000
  H   H1650     1.0  0.75979  0.95938  0.89235  1.0000
  H   H1651     1.0  0.74275  0.77890  0.79410  1.0000
  C   C2083     1.0  0.69859  0.81278  0.79314  1.0000
  C   C2084     1.0  0.67000  0.86941  0.74873  1.0000
  H   H1652     1.0  0.47262  0.59287  0.86687  1.0000
  H   H1653     1.0  0.62755  0.83564  0.77944  1.0000
  C   C2085     1.0  0.56527  0.82545  0.78927  1.0000
  C   C2086     1.0  0.59358  0.73758  0.83711  1.0000
  H   H1654     1.0  0.63907  0.88499  0.85874  1.0000
  C   C2087     1.0  0.67257  0.85167  0.81596  1.0000
  C   C2088     1.0  0.62628  0.79504  0.83785  1.0000
  S   S286      1.0  0.79950  0.90867  0.76232  1.0000
  C   C2089     1.0  0.61026  0.78130  0.85206  1.0000
  C   C2090     1.0  0.85309  0.96404  0.84075  1.0000
  C   C2091     1.0  0.56658  0.83024  0.77101  1.0000
  C   C2092     1.0  0.67965  0.76804  0.80925  1.0000
  C   C2093     1.0  0.61003  0.75109  0.82303  1.0000
  H   H1655     1.0  0.83730  0.90864  0.87961  1.0000
  C   C2094     1.0  0.52276  0.73181  0.81371  1.0000
  C   C2095     1.0  0.93219  0.81768  0.94746  1.0000
  C   C2096     1.0  0.62634  0.78005  0.82315  1.0000
  H   H1656     1.0  0.61022  0.79295  0.86333  1.0000
  C   C2097     1.0  0.70335  0.76307  0.80622  1.0000
  H   H1657     1.0  0.92975  0.87478  0.79783  1.0000
  H   H1658     1.0  0.84823  0.89738  0.85063  1.0000
  H   H1659     1.0  0.94320  0.80373  0.94788  1.0000
  C   C2098     1.0  0.76895  0.82852  0.83198  1.0000
  C   C2099     1.0  0.79511  0.83969  0.84102  1.0000
  C   C2100     1.0  0.79766  0.83553  0.85932  1.0000
  C   C2101     1.0  0.77402  0.82018  0.86860  1.0000
  C   C2102     1.0  0.74769  0.80849  0.85955  1.0000
  C   C2103     1.0  0.74529  0.81301  0.84118  1.0000
  P   P70       1.0  0.71709  0.78783  0.87125  1.0000
  C   C2104     1.0  0.69782  0.75610  0.85953  1.0000
  C   C2105     1.0  0.72796  0.77851  0.89318  1.0000
  C   C2106     1.0  0.73272  0.75371  0.89657  1.0000
  C   C2107     1.0  0.74175  0.74722  0.91352  1.0000
  C   C2108     1.0  0.74614  0.76540  0.92719  1.0000
  C   C2109     1.0  0.74155  0.79011  0.92391  1.0000
  C   C2110     1.0  0.73265  0.79672  0.90700  1.0000
  C   C2111     1.0  0.66852  0.74441  0.85841  1.0000
  C   C2112     1.0  0.65395  0.71894  0.85022  1.0000
  C   C2113     1.0  0.66845  0.70501  0.84303  1.0000
  C   C2114     1.0  0.69757  0.71663  0.84395  1.0000
  C   C2115     1.0  0.71222  0.74221  0.85199  1.0000
  C   C2116     1.0  0.69553  0.80729  0.87343  1.0000
  C   C2117     1.0  0.67534  0.79813  0.88601  1.0000
  C   C2118     1.0  0.65993  0.81399  0.88884  1.0000
  C   C2119     1.0  0.66455  0.83912  0.87918  1.0000
  C   C2120     1.0  0.68378  0.84785  0.86616  1.0000
  C   C2121     1.0  0.69945  0.83216  0.86337  1.0000
  H   H1660     1.0  0.76715  0.83206  0.81782  1.0000
  H   H1661     1.0  0.81336  0.85171  0.83380  1.0000
  H   H1662     1.0  0.81794  0.84450  0.86630  1.0000
  H   H1663     1.0  0.77639  0.81770  0.88279  1.0000
  H   H1664     1.0  0.72514  0.80472  0.83399  1.0000
  H   H1665     1.0  0.72955  0.73931  0.88625  1.0000
  H   H1666     1.0  0.74526  0.72801  0.91612  1.0000
  H   H1667     1.0  0.75300  0.76033  0.94032  1.0000
  H   H1668     1.0  0.74496  0.80431  0.93446  1.0000
  H   H1669     1.0  0.72949  0.81612  0.90474  1.0000
  H   H1670     1.0  0.65677  0.75464  0.86394  1.0000
  H   H1671     1.0  0.63137  0.70985  0.84961  1.0000
  H   H1672     1.0  0.65711  0.68517  0.83681  1.0000
  H   H1673     1.0  0.70884  0.70580  0.83842  1.0000
  H   H1674     1.0  0.73481  0.75089  0.85264  1.0000
  H   H1675     1.0  0.67209  0.77916  0.89406  1.0000
  H   H1676     1.0  0.64502  0.80728  0.89896  1.0000
  H   H1677     1.0  0.65374  0.85215  0.88216  1.0000
  H   H1678     1.0  0.68738  0.86741  0.85873  1.0000
  H   H1679     1.0  0.71524  0.84018  0.85387  1.0000
  H   H1680     1.0  0.56461  0.81053  0.85693  1.0000
  H   H1681     1.0  0.58493  0.86846  0.81168  1.0000
  C   C2122     1.0  0.51098  0.82115  0.82906  1.0000
  H   H1682     1.0  0.80802  0.69815  0.97806  1.0000
  H   H1683     1.0  0.69411  0.89326  0.82556  1.0000
  H   H1684     1.0  0.49947  0.82238  0.79280  1.0000
  C   C2123     1.0  0.49366  0.84822  0.84601  1.0000
  C   C2124     1.0  0.57830  0.82913  0.85014  1.0000
  C   C2125     1.0  0.64134  0.84773  0.78995  1.0000
  H   H1685     1.0  0.87464  0.77748  0.98757  1.0000
  C   C2126     1.0  0.46629  0.82939  0.84218  1.0000
  H   H1686     1.0  0.68290  0.84247  0.82589  1.0000
  C   C2127     1.0  0.61426  0.87872  0.83406  1.0000
  C   C2128     1.0  0.66723  0.89309  0.80248  1.0000
  H   H1687     1.0  0.57488  0.74622  0.74387  1.0000
  C   C2129     1.0  0.53148  0.77760  0.82482  1.0000
  H   H1688     1.0  0.49757  0.86577  0.85423  1.0000
  H   H1689     1.0  0.89084  0.94612  0.80134  1.0000
  H   H1690     1.0  0.63192  0.87689  0.74563  1.0000
  H   H1691     1.0  0.53699  0.85901  0.84259  1.0000
  H   H1692     1.0  0.73810  0.82268  0.78217  1.0000
  H   H1693     1.0  0.58036  0.71545  0.83666  1.0000
  C   C2130     1.0  0.54398  0.83242  0.76081  1.0000
  H   H1694     1.0  0.79279  0.96020  0.87087  1.0000
  H   H1695     1.0  0.67319  0.91564  0.80201  1.0000
  C   C2131     1.0  0.52420  0.76477  0.84156  1.0000
  H   H1696     1.0  0.66312  0.75215  0.81623  1.0000
  H   H1697     1.0  0.51073  0.72613  0.85727  1.0000
  C   C2132     1.0  0.57658  0.76161  0.76973  1.0000
  H   H1698     1.0  0.58070  0.74234  0.86246  1.0000
  C   C2133     1.0  0.51605  0.71940  0.83047  1.0000
  C   C2134     1.0  0.75139  0.77706  0.98050  1.0000
  H   H1699     1.0  0.58487  0.83189  0.76456  1.0000
  H   H1700     1.0  0.94030  0.88429  0.93448  1.0000
  H   H1701     1.0  0.85851  0.93272  0.82599  1.0000
  H   H1702     1.0  0.65651  0.78384  0.76900  1.0000
  C   C2135     1.0  0.64174  0.86287  0.74290  1.0000
  H   H1703     1.0  0.90645  0.85758  0.98406  1.0000
  H   H1704     1.0  0.58284  0.82351  0.79700  1.0000
  C   C2136     1.0  0.72457  0.78287  0.79668  1.0000
  P   P71       1.0  0.53939  0.81478  0.82102  1.0000
  H   H1705     1.0  0.53401  0.76937  0.79754  1.0000
  C   C2137     1.0  0.90515  0.96538  0.79532  1.0000
  C   C2138     1.0  0.65307  0.83494  0.80333  1.0000
  P   P72       1.0  0.64484  0.79768  0.80382  1.0000
  H   H1706     1.0  0.88987  0.89177  0.74930  1.0000
  H   H1707     1.0  0.90147  0.94674  0.77055  1.0000
  H   H1708     1.0  0.74739  0.93667  0.97691  1.0000
  H   H1709     1.0  0.89731  0.78739  0.95996  1.0000
  C   C2139     1.0  0.72211  0.80765  0.79010  1.0000
  C   C2140     1.0  0.62282  0.78218  0.78452  1.0000
  C   C2141     1.0  0.91113  0.96582  0.77774  1.0000
  H   H1710     1.0  0.47518  0.71850  0.75756  1.0000
  C   C2142     1.0  0.59385  0.77439  0.78438  1.0000
  C   C2143     1.0  0.84198  0.92421  0.86881  1.0000
  C   C2144     1.0  0.80956  0.96252  0.92818  1.0000
  H   H1711     1.0  0.78399  0.72130  0.95702  1.0000
  H   H1712     1.0  0.72837  0.79646  0.96313  1.0000
  S   S287      1.0  0.71903  0.85888  0.75197  1.0000
  H   H1713     1.0  0.58462  0.77807  0.79562  1.0000
  C   C2145     1.0  0.84807  0.91782  0.85254  1.0000
  H   H1714     1.0  0.54501  0.83591  0.74664  1.0000
  C   C2146     1.0  0.47674  0.66381  0.91206  1.0000
  H   H1715     1.0  0.55425  0.75596  0.76953  1.0000
  C   C2147     1.0  0.61688  0.76404  0.75522  1.0000
  C   C2148     1.0  0.46841  0.63755  0.90473  1.0000
  C   C2149     1.0  0.73851  0.81476  0.98852  1.0000
  C   C2150     1.0  0.47880  0.55550  0.92203  1.0000
  H   H1716     1.0  0.47922  0.61054  0.83593  1.0000
  H   H1717     1.0  0.80056  0.94172  0.92288  1.0000
  H   H1718     1.0  0.80563  0.77217  0.95043  1.0000
  C   C2151     1.0  0.94453  0.84496  0.94033  1.0000
  C   C2152     1.0  0.95941  0.91728  0.97381  1.0000
  C   C2153     1.0  0.96211  0.93967  0.81910  1.0000
  H   H1719     1.0  0.94314  0.92575  0.81229  1.0000
  C   C2154     1.0  0.86222  0.83191  0.98477  1.0000
  H   H1720     1.0  0.83668  0.95506  0.88375  1.0000
  H   H1721     1.0  0.46567  0.68548  0.78382  1.0000
  H   H1722     1.0  0.49016  0.55920  0.93483  1.0000
  C   C2155     1.0  0.47863  0.53398  0.91189  1.0000
  C   C2156     1.0  0.73917  0.97234  0.96612  1.0000
  C   C2157     1.0  0.79535  0.96989  0.94036  1.0000
  H   H1723     1.0  0.62582  0.76036  0.74380  1.0000
  H   H1724     1.0  0.95759  0.77562  0.83749  1.0000
  S   S288      1.0  0.46638  0.77056  0.75033  1.0000
  H   H1725     1.0  0.81924  0.80799  0.99044  1.0000
  H   H1726     1.0  0.68160  0.88825  0.75587  1.0000
  C   C2158     1.0  0.95182  0.92180  0.99012  1.0000
  H   H1727     1.0  0.46390  0.58817  0.92401  1.0000
  C   C2159     1.0  0.46406  0.57207  0.91576  1.0000
  C   C2160     1.0  0.88798  0.85150  0.99136  1.0000
  H   H1728     1.0  0.93471  0.92851  0.99068  1.0000
