data_image0
_chemical_formula_structural       CH3FeS2C2FeS2FeS2FeCFeS4C2FeS2FeS2FeSFeHS2HCHCHCH2C7H3C3H2C5H5C9H4CHCH2C2H5CHC6PC7SH11C6PC18H18CH3C6PC18H11C2H7CH3C4H3C2HSC2HCH5C3H5C2SCHC4FeC2SC5H2CHCFeH4CFeC6PCH3CHCSC2H2SCSHCSCHSCH2C2HC2HCH3Fe2HC4HSC2HCHFeSC8HC4FeS2C5H4FeS2HFeS2FeS2FeHFeS3FeS2FeS2Fe3S3HCSC3H6C6H4C2H4C6H6CHC6H4CHC2HC3H3C14PC7HC3HCH9CHC8H4CH2C5PC8HC9HSH2CH6PH5CSC5HCHFeSC2SH2CHCHC2H4C4HCHCH3CH2PC4HC2H2CHC4HCH3C2HC5HC2HCHCHPH5CHC2HCHC2HC4HC2H4CHC2HC2H3CHC3HC3HCH2CHSHCH2CH3FeS2FeS2FeCFeS3FeS2FeSHFeSFeS3HCSFeS2HFeCSH5C2FeH2C9HCH3C2HCSHCSHC6H4C6H4C5H2C3H2C2H4CHSCHCHC3SHCHCHC7HCH2C3HCH3C2HSFeC2PC3H2C2HC2PHCH5C2H2C3HC2H2C2HC2SC10PC8H2C2H10C2H6CHC6H2CHCHCHCHC3H2CHCFeHCH3C3HC2SC2H4SH2CH3CSHCHC7PC14H15CFeH2C3SH3C3H2C2HSHC2HCHCFeC2H2CSC10H4C2H2C4H2C4H2C4PCHC2HSFeS2C2H2CFeS2H2FeSHFeS2FeSFeS3FeS2FeS2FeSFeHS2CHC3HC8H4C2H3C7H5C3HC6H5C3H8C6PC18H7C2H12CHC6PC6HC2H9CH3C2HCHC4HC4PC10HC7H12C2FeC2H3C2HSC6HCFeCH5C2HCHC2PSCH2CHC3H4PHCH2C2H4C4H3C2HCHC3H2PC4HCH2C2HCSCH2CHSCHC3FeCHS3FeSFeS2FeS2FeS2FeSFeS3C2HC6HSH2C6H5C2HC7H3C3H2C5HCFeH4C3H3C2H4C3HC6H2C5HCHCHC2H2C2PC2HC3SHCHCH2C10H2C2HC2FeC2HCHCHC2H2PHC5PHCHCH3CHPHCH2CH4C2HCH3CHC2HC2H2CHCSC4H2SCH2C2HC2H2CHSHC7HC3PC2H5SC2H2CHC3H3CH3CHCHCSH4CH2CHCHC2HCFeHC2HC2HFeSH2FeS2FeS2FeSFeS3FeSFeS2HCS2HC2H2C6H5C8H4C4H5C2HC2SHC5HCPHFeH2C4HCSC3FeC3HC9PC2HC12H2C2H2CH10C6PC18H20CHCHC4H2CHCHC6HCHCSH3C2H12C3P2FeC6HC4H6CH2C2H2C3H2C2H2C2H2C5H2C2H3C5H6C8HCH4CPH3CS2H2CH4SH2CHSHC3H3CFeHSCHCSHSC3H2C5PHC2HC3HC2HC11H3FeH4C2H7SC2H2SH5FeH3CHSH4C3H2CH2CHC4H2CH3C2H2C2HCPCH2CH3C2HC2H2C8SCHC4HCHCH2C2H3CH2CHC3HC2H3FeHCH2C2HC2H2C3PC2H2C2H2C2HC2SC4H2SH2CH4CH2S2C2HCHC3SCHFeSC2HCHSHCH3C4H3C2H2CH3CH3CHC3HPCHC5HC2HCFeCHCHCH2C2HCHC2PHCHC2H2C2H3C2HC2HCHCH2CHC4HCH2CPHCSHCH2CSC2HCH2CHCSCH5CH3CFeSHC4SCSC3H3CH4SH4SHC4H3SCH5C5H2CHC2H4C2H2CHCHC7PC2H3C3H4C5HC2SCH2CFeSH2C9HCSPS2HFeSFeSHCFeS2FeS2FeSFeS3FeS2H2C2HC6H4CH3C6H5C2HC6H4C4PH2C3HC5PC18H6CH11CH3C3H2CPCH3CHC2HCH2SH2C6PC15H9CH6C2HC2H2CSHC2H2C4HCH5CHC5H2C2H7CFeH2C3PC5HC2HC5HC2HCHC4HCHC2H2CHCHCH2C2HCSC2H2SCSH4FeCFeC3H2C2FeS2C2FeS2FeS2FeSFeS3FeSCFeSHFeSFeS2CH2C4H2CSHC7H3C6H4CH3C2H4C2HC7H3C2H2C6PC18H21CHCHCSC4H2C3HPC14H2C4H2CH12SFeHC3HC2H3CHC2H2CPCHC5HC3HC2HCH4CH2C2PC2HC3H4C2H2C2PCH3C2HC4H2CHC5SHCSCH3CH2C2H3PH2SHCH2CH2C3HCH3FeS2FeS2FeS2FeSFeS3HSFeSFeHFeS2CHCPC7H5CHC2HSC7H5C2FeCH2CH3CHSCSCHCHFeHC4HCHC2SC2HC2HC2H3C5H4C4PC18H17C3HCHC7HCH2C6H6C3HCHC2HCHC6PC18H16CH3C3HC3SPCH2CHC2HCHCH2CHCHPCHCH5CH2C3HCFeHCPCH3CFeC3H2CHCHCHSH2CH2CHC2HCHCHC6HCH4C3HSCHCH2S2CHC2H3CH3CH2CHC2FeS2FeS2FeS2FeSFeS3CSHSFeSPFeSHC2HC6H4CH5CHC6H5CHC4H2C2H14C2HCHC7PC17H12CH5C4H7C13HC3PC5HC2HC8HCH5PCHCH10CHC3HC3FeH2CH2C3H2CHC2HC2H2CHCFeC2HCHCPCHC2HC4H2C2HC2H2CHC2PCHC3HC2HCH2C2H3CHCH2CHC3FeS2FeS2FeSFeS3HSHFeSHFeCFeSCSCHCFeS2H2C2HCHC2HCHSH2CH2C2H3C6H4C6H5C3HCHCHCHCHC2H2SC2HC9HC2H2FeH2C3H2CHC4HC3HCHC3HCHC5HCH3CH3CHCH2C2HPCH2CHC2HCH2C2H2CHPHC2HC4H2SCPC9H3C2FeC5H2CH6CH2CHC2HCH2C2HCPSH2C7PC15H2CH14CFeCHCHC4H4CHC3SHC2HCHSCFeH2CH4C3HSH2C3SHC3HC3H3CHFeS2H3FeS2FeS2FeSFeS3HSHCSCFeSFeSFeSHC3HC10H4C3H6CHCH2C3H5C6H4CH5C2H2C2HC3HC2HC2HCHC3HC4SFeHPC2HCH2C8PC16H6CH9PC12H9CHC2HCH2C3HCH2C5HCHC6HCH3CH7CPC2HC11H2C2H5CH6CH3C3PC12HC3HC2H2CH4C2HCH4C2HC3H3C2HC
_chemical_formula_sum              "C2160 H1728 Fe144 S288 P72"
_cell_length_a       50.2459
_cell_length_b       50.144
_cell_length_c       76.4476
_cell_angle_alpha    90.7487
_cell_angle_beta     90.4344
_cell_angle_gamma    118.063

_space_group_name_H-M_alt    "P 1"
_space_group_IT_number       1

loop_
  _space_group_symop_operation_xyz
  'x, y, z'

loop_
  _atom_site_type_symbol
  _atom_site_label
  _atom_site_symmetry_multiplicity
  _atom_site_fract_x
  _atom_site_fract_y
  _atom_site_fract_z
  _atom_site_occupancy
  C   C1        1.0  0.23653  0.38193  0.21666  1.0000
  H   H1        1.0  0.04264  0.43962  0.10729  1.0000
  H   H2        1.0  0.06224  0.21030  0.21878  1.0000
  H   H3        1.0  0.44201  0.40823  0.07212  1.0000
  Fe  Fe1       1.0  0.29196  0.31344  0.20742  1.0000
  S   S1        1.0  0.31699  0.34833  0.18611  1.0000
  S   S2        1.0  0.26116  0.26343  0.20490  1.0000
  C   C2        1.0  0.46584  0.04710  0.06781  1.0000
  C   C3        1.0  0.01886  0.34781  0.15262  1.0000
  Fe  Fe2       1.0  0.33116  0.39191  0.08132  1.0000
  S   S3        1.0  0.33998  0.43977  0.08513  1.0000
  S   S4        1.0  0.30949  0.35524  0.10233  1.0000
  Fe  Fe3       1.0  0.35232  0.40351  0.04202  1.0000
  S   S5        1.0  0.36115  0.45193  0.04383  1.0000
  S   S6        1.0  0.37064  0.38490  0.01979  1.0000
  Fe  Fe4       1.0  0.38291  0.45410  0.06990  1.0000
  C   C4        1.0  0.29715  0.39781  0.21139  1.0000
  Fe  Fe5       1.0  0.31729  0.43367  0.05876  1.0000
  S   S7        1.0  0.28552  0.45453  0.05665  1.0000
  S   S8        1.0  0.37554  0.40623  0.06795  1.0000
  S   S9        1.0  0.30673  0.38496  0.05522  1.0000
  S   S10       1.0  0.37999  0.01060  0.02453  1.0000
  C   C5        1.0  0.35634  0.99213  0.99045  1.0000
  C   C6        1.0  0.41208  0.43468  0.13652  1.0000
  Fe  Fe6       1.0  0.05729  0.40229  0.07812  1.0000
  S   S11       1.0  0.10667  0.43583  0.07779  1.0000
  S   S12       1.0  0.02961  0.37611  0.10189  1.0000
  Fe  Fe7       1.0  0.04998  0.40608  0.03745  1.0000
  S   S13       1.0  0.09932  0.43883  0.03487  1.0000
  S   S14       1.0  0.01418  0.39720  0.01591  1.0000
  Fe  Fe8       1.0  0.10845  0.41001  0.05394  1.0000
  S   S15       1.0  0.14138  0.39054  0.05170  1.0000
  Fe  Fe9       1.0  0.09337  0.46211  0.05884  1.0000
  H   H4        1.0  0.12318  0.24400  0.20532  1.0000
  S   S16       1.0  0.05913  0.37519  0.05483  1.0000
  S   S17       1.0  0.04399  0.43061  0.06083  1.0000
  H   H5        1.0  0.99196  0.33795  0.12889  1.0000
  C   C7        1.0  0.00585  0.37885  0.99489  1.0000
  H   H6        1.0  0.03898  0.36316  0.99594  1.0000
  C   C8        1.0  0.37776  0.01488  0.00136  1.0000
  H   H7        1.0  0.24336  0.47802  0.05805  1.0000
  C   C9        1.0  0.39812  0.04237  0.99372  1.0000
  H   H8        1.0  0.41501  0.06010  0.00189  1.0000
  H   H9        1.0  0.12638  0.35181  0.21028  1.0000
  C   C10       1.0  0.24536  0.43608  0.05595  1.0000
  C   C11       1.0  0.23032  0.45370  0.05681  1.0000
  C   C12       1.0  0.19854  0.44019  0.05574  1.0000
  C   C13       1.0  0.18141  0.40883  0.05369  1.0000
  C   C14       1.0  0.19643  0.39119  0.05298  1.0000
  C   C15       1.0  0.22820  0.40467  0.05419  1.0000
  C   C16       1.0  0.10475  0.47523  0.12199  1.0000
  H   H10       1.0  0.18735  0.45408  0.05614  1.0000
  H   H11       1.0  0.18342  0.36693  0.05130  1.0000
  H   H12       1.0  0.23942  0.39085  0.05334  1.0000
  C   C17       1.0  0.11720  0.27790  0.21997  1.0000
  C   C18       1.0  0.37204  0.38622  0.99635  1.0000
  C   C19       1.0  0.39197  0.37824  0.98758  1.0000
  H   H13       1.0  0.33765  0.39971  0.99265  1.0000
  H   H14       1.0  0.40680  0.37265  0.99518  1.0000
  C   C20       1.0  0.04716  0.36536  0.16054  1.0000
  C   C21       1.0  0.01410  0.35138  0.13473  1.0000
  C   C22       1.0  0.03758  0.37214  0.12432  1.0000
  C   C23       1.0  0.06610  0.38922  0.13213  1.0000
  C   C24       1.0  0.07070  0.38614  0.15014  1.0000
  H   H15       1.0  0.08450  0.40496  0.12432  1.0000
  H   H16       1.0  0.09268  0.39997  0.15605  1.0000
  H   H17       1.0  0.33761  0.08795  0.01761  1.0000
  H   H18       1.0  0.21458  0.47998  0.11296  1.0000
  H   H19       1.0  0.41282  0.41356  0.13797  1.0000
  C   C25       1.0  0.43745  0.98862  0.01297  1.0000
  C   C26       1.0  0.98232  0.37878  0.98473  1.0000
  C   C27       1.0  0.98461  0.46874  0.09886  1.0000
  C   C28       1.0  0.31266  0.35004  0.16292  1.0000
  C   C29       1.0  0.29354  0.32476  0.15266  1.0000
  C   C30       1.0  0.29260  0.32693  0.13424  1.0000
  C   C31       1.0  0.31043  0.35440  0.12576  1.0000
  C   C32       1.0  0.32861  0.37992  0.13610  1.0000
  C   C33       1.0  0.32991  0.37767  0.15448  1.0000
  H   H20       1.0  0.28008  0.30336  0.15886  1.0000
  H   H21       1.0  0.27828  0.30703  0.12646  1.0000
  H   H22       1.0  0.34195  0.40131  0.12990  1.0000
  H   H23       1.0  0.34468  0.39747  0.16220  1.0000
  C   C34       1.0  0.02094  0.36354  0.98831  1.0000
  H   H24       1.0  0.16244  0.42856  0.17680  1.0000
  C   C35       1.0  0.27733  0.39047  0.19706  1.0000
  H   H25       1.0  0.21314  0.37515  0.21920  1.0000
  H   H26       1.0  0.16366  0.17757  0.20798  1.0000
  C   C36       1.0  0.45013  0.42221  0.06069  1.0000
  C   C37       1.0  0.21979  0.06078  0.02936  1.0000
  H   H27       1.0  0.44414  0.04083  0.07365  1.0000
  H   H28       1.0  0.39662  0.25255  0.02698  1.0000
  H   H29       1.0  0.04539  0.41897  0.18666  1.0000
  H   H30       1.0  0.13761  0.45993  0.11739  1.0000
  H   H31       1.0  0.44102  0.41778  0.01653  1.0000
  C   C38       1.0  0.31624  0.01435  0.15802  1.0000
  H   H32       1.0  0.00983  0.43801  0.14019  1.0000
  C   C39       1.0  0.21331  0.28734  0.17477  1.0000
  C   C40       1.0  0.18374  0.27033  0.16848  1.0000
  C   C41       1.0  0.16561  0.28417  0.16582  1.0000
  C   C42       1.0  0.17696  0.31501  0.16954  1.0000
  C   C43       1.0  0.20631  0.33204  0.17648  1.0000
  C   C44       1.0  0.22460  0.31808  0.17877  1.0000
  P   P1        1.0  0.22130  0.37207  0.18081  1.0000
  C   C45       1.0  0.24681  0.38253  0.19953  1.0000
  C   C46       1.0  0.24299  0.39290  0.16225  1.0000
  C   C47       1.0  0.24512  0.37769  0.14718  1.0000
  C   C48       1.0  0.26354  0.39390  0.13339  1.0000
  C   C49       1.0  0.27993  0.42537  0.13447  1.0000
  C   C50       1.0  0.27819  0.44071  0.14946  1.0000
  C   C51       1.0  0.26001  0.42454  0.16337  1.0000
  S   S18       1.0  0.18172  0.25140  0.21533  1.0000
  H   H33       1.0  0.22738  0.27664  0.17685  1.0000
  H   H34       1.0  0.17480  0.24636  0.16582  1.0000
  H   H35       1.0  0.14265  0.27095  0.16102  1.0000
  H   H36       1.0  0.16266  0.32537  0.16711  1.0000
  H   H37       1.0  0.24759  0.33077  0.18363  1.0000
  H   H38       1.0  0.23331  0.35330  0.14613  1.0000
  H   H39       1.0  0.26570  0.38203  0.12197  1.0000
  H   H40       1.0  0.29434  0.43768  0.12375  1.0000
  H   H41       1.0  0.29131  0.46508  0.15040  1.0000
  H   H42       1.0  0.25955  0.43661  0.17512  1.0000
  H   H43       1.0  0.33997  0.04175  0.13607  1.0000
  C   C52       1.0  0.22308  0.34893  0.09231  1.0000
  C   C53       1.0  0.22634  0.32772  0.10251  1.0000
  C   C54       1.0  0.20648  0.31380  0.11617  1.0000
  C   C55       1.0  0.18307  0.32077  0.11950  1.0000
  C   C56       1.0  0.17922  0.34160  0.10906  1.0000
  C   C57       1.0  0.19971  0.35592  0.09559  1.0000
  P   P2        1.0  0.14949  0.35156  0.11300  1.0000
  C   C58       1.0  0.12911  0.33560  0.13281  1.0000
  C   C59       1.0  0.16811  0.39232  0.11381  1.0000
  C   C60       1.0  0.16222  0.40871  0.10096  1.0000
  C   C61       1.0  0.17886  0.44020  0.10076  1.0000
  C   C62       1.0  0.20142  0.45560  0.11339  1.0000
  C   C63       1.0  0.20742  0.43945  0.12622  1.0000
  C   C64       1.0  0.19096  0.40789  0.12638  1.0000
  C   C65       1.0  0.12540  0.35395  0.14556  1.0000
  C   C66       1.0  0.10691  0.34087  0.15989  1.0000
  C   C67       1.0  0.09220  0.30957  0.16176  1.0000
  C   C68       1.0  0.09539  0.29111  0.14901  1.0000
  C   C69       1.0  0.11337  0.30402  0.13445  1.0000
  C   C70       1.0  0.12105  0.33773  0.09587  1.0000
  C   C71       1.0  0.09400  0.33903  0.09841  1.0000
  C   C72       1.0  0.07186  0.32908  0.08522  1.0000
  C   C73       1.0  0.07660  0.31790  0.06936  1.0000
  C   C74       1.0  0.10343  0.31652  0.06674  1.0000
  C   C75       1.0  0.12561  0.32636  0.07993  1.0000
  H   H44       1.0  0.23885  0.36012  0.08190  1.0000
  H   H45       1.0  0.24457  0.32244  0.09997  1.0000
  H   H46       1.0  0.20954  0.29787  0.12430  1.0000
  H   H47       1.0  0.16851  0.31014  0.13035  1.0000
  H   H48       1.0  0.19764  0.37260  0.08762  1.0000
  H   H49       1.0  0.14550  0.39735  0.09069  1.0000
  H   H50       1.0  0.17467  0.45250  0.09047  1.0000
  H   H51       1.0  0.35841  0.01662  0.23214  1.0000
  H   H52       1.0  0.22530  0.45132  0.13578  1.0000
  H   H53       1.0  0.19642  0.39550  0.13601  1.0000
  H   H54       1.0  0.13559  0.37819  0.14416  1.0000
  H   H55       1.0  0.10304  0.35489  0.16932  1.0000
  H   H56       1.0  0.07763  0.29969  0.17283  1.0000
  H   H57       1.0  0.08318  0.26676  0.15018  1.0000
  H   H58       1.0  0.11444  0.28938  0.12424  1.0000
  H   H59       1.0  0.09013  0.34825  0.11045  1.0000
  H   H60       1.0  0.10752  0.30891  0.05420  1.0000
  H   H61       1.0  0.14641  0.32568  0.07740  1.0000
  C   C76       1.0  0.40138  0.44053  0.12090  1.0000
  H   H62       1.0  0.42549  0.34656  0.01804  1.0000
  H   H63       1.0  0.43050  0.33871  0.98656  1.0000
  H   H64       1.0  0.17796  0.13675  0.21180  1.0000
  C   C77       1.0  0.32110  0.26436  0.18424  1.0000
  C   C78       1.0  0.32787  0.28056  0.16875  1.0000
  C   C79       1.0  0.31499  0.26566  0.15291  1.0000
  C   C80       1.0  0.29525  0.23455  0.15255  1.0000
  C   C81       1.0  0.28823  0.21810  0.16812  1.0000
  C   C82       1.0  0.30103  0.23338  0.18396  1.0000
  P   P3        1.0  0.25994  0.17877  0.16841  1.0000
  C   C83       1.0  0.22872  0.17740  0.18069  1.0000
  C   C84       1.0  0.24776  0.16501  0.14632  1.0000
  C   C85       1.0  0.21930  0.15946  0.13992  1.0000
  C   C86       1.0  0.21051  0.14901  0.12270  1.0000
  C   C87       1.0  0.22998  0.14400  0.11180  1.0000
  C   C88       1.0  0.25828  0.14936  0.11812  1.0000
  C   C89       1.0  0.26715  0.15982  0.13532  1.0000
  C   C90       1.0  0.21304  0.15435  0.19264  1.0000
  C   C91       1.0  0.18949  0.15426  0.20234  1.0000
  C   C92       1.0  0.18139  0.17713  0.20018  1.0000
  C   C93       1.0  0.19658  0.19988  0.18816  1.0000
  C   C94       1.0  0.22014  0.20008  0.17845  1.0000
  C   C95       1.0  0.27391  0.15451  0.17757  1.0000
  C   C96       1.0  0.25586  0.12298  0.17641  1.0000
  C   C97       1.0  0.26574  0.10376  0.18380  1.0000
  C   C98       1.0  0.29403  0.11578  0.19200  1.0000
  C   C99       1.0  0.31257  0.14704  0.19271  1.0000
  C   C100      1.0  0.30261  0.16638  0.18554  1.0000
  H   H65       1.0  0.33064  0.27594  0.19659  1.0000
  H   H66       1.0  0.34257  0.30480  0.16909  1.0000
  H   H67       1.0  0.31989  0.27845  0.14096  1.0000
  H   H68       1.0  0.28505  0.22374  0.14018  1.0000
  H   H69       1.0  0.29492  0.22142  0.19618  1.0000
  H   H70       1.0  0.20378  0.16305  0.14812  1.0000
  H   H71       1.0  0.18852  0.14476  0.11782  1.0000
  H   H72       1.0  0.22312  0.13591  0.09847  1.0000
  H   H73       1.0  0.27338  0.14541  0.10970  1.0000
  H   H74       1.0  0.28917  0.16392  0.14006  1.0000
  H   H75       1.0  0.21925  0.13678  0.19491  1.0000
  C   C101      1.0  0.21608  0.03789  0.01742  1.0000
  C   C102      1.0  0.33200  0.07389  0.00589  1.0000
  H   H76       1.0  0.19055  0.21783  0.18675  1.0000
  H   H77       1.0  0.23200  0.21827  0.16943  1.0000
  H   H78       1.0  0.23376  0.11322  0.17020  1.0000
  H   H79       1.0  0.25117  0.07951  0.18363  1.0000
  H   H80       1.0  0.30120  0.10085  0.19820  1.0000
  H   H81       1.0  0.33431  0.15633  0.19932  1.0000
  H   H82       1.0  0.31739  0.19042  0.18647  1.0000
  C   C103      1.0  0.18806  0.40409  0.17833  1.0000
  H   H83       1.0  0.32029  0.40259  0.20934  1.0000
  H   H84       1.0  0.99588  0.45330  0.04482  1.0000
  H   H85       1.0  0.20314  0.06874  0.02990  1.0000
  C   C104      1.0  0.00148  0.43135  0.09421  1.0000
  C   C105      1.0  0.32828  0.99508  0.13105  1.0000
  C   C106      1.0  0.44965  0.42789  0.02932  1.0000
  C   C107      1.0  0.44012  0.40960  0.04401  1.0000
  H   H86       1.0  0.20454  0.41866  0.16916  1.0000
  H   H87       1.0  0.36435  0.10977  0.99017  1.0000
  H   H88       1.0  0.41405  0.44945  0.01502  1.0000
  C   C108      1.0  0.14222  0.39128  0.19434  1.0000
  C   C109      1.0  0.35959  0.99972  0.20623  1.0000
  H   H89       1.0  0.42397  0.38588  0.04247  1.0000
  S   S19       1.0  0.05419  0.36331  0.18341  1.0000
  C   C110      1.0  0.13364  0.26325  0.21421  1.0000
  C   C111      1.0  0.04791  0.43408  0.17602  1.0000
  H   H90       1.0  0.16812  0.34119  0.20276  1.0000
  C   C112      1.0  0.26280  0.04003  0.02800  1.0000
  H   H91       1.0  0.31322  0.03465  0.08984  1.0000
  H   H92       1.0  0.00697  0.46166  0.99806  1.0000
  H   H93       1.0  0.09070  0.48514  0.01743  1.0000
  H   H94       1.0  0.99812  0.41010  0.08843  1.0000
  H   H95       1.0  0.38956  0.06311  0.05632  1.0000
  C   C113      1.0  0.34699  0.08641  0.99036  1.0000
  C   C114      1.0  0.41607  0.29078  0.98865  1.0000
  C   C115      1.0  0.16313  0.27271  0.22048  1.0000
  H   H96       1.0  0.47643  0.46315  0.07568  1.0000
  H   H97       1.0  0.28571  0.00235  0.99057  1.0000
  H   H98       1.0  0.05134  0.33080  0.08715  1.0000
  H   H99       1.0  0.31707  0.03312  0.16559  1.0000
  H   H100      1.0  0.12346  0.39546  0.19754  1.0000
  C   C116      1.0  0.14377  0.36656  0.20147  1.0000
  C   C117      1.0  0.31031  0.04327  0.00632  1.0000
  S   S20       1.0  0.03555  0.28851  0.20965  1.0000
  C   C118      1.0  0.16416  0.40984  0.18263  1.0000
  H   H101      1.0  0.44621  0.02213  0.04406  1.0000
  C   C119      1.0  0.28674  0.39724  0.22835  1.0000
  C   C120      1.0  0.46714  0.03646  0.05101  1.0000
  C   C121      1.0  0.42066  0.32432  0.01311  1.0000
  C   C122      1.0  0.03077  0.47507  0.11309  1.0000
  Fe  Fe10      1.0  0.27518  0.99840  0.21063  1.0000
  C   C123      1.0  0.35321  0.39364  0.98624  1.0000
  C   C124      1.0  0.41103  0.30011  0.02453  1.0000
  S   S21       1.0  0.23141  0.00026  0.21290  1.0000
  C   C125      1.0  0.32922  0.01917  0.14124  1.0000
  C   C126      1.0  0.02464  0.42612  0.16369  1.0000
  C   C127      1.0  0.42338  0.31975  0.99528  1.0000
  C   C128      1.0  0.07466  0.46111  0.17441  1.0000
  C   C129      1.0  0.16750  0.36065  0.19715  1.0000
  H   H102      1.0  0.24826  0.09170  0.04951  1.0000
  H   H103      1.0  0.24030  0.17542  0.22806  1.0000
  C   C130      1.0  0.30363  0.03317  0.06213  1.0000
  H   H104      1.0  0.39164  0.47159  0.10688  1.0000
  C   C131      1.0  0.17673  0.29799  0.23163  1.0000
  Fe  Fe11      1.0  0.03323  0.33207  0.20706  1.0000
  H   H105      1.0  0.40861  0.30365  0.03832  1.0000
  H   H106      1.0  0.35663  0.05222  0.03046  1.0000
  H   H107      1.0  0.28658  0.07423  0.04808  1.0000
  H   H108      1.0  0.40087  0.24407  0.99554  1.0000
  C   C132      1.0  0.31574  0.03854  0.04526  1.0000
  Fe  Fe12      1.0  0.23102  0.27205  0.22315  1.0000
  C   C133      1.0  0.32258  0.03955  0.07683  1.0000
  C   C134      1.0  0.35361  0.05082  0.07475  1.0000
  C   C135      1.0  0.36572  0.05569  0.05800  1.0000
  C   C136      1.0  0.34688  0.04955  0.04331  1.0000
  C   C137      1.0  0.26675  0.06349  0.03969  1.0000
  C   C138      1.0  0.24517  0.07365  0.04043  1.0000
  P   P4        1.0  0.29085  0.02735  0.02638  1.0000
  C   C139      1.0  0.19021  0.37967  0.18578  1.0000
  H   H109      1.0  0.28574  0.38995  0.18411  1.0000
  H   H110      1.0  0.05984  0.31109  0.05893  1.0000
  H   H111      1.0  0.36809  0.05474  0.08613  1.0000
  C   C140      1.0  0.40661  0.26660  0.00023  1.0000
  H   H112      1.0  0.43473  0.00764  0.00856  1.0000
  C   C141      1.0  0.40418  0.27132  0.01811  1.0000
  S   S22       1.0  0.34486  0.00270  0.10984  1.0000
  C   C142      1.0  0.42030  0.46984  0.00776  1.0000
  C   C143      1.0  0.46895  0.45910  0.03121  1.0000
  H   H113      1.0  0.05468  0.45969  0.99304  1.0000
  H   H114      1.0  0.27951  0.02327  0.06392  1.0000
  S   S23       1.0  0.26048  0.32202  0.22446  1.0000
  C   C144      1.0  0.46958  0.45314  0.06269  1.0000
  S   S24       1.0  0.30151  0.03924  0.22852  1.0000
  H   H115      1.0  0.09424  0.27016  0.21548  1.0000
  C   C145      1.0  0.30278  0.02581  0.99079  1.0000
  S   S25       1.0  0.99056  0.31571  0.22302  1.0000
  C   C146      1.0  0.46543  0.99260  0.01942  1.0000
  H   H116      1.0  0.19661  0.02817  0.00867  1.0000
  S   S26       1.0  0.06213  0.35247  0.23118  1.0000
  C   C147      1.0  0.02673  0.44814  0.10497  1.0000
  H   H117      1.0  0.09107  0.45591  0.12988  1.0000
  H   H118      1.0  0.37293  0.02196  0.20087  1.0000
  C   C148      1.0  0.98069  0.44185  0.09093  1.0000
  C   C149      1.0  0.24342  0.13373  0.22917  1.0000
  H   H119      1.0  0.39405  0.42414  0.11017  1.0000
  C   C150      1.0  0.25644  0.38930  0.23097  1.0000
  C   C151      1.0  0.98950  0.45473  0.98811  1.0000
  H   H120      1.0  0.00048  0.33186  0.16034  1.0000
  C   C152      1.0  0.02806  0.44508  0.14968  1.0000
  H   H121      1.0  0.01097  0.20574  0.22149  1.0000
  H   H122      1.0  0.21953  0.11944  0.22689  1.0000
  H   H123      1.0  0.37396  0.45915  0.00335  1.0000
  Fe  Fe13      1.0  0.28278  0.25807  0.22967  1.0000
  Fe  Fe14      1.0  0.99429  0.27267  0.22691  1.0000
  H   H124      1.0  0.09277  0.46699  0.18390  1.0000
  C   C153      1.0  0.05508  0.47211  0.14777  1.0000
  C   C154      1.0  0.06627  0.48423  0.99392  1.0000
  C   C155      1.0  0.13123  0.47739  0.11490  1.0000
  C   C156      1.0  0.25515  0.16553  0.22980  1.0000
  H   H125      1.0  0.00422  0.40479  0.16478  1.0000
  S   S27       1.0  0.24587  0.07973  0.22973  1.0000
  C   C157      1.0  0.26222  0.12016  0.23141  1.0000
  C   C158      1.0  0.99717  0.47273  0.03803  1.0000
  H   H126      1.0  0.43044  0.45165  0.16224  1.0000
  C   C159      1.0  0.07831  0.48001  0.16032  1.0000
  H   H127      1.0  0.23472  0.01026  0.00714  1.0000
  Fe  Fe15      1.0  0.25690  0.03985  0.23186  1.0000
  S   S28       1.0  0.31630  0.30805  0.23101  1.0000
  C   C160      1.0  0.39735  0.47529  0.00111  1.0000
  C   C161      1.0  0.23762  0.02770  0.01664  1.0000
  C   C162      1.0  0.39980  0.46744  0.11908  1.0000
  C   C163      1.0  0.35133  0.99672  0.22378  1.0000
  C   C164      1.0  0.42186  0.45610  0.15020  1.0000
  C   C165      1.0  0.12997  0.30134  0.23242  1.0000
  C   C166      1.0  0.05482  0.21444  0.23131  1.0000
  C   C167      1.0  0.28601  0.18443  0.23265  1.0000
  H   H128      1.0  0.31432  0.98658  0.01648  1.0000
  C   C168      1.0  0.27376  0.98666  0.02551  1.0000
  C   C169      1.0  0.00924  0.48503  0.11015  1.0000
  C   C170      1.0  0.02600  0.21184  0.23280  1.0000
  C   C171      1.0  0.42065  0.48324  0.14830  1.0000
  Fe  Fe16      1.0  0.28641  0.00714  0.25153  1.0000
  S   S29       1.0  0.24350  0.00987  0.25570  1.0000
  S   S30       1.0  0.31703  0.00260  0.27283  1.0000
  C   C172      1.0  0.35101  0.04638  0.37412  1.0000
  C   C173      1.0  0.30824  0.46535  0.30569  1.0000
  C   C174      1.0  0.43872  0.00159  0.35871  1.0000
  C   C175      1.0  0.27401  0.22830  0.27709  1.0000
  C   C176      1.0  0.23610  0.41737  0.36321  1.0000
  H   H129      1.0  0.06643  0.32218  0.29364  1.0000
  H   H130      1.0  0.27533  0.00495  0.29911  1.0000
  H   H131      1.0  0.42972  0.42231  0.46868  1.0000
  H   H132      1.0  0.40857  0.05195  0.32118  1.0000
  Fe  Fe17      1.0  0.28269  0.31366  0.24808  1.0000
  S   S31       1.0  0.29624  0.34979  0.27042  1.0000
  S   S32       1.0  0.25031  0.26355  0.24793  1.0000
  H   H133      1.0  0.31349  0.44386  0.28229  1.0000
  Fe  Fe18      1.0  0.35550  0.40762  0.41583  1.0000
  S   S33       1.0  0.36941  0.45734  0.41649  1.0000
  S   S34       1.0  0.35915  0.37887  0.43801  1.0000
  Fe  Fe19      1.0  0.34274  0.40180  0.37536  1.0000
  S   S35       1.0  0.35682  0.45140  0.37358  1.0000
  S   S36       1.0  0.32470  0.36474  0.35350  1.0000
  Fe  Fe20      1.0  0.39534  0.46021  0.39216  1.0000
  H   H134      1.0  0.38320  0.37233  0.33651  1.0000
  Fe  Fe21      1.0  0.32949  0.44493  0.39804  1.0000
  S   S37       1.0  0.29955  0.46804  0.39981  1.0000
  S   S38       1.0  0.38334  0.41083  0.39221  1.0000
  S   S39       1.0  0.31375  0.39502  0.39908  1.0000
  Fe  Fe22      1.0  0.06866  0.41274  0.37667  1.0000
  S   S40       1.0  0.11645  0.45062  0.38006  1.0000
  S   S41       1.0  0.05003  0.38257  0.35161  1.0000
  Fe  Fe23      1.0  0.05723  0.41108  0.41726  1.0000
  S   S42       1.0  0.10443  0.44776  0.42273  1.0000
  S   S43       1.0  0.01922  0.38749  0.43732  1.0000
  Fe  Fe24      1.0  0.09666  0.47098  0.39947  1.0000
  Fe  Fe25      1.0  0.06224  0.30834  0.23438  1.0000
  Fe  Fe26      1.0  0.12052  0.42482  0.40298  1.0000
  S   S44       1.0  0.15602  0.40838  0.40674  1.0000
  S   S45       1.0  0.04865  0.43488  0.39464  1.0000
  S   S46       1.0  0.07350  0.38629  0.39904  1.0000
  H   H135      1.0  0.19953  0.30573  0.23633  1.0000
  C   C177      1.0  0.34856  0.07996  0.32100  1.0000
  S   S47       1.0  0.36499  0.01261  0.43927  1.0000
  C   C178      1.0  0.37483  0.21090  0.28973  1.0000
  C   C179      1.0  0.33758  0.99790  0.47221  1.0000
  C   C180      1.0  0.28719  0.99144  0.32359  1.0000
  H   H136      1.0  0.18403  0.47068  0.37470  1.0000
  H   H137      1.0  0.23805  0.46203  0.28212  1.0000
  H   H138      1.0  0.21434  0.41085  0.36897  1.0000
  H   H139      1.0  0.07631  0.28827  0.27435  1.0000
  H   H140      1.0  0.14586  0.33280  0.44801  1.0000
  H   H141      1.0  0.34161  0.06599  0.29379  1.0000
  C   C181      1.0  0.40064  0.01621  0.35099  1.0000
  C   C182      1.0  0.25977  0.45116  0.40263  1.0000
  C   C183      1.0  0.24204  0.42009  0.40497  1.0000
  C   C184      1.0  0.21042  0.40752  0.40638  1.0000
  C   C185      1.0  0.19609  0.42580  0.40547  1.0000
  C   C186      1.0  0.21392  0.45697  0.40361  1.0000
  H   H142      1.0  0.36392  0.18908  0.28302  1.0000
  H   H143      1.0  0.25267  0.40572  0.40526  1.0000
  H   H144      1.0  0.19687  0.38343  0.40800  1.0000
  H   H145      1.0  0.37373  0.34567  0.30815  1.0000
  C   C187      1.0  0.13286  0.34016  0.37754  1.0000
  C   C188      1.0  0.36506  0.38339  0.46116  1.0000
  H   H146      1.0  0.30182  0.40161  0.23949  1.0000
  H   H147      1.0  0.34052  0.03773  0.36145  1.0000
  H   H148      1.0  0.36050  0.42381  0.46394  1.0000
  H   H149      1.0  0.37054  0.34339  0.46310  1.0000
  C   C189      1.0  0.02774  0.36996  0.29187  1.0000
  C   C190      1.0  0.03538  0.39785  0.30036  1.0000
  C   C191      1.0  0.04258  0.40236  0.31850  1.0000
  C   C192      1.0  0.04111  0.37862  0.32861  1.0000
  C   C193      1.0  0.03224  0.35041  0.32024  1.0000
  C   C194      1.0  0.02602  0.34618  0.30203  1.0000
  H   H150      1.0  0.03631  0.41633  0.29279  1.0000
  H   H151      1.0  0.04890  0.42409  0.32467  1.0000
  H   H152      1.0  0.02973  0.33154  0.32799  1.0000
  H   H153      1.0  0.01905  0.32428  0.29593  1.0000
  H   H154      1.0  0.19292  0.33062  0.45510  1.0000
  H   H155      1.0  0.28737  0.42049  0.43248  1.0000
  C   C195      1.0  0.40278  0.22059  0.29807  1.0000
  H   H156      1.0  0.43867  0.25644  0.31292  1.0000
  C   C196      1.0  0.30338  0.35312  0.29363  1.0000
  C   C197      1.0  0.29730  0.32825  0.30412  1.0000
  C   C198      1.0  0.30375  0.33230  0.32232  1.0000
  C   C199      1.0  0.31624  0.36118  0.33044  1.0000
  C   C200      1.0  0.32192  0.38599  0.32000  1.0000
  C   C201      1.0  0.31551  0.38194  0.30179  1.0000
  H   H157      1.0  0.28770  0.30589  0.29820  1.0000
  H   H158      1.0  0.29923  0.31289  0.33018  1.0000
  H   H159      1.0  0.33164  0.40836  0.32591  1.0000
  H   H160      1.0  0.32039  0.40138  0.29391  1.0000
  C   C202      1.0  0.30496  0.24740  0.27920  1.0000
  H   H161      1.0  0.99406  0.21527  0.25002  1.0000
  C   C203      1.0  0.43428  0.02811  0.42164  1.0000
  C   C204      1.0  0.26576  0.47568  0.30556  1.0000
  H   H162      1.0  0.31473  0.44128  0.34346  1.0000
  C   C205      1.0  0.44277  0.43643  0.44239  1.0000
  C   C206      1.0  0.28029  0.45465  0.34839  1.0000
  C   C207      1.0  0.41952  0.04578  0.35708  1.0000
  H   H163      1.0  0.29912  0.32038  0.42859  1.0000
  H   H164      1.0  0.38026  0.04877  0.29401  1.0000
  H   H165      1.0  0.06749  0.31758  0.32581  1.0000
  C   C208      1.0  0.13992  0.36846  0.29760  1.0000
  C   C209      1.0  0.01648  0.21732  0.24892  1.0000
  C   C210      1.0  0.22061  0.40715  0.45537  1.0000
  C   C211      1.0  0.29305  0.13908  0.23460  1.0000
  C   C212      1.0  0.18622  0.46475  0.36131  1.0000
  C   C213      1.0  0.27525  0.45212  0.28019  1.0000
  C   C214      1.0  0.36865  0.34555  0.26210  1.0000
  C   C215      1.0  0.08984  0.34314  0.36533  1.0000
  C   C216      1.0  0.46366  0.05088  0.41904  1.0000
  C   C217      1.0  0.24248  0.35241  0.42612  1.0000
  C   C218      1.0  0.29129  0.47726  0.31413  1.0000
  C   C219      1.0  0.35664  0.32385  0.27508  1.0000
  C   C220      1.0  0.37205  0.30822  0.28063  1.0000
  C   C221      1.0  0.45729  0.03072  0.36533  1.0000
  P   P5        1.0  0.35756  0.28232  0.29855  1.0000
  C   C222      1.0  0.36621  0.30300  0.31916  1.0000
  C   C223      1.0  0.31717  0.26001  0.29569  1.0000
  C   C224      1.0  0.29768  0.25445  0.30985  1.0000
  C   C225      1.0  0.26658  0.23607  0.30756  1.0000
  C   C226      1.0  0.25478  0.22279  0.29121  1.0000
  C   C227      1.0  0.36492  0.28808  0.33482  1.0000
  C   C228      1.0  0.37030  0.30350  0.35091  1.0000
  H   H166      1.0  0.26794  0.31200  0.40174  1.0000
  C   C229      1.0  0.39570  0.35120  0.25417  1.0000
  C   C230      1.0  0.37321  0.33362  0.31987  1.0000
  C   C231      1.0  0.37482  0.25773  0.29848  1.0000
  H   H167      1.0  0.46195  0.45334  0.41727  1.0000
  C   C232      1.0  0.44768  0.05275  0.36464  1.0000
  H   H168      1.0  0.38036  0.34571  0.36395  1.0000
  H   H169      1.0  0.33544  0.31949  0.28087  1.0000
  H   H170      1.0  0.41588  0.02739  0.41387  1.0000
  H   H171      1.0  0.30622  0.26429  0.32266  1.0000
  H   H172      1.0  0.25166  0.23196  0.31851  1.0000
  H   H173      1.0  0.23076  0.20820  0.28945  1.0000
  H   H174      1.0  0.35909  0.26435  0.33461  1.0000
  H   H175      1.0  0.36868  0.29179  0.36299  1.0000
  H   H176      1.0  0.46804  0.06740  0.40900  1.0000
  C   C233      1.0  0.16672  0.35349  0.45024  1.0000
  H   H177      1.0  0.45580  0.18097  0.37572  1.0000
  C   C234      1.0  0.98822  0.36915  0.46838  1.0000
  C   C235      1.0  0.33298  0.03766  0.38896  1.0000
  C   C236      1.0  0.34609  0.04716  0.40557  1.0000
  C   C237      1.0  0.37727  0.06523  0.40737  1.0000
  C   C238      1.0  0.39538  0.07382  0.39255  1.0000
  C   C239      1.0  0.38227  0.06501  0.37578  1.0000
  C   C240      1.0  0.20118  0.33455  0.32210  1.0000
  C   C241      1.0  0.45769  0.16369  0.36797  1.0000
  H   H178      1.0  0.30896  0.02264  0.38756  1.0000
  H   H179      1.0  0.33227  0.03965  0.41713  1.0000
  H   H180      1.0  0.38739  0.07154  0.42035  1.0000
  H   H181      1.0  0.41960  0.08674  0.39423  1.0000
  C   C242      1.0  0.25950  0.35663  0.44159  1.0000
  H   H182      1.0  0.08997  0.32378  0.39025  1.0000
  H   H183      1.0  0.41973  0.42806  0.43775  1.0000
  C   C243      1.0  0.99580  0.44744  0.45585  1.0000
  C   C244      1.0  0.07802  0.28067  0.32473  1.0000
  C   C245      1.0  0.08305  0.26088  0.31385  1.0000
  C   C246      1.0  0.08183  0.26295  0.29557  1.0000
  C   C247      1.0  0.31933  0.46145  0.44547  1.0000
  P   P6        1.0  0.08940  0.23842  0.28130  1.0000
  C   C248      1.0  0.06510  0.22889  0.26209  1.0000
  C   C249      1.0  0.12914  0.25671  0.27618  1.0000
  C   C250      1.0  0.14212  0.23980  0.26883  1.0000
  C   C251      1.0  0.17327  0.25308  0.26631  1.0000
  C   C252      1.0  0.19180  0.28320  0.27136  1.0000
  C   C253      1.0  0.17908  0.30029  0.27853  1.0000
  C   C254      1.0  0.14787  0.28721  0.28083  1.0000
  C   C255      1.0  0.03586  0.22575  0.26351  1.0000
  H   H184      1.0  0.33148  0.08735  0.32085  1.0000
  C   C256      1.0  0.20064  0.47950  0.33147  1.0000
  C   C257      1.0  0.29885  0.43044  0.47666  1.0000
  C   C258      1.0  0.07436  0.22301  0.24587  1.0000
  C   C259      1.0  0.08053  0.20374  0.29251  1.0000
  C   C260      1.0  0.05179  0.17855  0.29079  1.0000
  C   C261      1.0  0.04516  0.15184  0.29951  1.0000
  C   C262      1.0  0.06708  0.15006  0.31006  1.0000
  C   C263      1.0  0.09565  0.17507  0.31196  1.0000
  C   C264      1.0  0.10237  0.20183  0.30327  1.0000
  H   H185      1.0  0.32712  0.46484  0.31234  1.0000
  S   S48       1.0  0.30228  0.22486  0.23319  1.0000
  H   H186      1.0  0.07861  0.27892  0.33883  1.0000
  H   H187      1.0  0.08767  0.24399  0.31975  1.0000
  C   C265      1.0  0.43651  0.11148  0.35778  1.0000
  H   H188      1.0  0.12820  0.21628  0.26510  1.0000
  H   H189      1.0  0.18300  0.24012  0.26018  1.0000
  H   H190      1.0  0.21592  0.29356  0.26924  1.0000
  H   H191      1.0  0.19337  0.32388  0.28195  1.0000
  H   H192      1.0  0.13854  0.30104  0.28617  1.0000
  H   H193      1.0  0.02785  0.22968  0.27589  1.0000
  P   P7        1.0  0.25553  0.37744  0.46010  1.0000
  H   H194      1.0  0.00821  0.43571  0.45176  1.0000
  H   H195      1.0  0.09670  0.22535  0.24429  1.0000
  H   H196      1.0  0.03437  0.17931  0.28274  1.0000
  H   H197      1.0  0.11262  0.17370  0.32018  1.0000
  H   H198      1.0  0.12456  0.22105  0.30500  1.0000
  C   C266      1.0  0.38499  0.04364  0.47096  1.0000
  S   S49       1.0  0.10888  0.31662  0.24272  1.0000
  C   C267      1.0  0.18996  0.44915  0.32654  1.0000
  C   C268      1.0  0.23031  0.35562  0.31737  1.0000
  C   C269      1.0  0.16007  0.31204  0.23774  1.0000
  C   C270      1.0  0.46224  0.11927  0.34766  1.0000
  C   C271      1.0  0.36989  0.36179  0.47030  1.0000
  H   H199      1.0  0.41395  0.12885  0.37502  1.0000
  C   C272      1.0  0.17541  0.43440  0.35646  1.0000
  H   H200      1.0  0.30398  0.37343  0.47954  1.0000
  Fe  Fe27      1.0  0.02056  0.33308  0.24749  1.0000
  S   S50       1.0  0.02198  0.28950  0.25202  1.0000
  C   C273      1.0  0.28980  0.99732  0.30545  1.0000
  C   C274      1.0  0.36218  0.01780  0.46237  1.0000
  S   S51       1.0  0.01977  0.36589  0.26876  1.0000
  H   H201      1.0  0.06189  0.12931  0.31677  1.0000
  H   H202      1.0  0.32870  0.18517  0.23743  1.0000
  C   C275      1.0  0.43409  0.13403  0.36766  1.0000
  H   H203      1.0  0.09661  0.36623  0.34117  1.0000
  C   C276      1.0  0.39184  0.05977  0.32136  1.0000
  H   H204      1.0  0.35974  0.09115  0.34818  1.0000
  C   C277      1.0  0.25157  0.44545  0.35532  1.0000
  C   C278      1.0  0.36089  0.22934  0.28989  1.0000
  H   H205      1.0  0.23726  0.37659  0.37052  1.0000
  H   H206      1.0  0.20339  0.47145  0.40345  1.0000
  H   H207      1.0  0.26498  0.21775  0.26442  1.0000
  H   H208      1.0  0.31948  0.25170  0.26802  1.0000
  C   C279      1.0  0.01669  0.38598  0.46071  1.0000
  C   C280      1.0  0.24904  0.39814  0.36414  1.0000
  C   C281      1.0  0.37876  0.34897  0.33597  1.0000
  C   C282      1.0  0.45185  0.00779  0.44506  1.0000
  H   H209      1.0  0.14666  0.38229  0.44472  1.0000
  C   C283      1.0  0.04188  0.40119  0.47180  1.0000
  H   H210      1.0  0.37812  0.00998  0.34616  1.0000
  C   C284      1.0  0.36433  0.40706  0.47071  1.0000
  H   H211      1.0  0.47368  0.47016  0.32951  1.0000
  H   H212      1.0  0.41961  0.32783  0.48192  1.0000
  H   H213      1.0  0.29427  0.34850  0.45357  1.0000
  C   C285      1.0  0.29293  0.43500  0.34909  1.0000
  H   H214      1.0  0.06389  0.41438  0.46620  1.0000
  H   H215      1.0  0.19495  0.31072  0.32220  1.0000
  P   P8        1.0  0.40601  0.07333  0.35690  1.0000
  C   C286      1.0  0.31146  0.99391  0.29564  1.0000
  C   C287      1.0  0.29698  0.43122  0.44499  1.0000
  C   C288      1.0  0.41108  0.33553  0.25948  1.0000
  C   C289      1.0  0.44856  0.43307  0.45992  1.0000
  H   H216      1.0  0.28736  0.39196  0.35771  1.0000
  C   C290      1.0  0.19336  0.35239  0.45438  1.0000
  C   C291      1.0  0.26522  0.32403  0.41289  1.0000
  H   H217      1.0  0.24677  0.34821  0.31397  1.0000
  H   H218      1.0  0.35661  0.35763  0.25802  1.0000
  C   C292      1.0  0.27739  0.40692  0.35702  1.0000
  H   H219      1.0  0.16501  0.41750  0.36639  1.0000
  C   C293      1.0  0.36440  0.08176  0.33648  1.0000
  C   C294      1.0  0.38561  0.07096  0.33688  1.0000
  C   C295      1.0  0.40304  0.26737  0.30673  1.0000
  C   C296      1.0  0.28269  0.32862  0.42802  1.0000
  H   H220      1.0  0.14324  0.33430  0.38825  1.0000
  C   C297      1.0  0.10287  0.33429  0.37872  1.0000
  H   H221      1.0  0.09341  0.41190  0.29591  1.0000
  H   H222      1.0  0.11949  0.41188  0.32326  1.0000
  H   H223      1.0  0.06681  0.33937  0.36649  1.0000
  C   C298      1.0  0.10626  0.39966  0.29642  1.0000
  C   C299      1.0  0.12120  0.39960  0.31190  1.0000
  H   H224      1.0  0.46202  0.07494  0.37025  1.0000
  C   C300      1.0  0.19397  0.40812  0.45109  1.0000
  C   C301      1.0  0.25789  0.46333  0.28862  1.0000
  C   C302      1.0  0.07183  0.30258  0.31743  1.0000
  C   C303      1.0  0.10687  0.35835  0.35090  1.0000
  C   C304      1.0  0.14983  0.35496  0.36299  1.0000
  H   H225      1.0  0.09547  0.38338  0.26976  1.0000
  C   C305      1.0  0.10775  0.38388  0.28162  1.0000
  C   C306      1.0  0.17731  0.42632  0.33900  1.0000
  H   H226      1.0  0.24094  0.45977  0.35464  1.0000
  C   C307      1.0  0.13694  0.36419  0.34953  1.0000
  H   H227      1.0  0.17329  0.36017  0.36261  1.0000
  C   C308      1.0  0.13839  0.38419  0.31258  1.0000
  H   H228      1.0  0.24117  0.42829  0.45689  1.0000
  P   P9        1.0  0.16023  0.38703  0.33207  1.0000
  H   H229      1.0  0.43199  0.33982  0.25327  1.0000
  H   H230      1.0  0.33940  0.22122  0.28320  1.0000
  H   H231      1.0  0.19066  0.44338  0.31291  1.0000
  H   H232      1.0  0.46405  0.10240  0.33947  1.0000
  H   H233      1.0  0.40459  0.36757  0.24384  1.0000
  C   C309      1.0  0.35437  0.06811  0.30572  1.0000
  H   H234      1.0  0.12595  0.35634  0.27070  1.0000
  C   C310      1.0  0.24516  0.33599  0.41193  1.0000
  C   C311      1.0  0.12475  0.36848  0.28219  1.0000
  H   H235      1.0  0.15283  0.35629  0.29760  1.0000
  C   C312      1.0  0.46659  0.45061  0.43085  1.0000
  H   H236      1.0  0.22394  0.41984  0.32123  1.0000
  C   C313      1.0  0.24553  0.46952  0.40218  1.0000
  C   C314      1.0  0.37618  0.05831  0.30587  1.0000
  H   H237      1.0  0.41354  0.20625  0.29787  1.0000
  C   C315      1.0  0.18809  0.37510  0.32662  1.0000
  C   C316      1.0  0.39947  0.31429  0.27277  1.0000
  C   C317      1.0  0.22058  0.37922  0.45699  1.0000
  C   C318      1.0  0.07109  0.30507  0.29930  1.0000
  H   H238      1.0  0.24813  0.38774  0.24415  1.0000
  C   C319      1.0  0.18009  0.34419  0.32662  1.0000
  C   C320      1.0  0.21723  0.39603  0.32153  1.0000
  H   H239      1.0  0.15745  0.32752  0.33001  1.0000
  H   H240      1.0  0.17023  0.33059  0.24711  1.0000
  H   H241      1.0  0.40410  0.05934  0.46357  1.0000
  H   H242      1.0  0.22734  0.36205  0.42482  1.0000
  C   C321      1.0  0.28654  0.41546  0.46061  1.0000
  H   H243      1.0  0.23218  0.33313  0.40004  1.0000
  C   C322      1.0  0.07648  0.28564  0.28840  1.0000
  C   C323      1.0  0.23826  0.38631  0.31700  1.0000
  H   H244      1.0  0.26090  0.40255  0.31338  1.0000
  C   C324      1.0  0.27989  0.34483  0.44228  1.0000
  C   C325      1.0  0.16708  0.38135  0.44848  1.0000
  H   H245      1.0  0.40555  0.98865  0.43594  1.0000
  H   H246      1.0  0.27056  0.99458  0.33099  1.0000
  H   H247      1.0  0.41189  0.30264  0.27674  1.0000
  C   C326      1.0  0.98407  0.44358  0.47269  1.0000
  H   H248      1.0  0.02297  0.13247  0.29805  1.0000
  C   C327      1.0  0.99154  0.46632  0.44420  1.0000
  C   C328      1.0  0.37708  0.33391  0.35148  1.0000
  C   C329      1.0  0.42842  0.00633  0.43438  1.0000
  H   H249      1.0  0.19423  0.42965  0.44926  1.0000
  C   C330      1.0  0.41690  0.24884  0.30655  1.0000
  C   C331      1.0  0.25609  0.35929  0.48040  1.0000
  C   C332      1.0  0.33199  0.47593  0.46142  1.0000
  H   H250      1.0  0.26899  0.44228  0.26712  1.0000
  C   C333      1.0  0.30039  0.45311  0.28872  1.0000
  H   H251      1.0  0.41448  0.28936  0.31318  1.0000
  H   H252      1.0  0.43607  0.38070  0.47477  1.0000
  C   C334      1.0  0.32181  0.46039  0.47702  1.0000
  H   H253      1.0  0.45063  0.04076  0.47289  1.0000
  S   S52       1.0  0.36941  0.98916  0.39058  1.0000
  H   H254      1.0  0.00042  0.46885  0.43109  1.0000
  C   C335      1.0  0.30480  0.17091  0.23515  1.0000
  H   H255      1.0  0.98770  0.42881  0.48154  1.0000
  H   H256      1.0  0.45146  0.99010  0.40164  1.0000
  C   C336      1.0  0.41029  0.99425  0.35170  1.0000
  H   H257      1.0  0.30789  0.12919  0.23640  1.0000
  H   H258      1.0  0.25147  0.48324  0.31211  1.0000
  H   H259      1.0  0.32664  0.47382  0.43343  1.0000
  Fe  Fe28      1.0  0.39074  0.36617  0.54190  1.0000
  S   S53       1.0  0.43648  0.36923  0.53925  1.0000
  S   S54       1.0  0.37207  0.38725  0.52169  1.0000
  Fe  Fe29      1.0  0.38486  0.34272  0.58055  1.0000
  S   S55       1.0  0.43109  0.34551  0.57993  1.0000
  S   S56       1.0  0.35066  0.31875  0.60253  1.0000
  Fe  Fe30      1.0  0.44646  0.39026  0.56620  1.0000
  C   C337      1.0  0.28601  0.15283  0.71333  1.0000
  Fe  Fe31      1.0  0.41732  0.32422  0.55292  1.0000
  S   S57       1.0  0.42087  0.28402  0.54048  1.0000
  S   S58       1.0  0.40095  0.38857  0.56869  1.0000
  S   S59       1.0  0.37062  0.31989  0.55384  1.0000
  Fe  Fe32      1.0  0.41922  0.12509  0.56647  1.0000
  S   S60       1.0  0.37014  0.09051  0.56516  1.0000
  S   S61       1.0  0.43442  0.17464  0.57444  1.0000
  Fe  Fe33      1.0  0.44000  0.07644  0.56497  1.0000
  S   S62       1.0  0.39179  0.03926  0.56460  1.0000
  H   H260      1.0  0.44623  0.06159  0.50139  1.0000
  Fe  Fe34      1.0  0.38355  0.06660  0.54424  1.0000
  S   S63       1.0  0.35281  0.03827  0.52103  1.0000
  Fe  Fe35      1.0  0.38206  0.06556  0.58561  1.0000
  S   S64       1.0  0.34905  0.04206  0.60844  1.0000
  S   S65       1.0  0.43201  0.10335  0.54405  1.0000
  S   S66       1.0  0.43087  0.10053  0.58745  1.0000
  H   H261      1.0  0.10757  0.38806  0.70613  1.0000
  C   C338      1.0  0.44533  0.03961  0.50064  1.0000
  S   S67       1.0  0.01617  0.27151  0.70733  1.0000
  Fe  Fe36      1.0  0.30145  0.31113  0.70411  1.0000
  S   S68       1.0  0.25975  0.26639  0.70045  1.0000
  S   S69       1.0  0.32893  0.34398  0.68256  1.0000
  H   H262      1.0  0.36574  0.42617  0.49646  1.0000
  Fe  Fe37      1.0  0.29738  0.03298  0.71409  1.0000
  C   C339      1.0  0.29173  0.03221  0.55421  1.0000
  S   S70       1.0  0.33093  0.05511  0.69121  1.0000
  H   H263      1.0  0.05783  0.34934  0.69457  1.0000
  H   H264      1.0  0.00206  0.40920  0.61668  1.0000
  H   H265      1.0  0.05391  0.30560  0.67743  1.0000
  H   H266      1.0  0.15359  0.38337  0.69993  1.0000
  H   H267      1.0  0.46607  0.07845  0.70694  1.0000
  C   C340      1.0  0.07579  0.32250  0.68222  1.0000
  C   C341      1.0  0.09691  0.00631  0.66266  1.0000
  Fe  Fe38      1.0  0.04628  0.29775  0.73021  1.0000
  H   H268      1.0  0.33728  0.10427  0.64484  1.0000
  H   H269      1.0  0.99246  0.47850  0.69037  1.0000
  C   C342      1.0  0.34545  0.04533  0.63168  1.0000
  C   C343      1.0  0.31841  0.02500  0.63974  1.0000
  C   C344      1.0  0.31388  0.02701  0.65789  1.0000
  C   C345      1.0  0.33626  0.04968  0.66840  1.0000
  C   C346      1.0  0.36363  0.06963  0.66044  1.0000
  C   C347      1.0  0.36830  0.06733  0.64231  1.0000
  C   C348      1.0  0.98419  0.46369  0.51423  1.0000
  C   C349      1.0  0.18287  0.04743  0.71643  1.0000
  C   C350      1.0  0.23800  0.08450  0.59054  1.0000
  H   H270      1.0  0.38936  0.08289  0.63645  1.0000
  C   C351      1.0  0.35813  0.03025  0.49869  1.0000
  H   H271      1.0  0.45358  0.17955  0.72661  1.0000
  H   H272      1.0  0.31590  0.98905  0.49737  1.0000
  H   H273      1.0  0.40053  0.07004  0.49513  1.0000
  C   C352      1.0  0.11872  0.05284  0.64653  1.0000
  C   C353      1.0  0.13193  0.36657  0.69477  1.0000
  H   H274      1.0  0.37654  0.34625  0.49549  1.0000
  C   C354      1.0  0.01545  0.45118  0.53328  1.0000
  S   S71       1.0  0.29132  0.20912  0.70849  1.0000
  H   H275      1.0  0.30711  0.40959  0.73165  1.0000
  C   C355      1.0  0.34361  0.11482  0.63222  1.0000
  S   S72       1.0  0.19241  0.26221  0.72925  1.0000
  H   H276      1.0  0.05846  0.41038  0.49854  1.0000
  C   C356      1.0  0.34552  0.32637  0.62487  1.0000
  C   C357      1.0  0.36409  0.35395  0.63340  1.0000
  C   C358      1.0  0.35874  0.35887  0.65101  1.0000
  C   C359      1.0  0.33522  0.33614  0.66051  1.0000
  C   C360      1.0  0.31689  0.30845  0.65205  1.0000
  C   C361      1.0  0.32176  0.30380  0.63433  1.0000
  H   H277      1.0  0.38229  0.37163  0.62635  1.0000
  H   H278      1.0  0.37294  0.38047  0.65733  1.0000
  H   H279      1.0  0.29856  0.29085  0.65904  1.0000
  H   H280      1.0  0.30678  0.28259  0.62790  1.0000
  C   C362      1.0  0.43070  0.20479  0.56458  1.0000
  C   C363      1.0  0.43879  0.23153  0.57443  1.0000
  C   C364      1.0  0.43589  0.25593  0.56734  1.0000
  C   C365      1.0  0.42513  0.25405  0.55019  1.0000
  C   C366      1.0  0.41781  0.22763  0.54020  1.0000
  C   C367      1.0  0.42027  0.20303  0.54738  1.0000
  H   H281      1.0  0.16227  0.34334  0.72438  1.0000
  H   H282      1.0  0.44201  0.27621  0.57513  1.0000
  H   H283      1.0  0.40994  0.22609  0.52683  1.0000
  H   H284      1.0  0.41436  0.18285  0.53954  1.0000
  C   C368      1.0  0.36962  0.23324  0.58959  1.0000
  C   C369      1.0  0.22497  0.11920  0.68000  1.0000
  C   C370      1.0  0.37173  0.38644  0.49832  1.0000
  C   C371      1.0  0.01546  0.47588  0.59818  1.0000
  C   C372      1.0  0.28832  0.07880  0.55599  1.0000
  H   H285      1.0  0.18626  0.04320  0.64255  1.0000
  H   H286      1.0  0.20881  0.34294  0.48637  1.0000
  C   C373      1.0  0.36734  0.40836  0.48917  1.0000
  C   C374      1.0  0.40085  0.00722  0.60586  1.0000
  C   C375      1.0  0.37399  0.13301  0.62844  1.0000
  H   H287      1.0  0.28589  0.16512  0.58497  1.0000
  H   H288      1.0  0.36833  0.10478  0.71786  1.0000
  C   C376      1.0  0.17443  0.00003  0.72902  1.0000
  C   C377      1.0  0.00158  0.47204  0.67926  1.0000
  H   H289      1.0  0.41890  0.47379  0.53512  1.0000
  H   H290      1.0  0.07306  0.01727  0.64288  1.0000
  H   H291      1.0  0.33175  0.40091  0.70586  1.0000
  H   H292      1.0  0.06274  0.22648  0.65111  1.0000
  C   C378      1.0  0.01033  0.38151  0.49785  1.0000
  H   H293      1.0  0.22479  0.03809  0.62513  1.0000
  S   S73       1.0  0.24834  0.02221  0.71449  1.0000
  C   C379      1.0  0.03767  0.19875  0.67245  1.0000
  H   H294      1.0  0.03427  0.44812  0.63988  1.0000
  C   C380      1.0  0.43950  0.34556  0.48832  1.0000
  H   H295      1.0  0.35805  0.17931  0.53765  1.0000
  C   C381      1.0  0.36135  0.16633  0.73037  1.0000
  C   C382      1.0  0.12409  0.01590  0.67193  1.0000
  C   C383      1.0  0.39778  0.01728  0.62246  1.0000
  S   S74       1.0  0.32566  0.29217  0.72029  1.0000
  H   H296      1.0  0.40576  0.15834  0.60853  1.0000
  C   C384      1.0  0.29713  0.03388  0.57225  1.0000
  H   H297      1.0  0.29283  0.01118  0.66368  1.0000
  C   C385      1.0  0.46303  0.05412  0.68297  1.0000
  H   H298      1.0  0.38130  0.08716  0.66834  1.0000
  C   C386      1.0  0.43234  0.46808  0.52633  1.0000
  C   C387      1.0  0.30151  0.16770  0.57470  1.0000
  C   C388      1.0  0.35366  0.24802  0.59534  1.0000
  C   C389      1.0  0.34228  0.17608  0.54801  1.0000
  C   C390      1.0  0.22868  0.04356  0.63899  1.0000
  C   C391      1.0  0.21539  0.15775  0.69352  1.0000
  C   C392      1.0  0.32939  0.12186  0.60288  1.0000
  H   H299      1.0  0.28313  0.05323  0.53209  1.0000
  C   C393      1.0  0.10602  0.36928  0.69824  1.0000
  H   H300      1.0  0.39115  0.13692  0.63824  1.0000
  H   H301      1.0  0.47437  0.46333  0.66539  1.0000
  C   C394      1.0  0.42866  0.02112  0.59755  1.0000
  C   C395      1.0  0.37343  0.36340  0.48869  1.0000
  C   C396      1.0  0.15468  0.31955  0.72639  1.0000
  H   H302      1.0  0.24302  0.06253  0.68864  1.0000
  C   C397      1.0  0.45511  0.33815  0.50090  1.0000
  H   H303      1.0  0.36820  0.19554  0.62640  1.0000
  H   H304      1.0  0.30572  0.34996  0.50722  1.0000
  H   H305      1.0  0.29817  0.09406  0.62255  1.0000
  C   C398      1.0  0.39057  0.04868  0.70765  1.0000
  C   C399      1.0  0.00385  0.45191  0.60998  1.0000
  H   H306      1.0  0.29889  0.15697  0.70149  1.0000
  S   S75       1.0  0.02681  0.33074  0.73124  1.0000
  Fe  Fe39      1.0  0.99503  0.30212  0.70943  1.0000
  C   C400      1.0  0.23115  0.33091  0.50623  1.0000
  C   C401      1.0  0.27916  0.17511  0.71998  1.0000
  P   P10       1.0  0.30056  0.11452  0.58648  1.0000
  C   C402      1.0  0.46281  0.44319  0.52111  1.0000
  C   C403      1.0  0.46773  0.16869  0.72726  1.0000
  C   C404      1.0  0.03159  0.19777  0.69032  1.0000
  H   H307      1.0  0.41920  0.04939  0.64334  1.0000
  H   H308      1.0  0.17308  0.99503  0.68467  1.0000
  C   C405      1.0  0.38219  0.14504  0.61178  1.0000
  C   C406      1.0  0.14595  0.06250  0.65576  1.0000
  H   H309      1.0  0.37798  0.23648  0.57636  1.0000
  C   C407      1.0  0.03888  0.45977  0.66711  1.0000
  C   C408      1.0  0.36003  0.13940  0.59902  1.0000
  P   P11       1.0  0.18433  0.05726  0.68028  1.0000
  H   H310      1.0  0.23698  0.07134  0.57896  1.0000
  C   C409      1.0  0.27610  0.12513  0.72186  1.0000
  H   H311      1.0  0.04515  0.48218  0.48715  1.0000
  H   H312      1.0  0.04162  0.22318  0.71459  1.0000
  H   H313      1.0  0.19107  0.09112  0.62016  1.0000
  H   H314      1.0  0.36712  0.14854  0.58614  1.0000
  H   H315      1.0  0.30401  0.05954  0.59595  1.0000
  C   C410      1.0  0.29878  0.05830  0.58212  1.0000
  C   C411      1.0  0.14892  0.04404  0.66847  1.0000
  H   H316      1.0  0.16468  0.08443  0.65304  1.0000
  H   H317      1.0  0.25936  0.32279  0.52453  1.0000
  C   C412      1.0  0.26629  0.12407  0.61201  1.0000
  C   C413      1.0  0.29524  0.08142  0.57399  1.0000
  C   C414      1.0  0.01136  0.42838  0.60805  1.0000
  H   H318      1.0  0.34247  0.13594  0.55708  1.0000
  C   C415      1.0  0.21177  0.05323  0.66695  1.0000
  C   C416      1.0  0.33889  0.39878  0.71895  1.0000
  H   H319      1.0  0.44723  0.31473  0.50438  1.0000
  H   H320      1.0  0.44687  0.11674  0.64139  1.0000
  C   C417      1.0  0.10159  0.31937  0.67887  1.0000
  C   C418      1.0  0.12982  0.34182  0.68501  1.0000
  H   H321      1.0  0.29060  0.41926  0.48895  1.0000
  C   C419      1.0  0.28444  0.34801  0.50245  1.0000
  C   C420      1.0  0.07797  0.34735  0.69185  1.0000
  S   S76       1.0  0.09813  0.31595  0.72988  1.0000
  C   C421      1.0  0.18731  0.13549  0.69899  1.0000
  C   C422      1.0  0.32143  0.10906  0.61949  1.0000
  C   C423      1.0  0.37362  0.12569  0.72478  1.0000
  C   C424      1.0  0.04259  0.45335  0.58329  1.0000
  C   C425      1.0  0.04042  0.28504  0.62636  1.0000
  C   C426      1.0  0.05974  0.30691  0.61489  1.0000
  C   C427      1.0  0.09071  0.32233  0.61852  1.0000
  C   C428      1.0  0.10242  0.31575  0.63357  1.0000
  C   C429      1.0  0.08331  0.29305  0.64486  1.0000
  C   C430      1.0  0.05206  0.27835  0.64138  1.0000
  P   P12       1.0  0.09792  0.28787  0.66551  1.0000
  C   C431      1.0  0.07199  0.25262  0.67522  1.0000
  C   C432      1.0  0.13299  0.28616  0.66431  1.0000
  C   C433      1.0  0.14718  0.28456  0.67988  1.0000
  C   C434      1.0  0.17429  0.28313  0.67938  1.0000
  C   C435      1.0  0.18730  0.28295  0.66333  1.0000
  C   C436      1.0  0.17288  0.28362  0.64774  1.0000
  C   C437      1.0  0.14563  0.28489  0.64820  1.0000
  C   C438      1.0  0.05805  0.22603  0.66494  1.0000
  H   H322      1.0  0.23997  0.13115  0.63193  1.0000
  H   H323      1.0  0.30139  0.01692  0.57850  1.0000
  C   C439      1.0  0.04631  0.22391  0.70073  1.0000
  C   C440      1.0  0.06658  0.25120  0.69324  1.0000
  H   H324      1.0  0.01627  0.27409  0.62391  1.0000
  H   H325      1.0  0.05052  0.31266  0.60352  1.0000
  H   H326      1.0  0.10552  0.33998  0.60990  1.0000
  H   H327      1.0  0.12625  0.32900  0.63664  1.0000
  H   H328      1.0  0.03643  0.26252  0.65052  1.0000
  H   H329      1.0  0.13733  0.28455  0.69245  1.0000
  H   H330      1.0  0.18522  0.28216  0.69148  1.0000
  H   H331      1.0  0.05716  0.45354  0.57286  1.0000
  H   H332      1.0  0.34272  0.23094  0.68371  1.0000
  H   H333      1.0  0.13453  0.28463  0.63599  1.0000
  C   C441      1.0  0.36096  0.38956  0.72114  1.0000
  C   C442      1.0  0.40455  0.07770  0.71523  1.0000
  H   H334      1.0  0.28479  0.09588  0.54941  1.0000
  H   H335      1.0  0.07766  0.27123  0.70151  1.0000
  H   H336      1.0  0.15021  0.34037  0.68241  1.0000
  H   H337      1.0  0.03525  0.34106  0.63339  1.0000
  H   H338      1.0  0.25600  0.16693  0.67993  1.0000
  H   H339      1.0  0.24001  0.11356  0.67273  1.0000
  C   C443      1.0  0.17453  0.00491  0.69756  1.0000
  H   H340      1.0  0.28750  0.14189  0.61713  1.0000
  C   C444      1.0  0.22999  0.34418  0.49043  1.0000
  C   C445      1.0  0.26022  0.05372  0.66487  1.0000
  C   C446      1.0  0.01391  0.33681  0.63892  1.0000
  C   C447      1.0  0.98501  0.36694  0.48678  1.0000
  C   C448      1.0  0.03869  0.39890  0.49018  1.0000
  C   C449      1.0  0.46115  0.44563  0.63915  1.0000
  H   H341      1.0  0.17295  0.14187  0.70655  1.0000
  H   H342      1.0  0.18285  0.28314  0.63530  1.0000
  C   C450      1.0  0.33321  0.15139  0.55903  1.0000
  H   H343      1.0  0.18848  0.07086  0.71852  1.0000
  C   C451      1.0  0.45154  0.46799  0.49736  1.0000
  H   H344      1.0  0.41634  0.09698  0.70693  1.0000
  C   C452      1.0  0.44787  0.02764  0.48449  1.0000
  H   H345      1.0  0.44090  0.42579  0.64311  1.0000
  C   C453      1.0  0.21117  0.07882  0.59885  1.0000
  H   H346      1.0  0.30270  0.20887  0.56566  1.0000
  C   C454      1.0  0.45338  0.04516  0.60580  1.0000
  C   C455      1.0  0.20690  0.04655  0.64893  1.0000
  C   C456      1.0  0.31254  0.14682  0.57241  1.0000
  H   H347      1.0  0.38751  0.20332  0.59631  1.0000
  H   H348      1.0  0.20849  0.28215  0.66300  1.0000
  C   C457      1.0  0.23403  0.14960  0.68387  1.0000
  H   H349      1.0  0.02535  0.32742  0.66465  1.0000
  C   C458      1.0  0.31088  0.19255  0.56372  1.0000
  Fe  Fe40      1.0  0.28345  0.24804  0.71784  1.0000
  H   H350      1.0  0.18980  0.06142  0.59365  1.0000
  C   C459      1.0  0.36388  0.21023  0.61795  1.0000
  H   H351      1.0  0.28068  0.05618  0.67116  1.0000
  H   H352      1.0  0.21098  0.31940  0.51392  1.0000
  H   H353      1.0  0.28121  0.10796  0.71660  1.0000
  C   C460      1.0  0.44052  0.02288  0.51582  1.0000
  C   C461      1.0  0.33134  0.19679  0.55041  1.0000
  C   C462      1.0  0.23871  0.05706  0.67479  1.0000
  H   H354      1.0  0.01957  0.43432  0.53973  1.0000
  C   C463      1.0  0.42246  0.04129  0.63077  1.0000
  C   C464      1.0  0.26580  0.10694  0.59718  1.0000
  S   S77       1.0  0.28886  0.99240  0.73046  1.0000
  C   C465      1.0  0.37475  0.21438  0.60086  1.0000
  C   C466      1.0  0.35578  0.13971  0.72142  1.0000
  H   H355      1.0  0.35020  0.26315  0.58669  1.0000
  H   H356      1.0  0.12531  0.00130  0.68182  1.0000
  H   H357      1.0  0.39785  0.32696  0.68795  1.0000
  H   H358      1.0  0.44625  0.16190  0.62924  1.0000
  S   S78       1.0  0.00072  0.34939  0.60592  1.0000
  H   H359      1.0  0.02652  0.17840  0.66443  1.0000
  H   H360      1.0  0.45387  0.43371  0.61164  1.0000
  C   C467      1.0  0.28697  0.05446  0.54613  1.0000
  H   H361      1.0  0.39131  0.04573  0.69363  1.0000
  H   H362      1.0  0.44452  0.44540  0.54612  1.0000
  H   H363      1.0  0.15613  0.08801  0.69927  1.0000
  C   C468      1.0  0.17798  0.10505  0.69495  1.0000
  S   S79       1.0  0.00824  0.37865  0.52120  1.0000
  H   H364      1.0  0.45356  0.47500  0.48391  1.0000
  C   C469      1.0  0.99226  0.33939  0.62827  1.0000
  H   H365      1.0  0.33133  0.47165  0.48943  1.0000
  C   C470      1.0  0.25834  0.33280  0.51222  1.0000
  C   C471      1.0  0.24689  0.19475  0.62947  1.0000
  C   C472      1.0  0.23497  0.20345  0.64356  1.0000
  C   C473      1.0  0.25290  0.21726  0.65837  1.0000
  C   C474      1.0  0.28283  0.22263  0.65909  1.0000
  C   C475      1.0  0.29516  0.21434  0.64490  1.0000
  C   C476      1.0  0.27678  0.19994  0.63018  1.0000
  P   P13       1.0  0.33358  0.22040  0.64590  1.0000
  C   C477      1.0  0.33488  0.18881  0.65625  1.0000
  C   C478      1.0  0.34790  0.22518  0.62388  1.0000
  C   C479      1.0  0.34268  0.24387  0.61234  1.0000
  C   C480      1.0  0.36242  0.19193  0.66281  1.0000
  C   C481      1.0  0.36356  0.16786  0.67123  1.0000
  C   C482      1.0  0.33724  0.14053  0.67317  1.0000
  C   C483      1.0  0.30980  0.13727  0.66664  1.0000
  C   C484      1.0  0.30855  0.16125  0.65820  1.0000
  C   C485      1.0  0.35584  0.25413  0.65901  1.0000
  C   C486      1.0  0.37233  0.28245  0.65126  1.0000
  C   C487      1.0  0.38771  0.30851  0.66170  1.0000
  C   C488      1.0  0.38680  0.30659  0.67991  1.0000
  C   C489      1.0  0.37102  0.27848  0.68772  1.0000
  C   C490      1.0  0.35562  0.25236  0.67735  1.0000
  H   H366      1.0  0.23309  0.18432  0.61791  1.0000
  H   H367      1.0  0.21192  0.19973  0.64299  1.0000
  H   H368      1.0  0.24374  0.22407  0.66930  1.0000
  H   H369      1.0  0.29617  0.23342  0.67074  1.0000
  H   H370      1.0  0.28562  0.19308  0.61913  1.0000
  H   H371      1.0  0.33057  0.25577  0.61655  1.0000
  H   H372      1.0  0.38298  0.21308  0.66146  1.0000
  H   H373      1.0  0.38483  0.17043  0.67632  1.0000
  H   H374      1.0  0.33811  0.12176  0.67961  1.0000
  H   H375      1.0  0.28949  0.11618  0.66827  1.0000
  H   H376      1.0  0.28703  0.15831  0.65341  1.0000
  H   H377      1.0  0.37291  0.28493  0.63723  1.0000
  H   H378      1.0  0.39956  0.33035  0.65561  1.0000
  H   H379      1.0  0.37001  0.27697  0.70185  1.0000
  H   H380      1.0  0.33720  0.12949  0.71210  1.0000
  C   C491      1.0  0.19697  0.09663  0.68567  1.0000
  Fe  Fe41      1.0  0.98361  0.24363  0.72790  1.0000
  H   H381      1.0  0.22303  0.18131  0.69701  1.0000
  H   H382      1.0  0.44724  0.23336  0.58768  1.0000
  C   C492      1.0  0.12378  0.30029  0.72932  1.0000
  C   C493      1.0  0.23944  0.11817  0.62037  1.0000
  C   C494      1.0  0.38313  0.04973  0.48895  1.0000
  S   S80       1.0  0.47405  0.05849  0.56076  1.0000
  H   H383      1.0  0.33909  0.21636  0.54210  1.0000
  H   H384      1.0  0.29194  0.01406  0.54642  1.0000
  H   H385      1.0  0.03685  0.41120  0.59359  1.0000
  C   C495      1.0  0.17590  0.30841  0.72606  1.0000
  C   C496      1.0  0.17990  0.02989  0.73108  1.0000
  C   C497      1.0  0.21189  0.09558  0.61377  1.0000
  H   H386      1.0  0.19945  0.32362  0.72379  1.0000
  H   H387      1.0  0.30067  0.00753  0.63183  1.0000
  C   C498      1.0  0.17975  0.03493  0.69951  1.0000
  C   C499      1.0  0.00839  0.32911  0.65672  1.0000
  H   H388      1.0  0.43825  0.03217  0.52829  1.0000
  S   S81       1.0  0.97929  0.38790  0.56571  1.0000
  H   H389      1.0  0.37093  0.38483  0.70977  1.0000
  C   C500      1.0  0.33548  0.00426  0.49013  1.0000
  C   C501      1.0  0.03116  0.42947  0.59499  1.0000
  H   H390      1.0  0.27186  0.04410  0.63935  1.0000
  C   C502      1.0  0.25525  0.04699  0.64698  1.0000
  H   H391      1.0  0.11649  0.06722  0.63681  1.0000
  C   C503      1.0  0.09422  0.02473  0.64997  1.0000
  Fe  Fe42      1.0  0.24337  0.27794  0.72555  1.0000
  C   C504      1.0  0.37412  0.02356  0.71800  1.0000
  C   C505      1.0  0.03460  0.47646  0.58483  1.0000
  H   H392      1.0  0.01547  0.17684  0.69617  1.0000
  H   H393      1.0  0.37592  0.00712  0.62862  1.0000
  C   C506      1.0  0.98135  0.32455  0.66428  1.0000
  S   S82       1.0  0.28389  0.32437  0.72826  1.0000
  C   C507      1.0  0.02487  0.45493  0.65064  1.0000
  C   C508      1.0  0.44658  0.45188  0.53252  1.0000
  C   C509      1.0  0.46836  0.45008  0.62146  1.0000
  C   C510      1.0  0.98939  0.44208  0.52297  1.0000
  C   C511      1.0  0.45068  0.05493  0.62266  1.0000
  C   C512      1.0  0.28331  0.36114  0.48664  1.0000
  C   C513      1.0  0.43502  0.47636  0.50879  1.0000
  C   C514      1.0  0.46487  0.45057  0.50335  1.0000
  C   C515      1.0  0.43766  0.99382  0.51485  1.0000
  C   C516      1.0  0.46977  0.08012  0.69296  1.0000
  H   H394      1.0  0.46223  0.03574  0.65732  1.0000
  H   H395      1.0  0.34727  0.17695  0.72779  1.0000
  H   H396      1.0  0.36235  0.00118  0.71205  1.0000
  H   H397      1.0  0.43091  0.01379  0.58450  1.0000
  C   C517      1.0  0.17162  0.98748  0.71226  1.0000
  C   C518      1.0  0.16665  0.27775  0.72887  1.0000
  H   H398      1.0  0.45427  0.03239  0.68923  1.0000
  H   H399      1.0  0.47450  0.05629  0.59892  1.0000
  C   C519      1.0  0.99899  0.45856  0.64836  1.0000
  C   C520      1.0  0.03646  0.48175  0.53491  1.0000
  C   C521      1.0  0.46242  0.12909  0.63116  1.0000
  C   C522      1.0  0.46178  0.15447  0.62423  1.0000
  H   H400      1.0  0.38144  0.98925  0.59922  1.0000
  H   H401      1.0  0.05863  0.45657  0.66880  1.0000
  C   C523      1.0  0.02727  0.46832  0.68140  1.0000
  C   C524      1.0  0.98742  0.46710  0.66283  1.0000
  C   C525      1.0  0.47406  0.39909  0.49303  1.0000
  C   C526      1.0  0.46749  0.05609  0.66490  1.0000
  H   H402      1.0  0.03807  0.47186  0.69417  1.0000
  H   H403      1.0  0.47370  0.43069  0.52622  1.0000
  C   C527      1.0  0.44896  0.37583  0.48434  1.0000
  C   C528      1.0  0.13574  0.25847  0.73166  1.0000
  C   C529      1.0  0.11450  0.26956  0.73185  1.0000
  C   C530      1.0  0.44527  0.99851  0.48340  1.0000
  P   P14       1.0  0.97946  0.45107  0.62744  1.0000
  C   C531      1.0  0.36407  0.42480  0.79136  1.0000
  H   H404      1.0  0.37311  0.02608  0.80262  1.0000
  C   C532      1.0  0.39478  0.10855  0.79408  1.0000
  C   C533      1.0  0.44388  0.17376  0.85663  1.0000
  H   H405      1.0  0.35902  0.00801  0.74406  1.0000
  S   S83       1.0  0.01462  0.26763  0.75077  1.0000
  Fe  Fe43      1.0  0.30537  0.30153  0.74424  1.0000
  S   S84       1.0  0.26436  0.25578  0.74270  1.0000
  S   S85       1.0  0.34025  0.32048  0.76696  1.0000
  C   C534      1.0  0.44245  0.20070  0.85881  1.0000
  C   C535      1.0  0.35312  0.27475  0.92901  1.0000
  H   H406      1.0  0.02047  0.33023  0.79700  1.0000
  H   H407      1.0  0.28118  0.13791  0.89461  1.0000
  C   C536      1.0  0.38481  0.17900  0.74276  1.0000
  Fe  Fe44      1.0  0.29761  0.02226  0.75469  1.0000
  S   S86       1.0  0.24868  0.01036  0.75714  1.0000
  S   S87       1.0  0.32974  0.02412  0.77708  1.0000
  H   H408      1.0  0.31488  0.11560  0.88778  1.0000
  H   H409      1.0  0.46254  0.17159  0.86237  1.0000
  Fe  Fe45      1.0  0.44998  0.38472  0.89244  1.0000
  S   S88       1.0  0.41231  0.39712  0.89062  1.0000
  H   H410      1.0  0.40325  0.44106  0.80838  1.0000
  Fe  Fe46      1.0  0.40623  0.31670  0.89519  1.0000
  S   S89       1.0  0.36636  0.32576  0.89463  1.0000
  S   S90       1.0  0.39173  0.26584  0.89318  1.0000
  Fe  Fe47      1.0  0.38915  0.35635  0.87217  1.0000
  S   S91       1.0  0.35435  0.34714  0.84987  1.0000
  Fe  Fe48      1.0  0.39216  0.36528  0.91313  1.0000
  S   S92       1.0  0.37046  0.37949  0.93555  1.0000
  S   S93       1.0  0.42854  0.34644  0.87232  1.0000
  S   S94       1.0  0.43015  0.35394  0.91546  1.0000
  Fe  Fe49      1.0  0.39120  0.07761  0.88046  1.0000
  S   S95       1.0  0.44034  0.11256  0.88050  1.0000
  S   S96       1.0  0.35872  0.07255  0.85726  1.0000
  Fe  Fe50      1.0  0.39534  0.06458  0.92054  1.0000
  S   S97       1.0  0.44403  0.09982  0.92260  1.0000
  S   S98       1.0  0.36881  0.03098  0.94229  1.0000
  Fe  Fe51      1.0  0.43049  0.12891  0.90605  1.0000
  S   S99       1.0  0.44964  0.17970  0.91169  1.0000
  Fe  Fe52      1.0  0.44962  0.08068  0.89693  1.0000
  H   H411      1.0  0.09098  0.25436  0.73422  1.0000
  S   S100      1.0  0.38127  0.09509  0.90582  1.0000
  S   S101      1.0  0.40097  0.04424  0.89516  1.0000
  C   C537      1.0  0.44329  0.45919  0.93017  1.0000
  H   H412      1.0  0.02362  0.33580  0.96720  1.0000
  C   C538      1.0  0.28863  0.46822  0.78088  1.0000
  C   C539      1.0  0.37435  0.02507  0.96486  1.0000
  C   C540      1.0  0.06719  0.41870  0.93788  1.0000
  H   H413      1.0  0.34858  0.13319  0.86278  1.0000
  C   C541      1.0  0.37675  0.27299  0.93779  1.0000
  C   C542      1.0  0.45317  0.31319  0.95672  1.0000
  C   C543      1.0  0.40882  0.24257  0.89789  1.0000
  C   C544      1.0  0.39177  0.21108  0.89523  1.0000
  C   C545      1.0  0.40401  0.19154  0.89904  1.0000
  C   C546      1.0  0.43349  0.20329  0.90569  1.0000
  C   C547      1.0  0.45063  0.23481  0.90815  1.0000
  C   C548      1.0  0.43847  0.25436  0.90421  1.0000
  H   H414      1.0  0.36885  0.20166  0.89028  1.0000
  H   H415      1.0  0.39056  0.16740  0.89699  1.0000
  H   H416      1.0  0.37416  0.10119  0.80133  1.0000
  H   H417      1.0  0.45207  0.27849  0.90604  1.0000
  C   C549      1.0  0.37290  0.38326  0.95897  1.0000
  C   C550      1.0  0.41448  0.24797  0.96061  1.0000
  H   H418      1.0  0.31939  0.37952  0.83138  1.0000
  H   H419      1.0  0.33826  0.39705  0.96016  1.0000
  H   H420      1.0  0.40786  0.37055  0.96262  1.0000
  C   C551      1.0  0.99906  0.39732  0.78967  1.0000
  C   C552      1.0  0.33679  0.03717  0.79949  1.0000
  C   C553      1.0  0.36022  0.03559  0.80894  1.0000
  C   C554      1.0  0.36726  0.04619  0.82651  1.0000
  C   C555      1.0  0.35093  0.05859  0.83503  1.0000
  C   C556      1.0  0.32757  0.06033  0.82555  1.0000
  C   C557      1.0  0.32047  0.04966  0.80798  1.0000
  H   H421      1.0  0.38532  0.37679  0.73962  1.0000
  H   H422      1.0  0.38526  0.04460  0.83349  1.0000
  H   H423      1.0  0.31474  0.06988  0.83189  1.0000
  H   H424      1.0  0.30241  0.05112  0.80101  1.0000
  H   H425      1.0  0.07010  0.44980  0.80166  1.0000
  C   C558      1.0  0.31670  0.38981  0.80429  1.0000
  C   C559      1.0  0.33288  0.40566  0.78965  1.0000
  C   C560      1.0  0.08811  0.44665  0.94500  1.0000
  H   H426      1.0  0.02571  0.34325  0.82879  1.0000
  C   C561      1.0  0.34332  0.32605  0.79020  1.0000
  C   C562      1.0  0.31818  0.31596  0.80101  1.0000
  C   C563      1.0  0.32207  0.32218  0.81921  1.0000
  C   C564      1.0  0.35106  0.33794  0.82699  1.0000
  C   C565      1.0  0.37616  0.34739  0.81622  1.0000
  C   C566      1.0  0.37228  0.34151  0.79798  1.0000
  H   H427      1.0  0.29574  0.30368  0.79539  1.0000
  H   H428      1.0  0.30244  0.31486  0.82736  1.0000
  H   H429      1.0  0.39858  0.35992  0.82188  1.0000
  H   H430      1.0  0.39193  0.34946  0.78981  1.0000
  H   H431      1.0  0.43766  0.02155  0.92130  1.0000
  C   C567      1.0  0.98874  0.34820  0.96180  1.0000
  C   C568      1.0  0.00397  0.33514  0.82234  1.0000
  C   C569      1.0  0.44811  0.12733  0.77549  1.0000
  H   H432      1.0  0.04309  0.40668  0.78083  1.0000
  H   H433      1.0  0.27774  0.42377  0.78966  1.0000
  H   H434      1.0  0.46847  0.44798  0.91146  1.0000
  H   H435      1.0  0.32326  0.17220  0.76401  1.0000
  H   H436      1.0  0.25707  0.18666  0.74042  1.0000
  H   H437      1.0  0.31489  0.19598  0.85053  1.0000
  H   H438      1.0  0.28136  0.17806  0.87587  1.0000
  H   H439      1.0  0.43825  0.30282  0.92970  1.0000
  C   C570      1.0  0.20417  0.10734  0.79629  1.0000
  C   C571      1.0  0.21359  0.09507  0.80978  1.0000
  C   C572      1.0  0.23659  0.11413  0.82132  1.0000
  C   C573      1.0  0.25042  0.14547  0.81925  1.0000
  C   C574      1.0  0.24051  0.15809  0.80601  1.0000
  C   C575      1.0  0.21748  0.13869  0.79442  1.0000
  P   P15       1.0  0.26004  0.19848  0.80261  1.0000
  C   C576      1.0  0.27466  0.21788  0.82340  1.0000
  C   C577      1.0  0.28950  0.20668  0.78688  1.0000
  C   C578      1.0  0.30274  0.23464  0.77848  1.0000
  C   C579      1.0  0.32341  0.24007  0.76510  1.0000
  C   C580      1.0  0.33088  0.21766  0.75992  1.0000
  C   C581      1.0  0.31812  0.18991  0.76833  1.0000
  C   C582      1.0  0.29763  0.18444  0.78182  1.0000
  C   C583      1.0  0.25735  0.20720  0.83856  1.0000
  C   C584      1.0  0.26795  0.22245  0.85463  1.0000
  C   C585      1.0  0.29575  0.24861  0.85566  1.0000
  C   C586      1.0  0.31281  0.25958  0.84064  1.0000
  C   C587      1.0  0.30242  0.24437  0.82455  1.0000
  C   C588      1.0  0.23442  0.21098  0.79355  1.0000
  C   C589      1.0  0.22570  0.20523  0.77581  1.0000
  C   C590      1.0  0.20607  0.21490  0.76862  1.0000
  C   C591      1.0  0.19548  0.23096  0.77893  1.0000
  C   C592      1.0  0.20431  0.23718  0.79652  1.0000
  C   C593      1.0  0.22363  0.22721  0.80384  1.0000
  H   H440      1.0  0.18677  0.09251  0.78710  1.0000
  H   H441      1.0  0.20332  0.07076  0.81115  1.0000
  H   H442      1.0  0.24406  0.10454  0.83169  1.0000
  H   H443      1.0  0.26907  0.15975  0.82787  1.0000
  H   H444      1.0  0.20998  0.14747  0.78372  1.0000
  H   H445      1.0  0.29666  0.25209  0.78195  1.0000
  H   H446      1.0  0.33311  0.26149  0.75845  1.0000
  C   C594      1.0  0.37579  0.25821  0.81162  1.0000
  C   C595      1.0  0.97819  0.47413  0.82723  1.0000
  H   H447      1.0  0.28756  0.16247  0.78779  1.0000
  H   H448      1.0  0.23542  0.18736  0.83793  1.0000
  H   H449      1.0  0.25445  0.21430  0.86624  1.0000
  H   H450      1.0  0.30399  0.26081  0.86802  1.0000
  H   H451      1.0  0.33395  0.28035  0.84150  1.0000
  H   H452      1.0  0.31592  0.25377  0.81309  1.0000
  H   H453      1.0  0.23431  0.19353  0.76746  1.0000
  H   H454      1.0  0.19956  0.21060  0.75488  1.0000
  H   H455      1.0  0.18071  0.23886  0.77317  1.0000
  H   H456      1.0  0.19628  0.24990  0.80447  1.0000
  H   H457      1.0  0.23024  0.23259  0.81745  1.0000
  H   H458      1.0  0.36043  0.21217  0.80394  1.0000
  C   C596      1.0  0.99408  0.43802  0.85113  1.0000
  H   H459      1.0  0.34606  0.22166  0.74912  1.0000
  C   C597      1.0  0.24750  0.31577  0.77009  1.0000
  C   C598      1.0  0.22160  0.31760  0.76513  1.0000
  C   C599      1.0  0.22347  0.34567  0.76150  1.0000
  C   C600      1.0  0.25124  0.37196  0.76281  1.0000
  C   C601      1.0  0.27721  0.37036  0.76824  1.0000
  C   C602      1.0  0.27521  0.34204  0.77155  1.0000
  P   P16       1.0  0.31370  0.40351  0.76919  1.0000
  C   C603      1.0  0.33362  0.39990  0.75052  1.0000
  C   C604      1.0  0.00107  0.32772  0.80427  1.0000
  C   C605      1.0  0.35554  0.39026  0.75256  1.0000
  C   C606      1.0  0.31033  0.43776  0.76888  1.0000
  C   C607      1.0  0.32821  0.46158  0.75785  1.0000
  C   C608      1.0  0.45667  0.31659  0.93858  1.0000
  H   H460      1.0  0.42035  0.17472  0.75612  1.0000
  C   C609      1.0  0.39657  0.04741  0.97563  1.0000
  C   C610      1.0  0.29097  0.44151  0.78064  1.0000
  H   H461      1.0  0.24628  0.29395  0.77240  1.0000
  H   H462      1.0  0.20020  0.29721  0.76366  1.0000
  H   H463      1.0  0.47349  0.24418  0.91321  1.0000
  H   H464      1.0  0.25231  0.39326  0.75931  1.0000
  H   H465      1.0  0.29530  0.34033  0.77490  1.0000
  H   H466      1.0  0.17331  0.98695  0.74041  1.0000
  H   H467      1.0  0.36133  0.38538  0.76536  1.0000
  H   H468      1.0  0.29256  0.37541  0.80352  1.0000
  H   H469      1.0  0.34429  0.45984  0.74919  1.0000
  C   C611      1.0  0.04728  0.45723  0.95325  1.0000
  H   H470      1.0  0.45989  0.21925  0.86634  1.0000
  H   H471      1.0  0.18294  0.03982  0.74410  1.0000
  H   H472      1.0  0.40481  0.99626  0.94636  1.0000
  C   C612      1.0  0.33172  0.39234  0.82019  1.0000
  C   C613      1.0  0.35358  0.39204  0.96774  1.0000
  H   H473      1.0  0.38411  0.05852  0.75756  1.0000
  C   C614      1.0  0.36289  0.41060  0.82161  1.0000
  H   H474      1.0  0.02029  0.38835  0.93281  1.0000
  C   C615      1.0  0.99651  0.46154  0.97044  1.0000
  C   C616      1.0  0.44853  0.12604  0.79376  1.0000
  C   C617      1.0  0.37906  0.42693  0.80723  1.0000
  C   C618      1.0  0.25250  0.14190  0.74379  1.0000
  H   H475      1.0  0.11196  0.45322  0.94483  1.0000
  C   C619      1.0  0.39409  0.10913  0.77582  1.0000
  C   C620      1.0  0.39607  0.15179  0.84085  1.0000
  C   C621      1.0  0.39435  0.17882  0.84301  1.0000
  C   C622      1.0  0.41780  0.20324  0.85213  1.0000
  P   P17       1.0  0.36016  0.18002  0.83665  1.0000
  C   C623      1.0  0.36846  0.21855  0.83204  1.0000
  C   C624      1.0  0.34399  0.15562  0.81761  1.0000
  C   C625      1.0  0.36139  0.15981  0.80261  1.0000
  C   C626      1.0  0.34870  0.14168  0.78764  1.0000
  C   C627      1.0  0.31889  0.11861  0.78770  1.0000
  C   C628      1.0  0.30173  0.11370  0.80275  1.0000
  C   C629      1.0  0.31418  0.13210  0.81766  1.0000
  C   C630      1.0  0.37617  0.23971  0.84589  1.0000
  C   C631      1.0  0.38475  0.26996  0.84258  1.0000
  C   C632      1.0  0.38488  0.27930  0.82544  1.0000
  H   H476      1.0  0.00245  0.42169  0.94615  1.0000
  C   C633      1.0  0.36751  0.22791  0.81488  1.0000
  C   C634      1.0  0.33467  0.16632  0.85482  1.0000
  C   C635      1.0  0.33409  0.14329  0.86536  1.0000
  C   C636      1.0  0.31479  0.13308  0.87961  1.0000
  C   C637      1.0  0.29580  0.14561  0.88340  1.0000
  C   C638      1.0  0.29587  0.16817  0.87282  1.0000
  C   C639      1.0  0.31508  0.17839  0.85851  1.0000
  H   H477      1.0  0.38734  0.26098  0.93152  1.0000
  H   H478      1.0  0.34590  0.26437  0.91615  1.0000
  H   H479      1.0  0.42447  0.47527  0.95030  1.0000
  H   H480      1.0  0.37775  0.13203  0.83468  1.0000
  H   H481      1.0  0.41705  0.22405  0.85469  1.0000
  H   H482      1.0  0.38471  0.17728  0.80248  1.0000
  H   H483      1.0  0.36202  0.14526  0.77603  1.0000
  H   H484      1.0  0.30911  0.10427  0.77617  1.0000
  H   H485      1.0  0.27880  0.09540  0.80284  1.0000
  H   H486      1.0  0.30064  0.12766  0.82923  1.0000
  H   H487      1.0  0.37604  0.23298  0.85932  1.0000
  H   H488      1.0  0.39111  0.28612  0.85339  1.0000
  C   C640      1.0  0.02365  0.42188  0.86930  1.0000
  C   C641      1.0  0.00703  0.45630  0.88126  1.0000
  Fe  Fe53      1.0  0.99331  0.29861  0.75046  1.0000
  C   C642      1.0  0.42183  0.11646  0.80302  1.0000
  C   C643      1.0  0.42647  0.99657  0.94524  1.0000
  H   H489      1.0  0.37686  0.43782  0.78037  1.0000
  H   H490      1.0  0.33846  0.31681  0.95878  1.0000
  H   H491      1.0  0.20340  0.34690  0.75733  1.0000
  C   C644      1.0  0.38665  0.28675  0.95437  1.0000
  C   C645      1.0  0.36917  0.38519  0.73792  1.0000
  H   H492      1.0  0.04147  0.46385  0.82269  1.0000
  S   S102      1.0  0.24643  0.08514  0.74819  1.0000
  C   C646      1.0  0.26240  0.16960  0.73524  1.0000
  C   C647      1.0  0.34888  0.30415  0.95305  1.0000
  C   C648      1.0  0.33942  0.29062  0.93654  1.0000
  C   C649      1.0  0.32506  0.40369  0.73358  1.0000
  C   C650      1.0  0.99281  0.45551  0.86533  1.0000
  C   C651      1.0  0.43993  0.24484  0.95605  1.0000
  H   H493      1.0  0.37449  0.41168  0.83385  1.0000
  C   C652      1.0  0.42065  0.14930  0.84771  1.0000
  Fe  Fe54      1.0  0.26042  0.05004  0.73953  1.0000
  C   C653      1.0  0.47053  0.45294  0.97935  1.0000
  H   H494      1.0  0.03474  0.40801  0.87096  1.0000
  H   H495      1.0  0.35192  0.07800  0.96309  1.0000
  H   H496      1.0  0.46914  0.13499  0.76871  1.0000
  H   H497      1.0  0.00050  0.22950  0.78351  1.0000
  H   H498      1.0  0.27351  0.47090  0.78993  1.0000
  C   C654      1.0  0.39262  0.37701  0.96907  1.0000
  C   C655      1.0  0.31756  0.03851  0.97526  1.0000
  H   H499      1.0  0.03335  0.44006  0.89564  1.0000
  C   C656      1.0  0.44497  0.01085  0.93113  1.0000
  H   H500      1.0  0.23957  0.13775  0.75561  1.0000
  C   C657      1.0  0.03645  0.41013  0.93823  1.0000
  C   C658      1.0  0.43675  0.21661  0.95091  1.0000
  P   P18       1.0  0.41932  0.11949  0.74274  1.0000
  S   S103      1.0  0.30949  0.06315  0.73835  1.0000
  C   C659      1.0  0.04568  0.43763  0.80147  1.0000
  H   H501      1.0  0.37259  0.10155  0.76909  1.0000
  H   H502      1.0  0.00521  0.46918  0.89227  1.0000
  C   C660      1.0  0.01216  0.34802  0.97198  1.0000
  H   H503      1.0  0.31241  0.02476  0.96339  1.0000
  C   C661      1.0  0.35453  0.99730  0.97244  1.0000
  C   C662      1.0  0.38624  0.05633  0.74363  1.0000
  C   C663      1.0  0.38289  0.19409  0.95512  1.0000
  H   H504      1.0  0.46950  0.13219  0.80078  1.0000
  H   H505      1.0  0.39159  0.30280  0.82295  1.0000
  H   H506      1.0  0.37512  0.26544  0.79839  1.0000
  H   H507      1.0  0.07470  0.40349  0.93223  1.0000
  P   P19       1.0  0.41784  0.28488  0.96537  1.0000
  H   H508      1.0  0.46217  0.26420  0.95594  1.0000
  C   C664      1.0  0.40825  0.19133  0.95025  1.0000
  H   H509      1.0  0.42196  0.11466  0.81710  1.0000
  H   H510      1.0  0.98078  0.46846  0.86441  1.0000
  C   C665      1.0  0.02643  0.42921  0.94590  1.0000
  C   C666      1.0  0.37229  0.30221  0.96196  1.0000
  H   H511      1.0  0.40588  0.16979  0.94556  1.0000
  H   H512      1.0  0.41201  0.06887  0.97011  1.0000
  H   H513      1.0  0.32184  0.29290  0.92949  1.0000
  H   H514      1.0  0.42203  0.43931  0.92705  1.0000
  C   C667      1.0  0.42076  0.11853  0.76635  1.0000
  C   C668      1.0  0.47591  0.12618  0.73454  1.0000
  C   C669      1.0  0.02938  0.44563  0.81329  1.0000
  C   C670      1.0  0.02279  0.43983  0.88318  1.0000
  H   H515      1.0  0.47701  0.10032  0.97003  1.0000
  H   H516      1.0  0.46161  0.42870  0.95467  1.0000
  H   H517      1.0  0.42097  0.12788  0.84680  1.0000
  C   C671      1.0  0.00921  0.42080  0.85340  1.0000
  C   C672      1.0  0.40254  0.16490  0.74628  1.0000
  H   H518      1.0  0.46793  0.10375  0.73980  1.0000
  C   C673      1.0  0.47292  0.01139  0.92962  1.0000
  H   H519      1.0  0.38905  0.19959  0.74976  1.0000
  C   C674      1.0  0.38597  0.22227  0.96035  1.0000
  C   C675      1.0  0.37213  0.02739  0.73599  1.0000
  C   C676      1.0  0.33987  0.06866  0.97507  1.0000
  H   H520      1.0  0.99439  0.26654  0.80258  1.0000
  H   H521      1.0  0.36078  0.17452  0.95439  1.0000
  P   P20       1.0  0.03506  0.48241  0.96328  1.0000
  C   C677      1.0  0.47466  0.43474  0.96679  1.0000
  C   C678      1.0  0.07824  0.46594  0.95256  1.0000
  C   C679      1.0  0.46942  0.46406  0.92139  1.0000
  C   C680      1.0  0.03052  0.41339  0.78973  1.0000
  H   H522      1.0  0.00969  0.40616  0.84299  1.0000
  C   C681      1.0  0.99772  0.42954  0.81337  1.0000
  H   H523      1.0  0.12813  0.23471  0.73382  1.0000
  H   H524      1.0  0.36602  0.22419  0.96369  1.0000
  C   C682      1.0  0.44470  0.47957  0.94324  1.0000
  C   C683      1.0  0.45687  0.13958  0.73405  1.0000
  H   H525      1.0  0.45624  0.21443  0.94673  1.0000
  C   C684      1.0  0.98268  0.40532  0.80140  1.0000
  S   S104      1.0  0.97873  0.37436  0.90127  1.0000
  C   C685      1.0  0.25935  0.11962  0.73714  1.0000
  H   H526      1.0  0.98737  0.37810  0.78078  1.0000
  H   H527      1.0  0.45393  0.46041  0.97675  1.0000
  C   C686      1.0  0.97912  0.33224  0.83214  1.0000
  H   H528      1.0  0.37892  0.31308  0.97465  1.0000
  S   S105      1.0  0.98458  0.34257  0.85490  1.0000
  C   C687      1.0  0.39709  0.13811  0.73731  1.0000
  H   H529      1.0  0.47660  0.32739  0.98181  1.0000
  C   C688      1.0  0.40221  0.08177  0.73327  1.0000
  C   C689      1.0  0.97830  0.22471  0.78796  1.0000
  C   C690      1.0  0.47802  0.33055  0.96782  1.0000
  Fe  Fe55      1.0  0.00377  0.73858  0.20719  1.0000
  C   C691      1.0  0.38801  0.55274  0.18448  1.0000
  H   H530      1.0  0.10704  0.53815  0.10400  1.0000
  S   S106      1.0  0.34232  0.92558  0.04451  1.0000
  S   S107      1.0  0.28511  0.97746  0.18600  1.0000
  S   S108      1.0  0.33108  0.92278  0.08746  1.0000
  Fe  Fe56      1.0  0.37029  0.93420  0.06926  1.0000
  S   S109      1.0  0.40223  0.91370  0.07151  1.0000
  Fe  Fe57      1.0  0.30427  0.91823  0.06281  1.0000
  S   S110      1.0  0.25318  0.88660  0.06088  1.0000
  S   S111      1.0  0.31613  0.96777  0.06264  1.0000
  Fe  Fe58      1.0  0.06367  0.70365  0.08377  1.0000
  S   S112      1.0  0.10025  0.69005  0.08658  1.0000
  S   S113      1.0  0.05261  0.72964  0.10531  1.0000
  Fe  Fe59      1.0  0.05361  0.68444  0.04382  1.0000
  S   S114      1.0  0.09050  0.67109  0.04449  1.0000
  S   S115      1.0  0.02032  0.67619  0.02070  1.0000
  Fe  Fe60      1.0  0.07069  0.64879  0.06992  1.0000
  S   S116      1.0  0.05496  0.59889  0.07611  1.0000
  Fe  Fe61      1.0  0.11718  0.71373  0.06097  1.0000
  S   S117      1.0  0.16823  0.74301  0.05786  1.0000
  S   S118      1.0  0.03272  0.66090  0.06893  1.0000
  S   S119      1.0  0.08167  0.72880  0.05852  1.0000
  C   C692      1.0  0.01718  0.66391  0.99825  1.0000
  C   C693      1.0  0.30215  0.98529  0.16493  1.0000
  H   H531      1.0  0.06116  0.66679  0.99647  1.0000
  C   C694      1.0  0.07097  0.57534  0.06972  1.0000
  C   C695      1.0  0.05420  0.54389  0.07194  1.0000
  C   C696      1.0  0.06680  0.52456  0.06823  1.0000
  C   C697      1.0  0.09624  0.53648  0.06199  1.0000
  C   C698      1.0  0.11272  0.56782  0.05941  1.0000
  C   C699      1.0  0.10021  0.58716  0.06325  1.0000
  H   H532      1.0  0.03153  0.53447  0.07690  1.0000
  S   S120      1.0  0.00972  0.70935  0.18548  1.0000
  H   H533      1.0  0.13554  0.57731  0.05466  1.0000
  H   H534      1.0  0.11346  0.61129  0.06161  1.0000
  C   C700      1.0  0.23018  0.84657  0.06079  1.0000
  C   C701      1.0  0.24227  0.82653  0.05991  1.0000
  C   C702      1.0  0.22296  0.79501  0.05912  1.0000
  C   C703      1.0  0.19136  0.78303  0.05934  1.0000
  C   C704      1.0  0.17928  0.80308  0.06050  1.0000
  C   C705      1.0  0.19858  0.83461  0.06117  1.0000
  H   H535      1.0  0.26646  0.83529  0.05956  1.0000
  H   H536      1.0  0.23259  0.77976  0.05822  1.0000
  H   H537      1.0  0.15507  0.79429  0.06073  1.0000
  H   H538      1.0  0.18892  0.84982  0.06187  1.0000
  H   H539      1.0  0.12691  0.64230  0.00002  1.0000
  C   C706      1.0  0.44224  0.93418  0.07132  1.0000
  C   C707      1.0  0.43800  0.94005  0.11967  1.0000
  H   H540      1.0  0.07148  0.59461  0.11343  1.0000
  C   C708      1.0  0.45781  0.96568  0.07321  1.0000
  C   C709      1.0  0.99407  0.57146  0.04441  1.0000
  C   C710      1.0  0.44216  0.57712  0.11298  1.0000
  C   C711      1.0  0.45434  0.52640  0.07158  1.0000
  C   C712      1.0  0.44248  0.54323  0.06323  1.0000
  C   C713      1.0  0.16483  0.85990  0.15833  1.0000
  C   C714      1.0  0.06256  0.59621  0.02124  1.0000
  H   H541      1.0  0.41875  0.53270  0.05978  1.0000
  H   H542      1.0  0.20958  0.93191  0.14491  1.0000
  H   H543      1.0  0.10810  0.62588  0.02989  1.0000
  C   C715      1.0  0.44164  0.55247  0.12182  1.0000
  C   C716      1.0  0.02468  0.49405  0.03137  1.0000
  C   C717      1.0  0.07262  0.58974  0.14138  1.0000
  H   H544      1.0  0.27415  0.80682  0.19990  1.0000
  H   H545      1.0  0.05093  0.85112  0.16668  1.0000
  C   C718      1.0  0.02266  0.71598  0.16336  1.0000
  C   C719      1.0  0.02422  0.69255  0.15376  1.0000
  C   C720      1.0  0.03390  0.69641  0.13620  1.0000
  C   C721      1.0  0.04196  0.72379  0.12784  1.0000
  C   C722      1.0  0.46875  0.55128  0.12445  1.0000
  H   H546      1.0  0.03477  0.67808  0.12906  1.0000
  C   C723      1.0  0.28832  0.87997  0.13489  1.0000
  Fe  Fe62      1.0  0.34413  0.97222  0.08673  1.0000
  H   H547      1.0  0.46943  0.61808  0.09902  1.0000
  H   H548      1.0  0.39419  0.91359  0.02037  1.0000
  H   H549      1.0  0.29073  0.93869  0.15999  1.0000
  H   H550      1.0  0.18480  0.87452  0.09374  1.0000
  C   C724      1.0  0.43466  0.52197  0.98868  1.0000
  C   C725      1.0  0.00111  0.52341  0.02052  1.0000
  C   C726      1.0  0.13973  0.52307  0.10024  1.0000
  H   H551      1.0  0.05211  0.82822  0.13783  1.0000
  H   H552      1.0  0.00667  0.78464  0.12599  1.0000
  H   H553      1.0  0.98336  0.65005  0.20588  1.0000
  C   C727      1.0  0.17975  0.83831  0.12025  1.0000
  C   C728      1.0  0.45887  0.91821  0.06990  1.0000
  H   H554      1.0  0.11827  0.74349  0.99757  1.0000
  H   H555      1.0  0.18135  0.77932  0.09823  1.0000
  H   H556      1.0  0.29237  0.93093  0.01596  1.0000
  H   H557      1.0  0.44704  0.89384  0.06845  1.0000
  C   C729      1.0  0.37609  0.51686  0.11530  1.0000
  C   C730      1.0  0.24918  0.92352  0.02534  1.0000
  C   C731      1.0  0.24249  0.93122  0.11685  1.0000
  H   H558      1.0  0.44312  0.92001  0.03174  1.0000
  C   C732      1.0  0.00404  0.82052  0.17073  1.0000
  C   C733      1.0  0.34711  0.50932  0.12138  1.0000
  C   C734      1.0  0.32377  0.50438  0.10954  1.0000
  C   C735      1.0  0.32919  0.50698  0.09159  1.0000
  C   C736      1.0  0.35787  0.51433  0.08543  1.0000
  C   C737      1.0  0.97856  0.78217  0.14798  1.0000
  H   H559      1.0  0.46906  0.53252  0.13109  1.0000
  H   H560      1.0  0.05478  0.58997  0.03447  1.0000
  C   C738      1.0  0.17221  0.79285  0.10436  1.0000
  C   C739      1.0  0.20380  0.89631  0.09685  1.0000
  C   C740      1.0  0.38117  0.51911  0.09721  1.0000
  C   C741      1.0  0.98370  0.58470  0.05698  1.0000
  C   C742      1.0  0.29182  0.82880  0.20419  1.0000
  H   H561      1.0  0.42909  0.58297  0.14812  1.0000
  C   C743      1.0  0.04265  0.58392  0.00686  1.0000
  H   H562      1.0  0.42721  0.93954  0.10723  1.0000
  C   C744      1.0  0.46698  0.94275  0.12009  1.0000
  H   H563      1.0  0.23119  0.97865  0.03678  1.0000
  C   C745      1.0  0.19305  0.91330  0.15225  1.0000
  C   C746      1.0  0.25477  0.95203  0.10342  1.0000
  H   H564      1.0  0.30138  0.49835  0.11418  1.0000
  H   H565      1.0  0.04835  0.53555  0.01782  1.0000
  C   C747      1.0  0.43644  0.93787  0.15126  1.0000
  C   C748      1.0  0.11349  0.52123  0.10752  1.0000
  P   P21       1.0  0.20463  0.87462  0.13039  1.0000
  C   C749      1.0  0.08684  0.49847  0.00768  1.0000
  C   C750      1.0  0.44178  0.93905  0.02608  1.0000
  H   H566      1.0  0.01785  0.67116  0.15996  1.0000
  C   C751      1.0  0.46113  0.57418  0.06000  1.0000
  C   C752      1.0  0.41358  0.56576  0.15670  1.0000
  C   C753      1.0  0.41203  0.96016  0.01305  1.0000
  S   S121      1.0  0.43120  0.48851  0.07818  1.0000
  H   H567      1.0  0.38658  0.50559  0.98666  1.0000
  C   C754      1.0  0.00536  0.79448  0.13840  1.0000
  H   H568      1.0  0.27003  0.87027  0.17792  1.0000
  C   C755      1.0  0.45067  0.49047  0.00493  1.0000
  H   H569      1.0  0.32284  0.92598  0.19327  1.0000
  H   H570      1.0  0.16860  0.50241  0.09790  1.0000
  C   C756      1.0  0.99050  0.65709  0.98875  1.0000
  C   C757      1.0  0.07068  0.58000  0.12400  1.0000
  C   C758      1.0  0.06747  0.55131  0.12018  1.0000
  C   C759      1.0  0.06625  0.53199  0.13365  1.0000
  C   C760      1.0  0.06797  0.54190  0.15111  1.0000
  C   C761      1.0  0.33746  0.88559  0.21504  1.0000
  C   C762      1.0  0.40910  0.48888  0.13278  1.0000
  C   C763      1.0  0.30150  0.96126  0.15483  1.0000
  C   C764      1.0  0.10218  0.74406  0.98823  1.0000
  C   C765      1.0  0.46923  0.59978  0.10652  1.0000
  H   H571      1.0  0.34088  0.97062  0.99590  1.0000
  H   H572      1.0  0.17631  0.87447  0.21014  1.0000
  C   C766      1.0  0.28437  0.84935  0.21251  1.0000
  C   C767      1.0  0.19927  0.87942  0.21325  1.0000
  H   H573      1.0  0.34236  0.50718  0.13517  1.0000
  C   C768      1.0  0.10354  0.62580  0.00186  1.0000
  C   C769      1.0  0.29107  0.97288  0.02015  1.0000
  Fe  Fe63      1.0  0.02083  0.80101  0.22281  1.0000
  C   C770      1.0  0.31444  0.96607  0.13803  1.0000
  C   C771      1.0  0.40789  0.57448  0.17312  1.0000
  H   H574      1.0  0.09955  0.50041  0.15892  1.0000
  C   C772      1.0  0.02668  0.51921  0.02259  1.0000
  H   H575      1.0  0.45146  0.58723  0.05411  1.0000
  C   C773      1.0  0.41414  0.93541  0.01969  1.0000
  H   H576      1.0  0.99586  0.59420  0.98339  1.0000
  C   C774      1.0  0.04050  0.66175  0.98946  1.0000
  C   C775      1.0  0.08658  0.87057  0.22240  1.0000
  H   H577      1.0  0.06536  0.54404  0.10664  1.0000
  H   H578      1.0  0.07246  0.57819  0.16840  1.0000
  P   P22       1.0  0.29780  0.90516  0.22810  1.0000
  H   H579      1.0  0.09282  0.91271  0.21178  1.0000
  C   C776      1.0  0.98948  0.57408  0.02647  1.0000
  C   C777      1.0  0.03070  0.83225  0.16128  1.0000
  C   C778      1.0  0.14868  0.50126  0.10396  1.0000
  C   C779      1.0  0.32256  0.94219  0.21968  1.0000
  C   C780      1.0  0.24167  0.94495  0.08669  1.0000
  P   P23       1.0  0.06186  0.49472  0.12837  1.0000
  H   H580      1.0  0.04687  0.76857  0.13120  1.0000
  C   C781      1.0  0.39941  0.53513  0.15154  1.0000
  H   H581      1.0  0.23987  0.89912  0.02551  1.0000
  C   C782      1.0  0.10054  0.85625  0.23130  1.0000
  H   H582      1.0  0.38373  0.55955  0.19721  1.0000
  H   H583      1.0  0.06648  0.52751  0.16186  1.0000
  H   H584      1.0  0.03672  0.68580  0.21261  1.0000
  C   C783      1.0  0.45768  0.51642  0.99514  1.0000
  H   H585      1.0  0.35527  0.97654  0.18165  1.0000
  P   P24       1.0  0.00351  0.55698  0.01044  1.0000
  H   H586      1.0  0.21809  0.90690  0.19061  1.0000
  C   C784      1.0  0.14116  0.78286  0.10360  1.0000
  H   H587      1.0  0.40309  0.52418  0.09218  1.0000
  H   H588      1.0  0.31107  0.50285  0.08237  1.0000
  C   C785      1.0  0.03102  0.74348  0.15506  1.0000
  H   H589      1.0  0.35835  0.50533  0.18823  1.0000
  H   H590      1.0  0.10520  0.79276  0.11018  1.0000
  H   H591      1.0  0.15258  0.54094  0.09119  1.0000
  H   H592      1.0  0.13896  0.84211  0.12425  1.0000
  C   C786      1.0  0.21710  0.90304  0.11366  1.0000
  C   C787      1.0  0.04053  0.74726  0.13746  1.0000
  H   H593      1.0  0.32774  0.82066  0.19478  1.0000
  C   C788      1.0  0.10233  0.52995  0.00905  1.0000
  H   H594      1.0  0.30659  0.88356  0.12617  1.0000
  H   H595      1.0  0.36804  0.48967  0.15924  1.0000
  H   H596      1.0  0.15943  0.83660  0.15569  1.0000
  C   C789      1.0  0.26189  0.87885  0.12810  1.0000
  H   H597      1.0  0.12626  0.76151  0.09713  1.0000
  C   C790      1.0  0.19148  0.82047  0.11260  1.0000
  C   C791      1.0  0.02123  0.67511  0.22319  1.0000
  H   H598      1.0  0.00628  0.55977  0.04881  1.0000
  C   C792      1.0  0.03133  0.81933  0.14508  1.0000
  C   C793      1.0  0.18554  0.88324  0.14789  1.0000
  H   H599      1.0  0.13472  0.84831  0.18022  1.0000
  H   H600      1.0  0.39040  0.95762  0.00860  1.0000
  C   C794      1.0  0.09291  0.61667  0.01870  1.0000
  H   H601      1.0  0.21546  0.82791  0.11264  1.0000
  C   C795      1.0  0.05383  0.59247  0.98989  1.0000
  S   S122      1.0  0.38540  0.98392  0.07036  1.0000
  C   C796      1.0  0.15097  0.86643  0.17236  1.0000
  C   C797      1.0  0.15823  0.89636  0.17641  1.0000
  C   C798      1.0  0.17941  0.91977  0.16643  1.0000
  C   C799      1.0  0.37372  0.52222  0.17942  1.0000
  H   H602      1.0  0.14775  0.90144  0.18743  1.0000
  H   H603      1.0  0.36181  0.51560  0.07146  1.0000
  S   S123      1.0  0.98436  0.77044  0.20381  1.0000
  C   C800      1.0  0.26769  0.87244  0.16400  1.0000
  H   H604      1.0  0.31188  0.87801  0.15807  1.0000
  H   H605      1.0  0.41900  0.59815  0.17703  1.0000
  C   C801      1.0  0.12933  0.80061  0.11094  1.0000
  C   C802      1.0  0.21603  0.91726  0.08348  1.0000
  H   H606      1.0  0.03010  0.76180  0.16218  1.0000
  C   C803      1.0  0.29126  0.87686  0.15284  1.0000
  C   C804      1.0  0.24117  0.87124  0.15724  1.0000
  H   H607      1.0  0.22335  0.86808  0.16615  1.0000
  H   H608      1.0  0.26017  0.88159  0.11413  1.0000
  C   C805      1.0  0.23809  0.87453  0.13922  1.0000
  H   H609      1.0  0.05386  0.50053  0.07036  1.0000
  S   S124      1.0  0.11383  0.51356  0.05763  1.0000
  H   H610      1.0  0.25344  0.93670  0.12958  1.0000
  C   C806      1.0  0.22273  0.89768  0.20229  1.0000
  C   C807      1.0  0.32202  0.83660  0.20129  1.0000
  C   C808      1.0  0.25248  0.90513  0.20668  1.0000
  C   C809      1.0  0.14853  0.82838  0.11905  1.0000
  C   C810      1.0  0.37933  0.51342  0.16301  1.0000
  C   C811      1.0  0.20555  0.86840  0.22857  1.0000
  C   C812      1.0  0.23213  0.93708  0.03134  1.0000
  H   H611      1.0  0.20962  0.92304  0.03613  1.0000
  C   C813      1.0  0.27875  0.94143  0.01991  1.0000
  C   C814      1.0  0.08402  0.61363  0.98745  1.0000
  C   C815      1.0  0.07327  0.73735  0.99364  1.0000
  P   P25       1.0  0.40662  0.52350  0.13041  1.0000
  C   C816      1.0  0.33305  0.96811  0.23052  1.0000
  C   C817      1.0  0.46541  0.94042  0.15173  1.0000
  H   H612      1.0  0.42160  0.57863  0.11077  1.0000
  H   H613      1.0  0.27016  0.91942  0.19801  1.0000
  H   H614      1.0  0.35538  0.90754  0.21917  1.0000
  H   H615      1.0  0.14635  0.94208  0.22188  1.0000
  H   H616      1.0  0.42446  0.93583  0.16330  1.0000
  S   S125      1.0  0.04803  0.85063  0.21612  1.0000
  C   C818      1.0  0.97810  0.79552  0.16416  1.0000
  C   C819      1.0  0.24443  0.96859  0.03160  1.0000
  H   H617      1.0  0.18555  0.94304  0.16983  1.0000
  H   H618      1.0  0.40036  0.93583  0.13480  1.0000
  C   C820      1.0  0.25916  0.89500  0.22231  1.0000
  H   H619      1.0  0.98371  0.69284  0.08807  1.0000
  C   C821      1.0  0.33121  0.94541  0.20206  1.0000
  C   C822      1.0  0.98173  0.54763  0.99011  1.0000
  C   C823      1.0  0.40449  0.50138  0.99165  1.0000
  H   H620      1.0  0.31355  0.94731  0.13044  1.0000
  H   H621      1.0  0.10990  0.57170  0.99749  1.0000
  H   H622      1.0  0.11803  0.54079  0.01989  1.0000
  C   C824      1.0  0.30714  0.87807  0.21781  1.0000
  H   H623      1.0  0.25193  0.96048  0.07609  1.0000
  H   H624      1.0  0.02971  0.73134  0.98617  1.0000
  H   H625      1.0  0.04463  0.49126  0.03331  1.0000
  C   C825      1.0  0.46728  0.96749  0.02603  1.0000
  H   H626      1.0  0.42877  0.49978  0.15891  1.0000
  C   C826      1.0  0.34975  0.97405  0.19541  1.0000
  H   H627      1.0  0.47522  0.93972  0.16423  1.0000
  C   C827      1.0  0.07120  0.57068  0.15492  1.0000
  S   S126      1.0  0.04172  0.77034  0.22490  1.0000
  H   H628      1.0  0.01107  0.50512  0.11663  1.0000
  H   H629      1.0  0.98826  0.58332  0.07073  1.0000
  H   H630      1.0  0.26082  0.84284  0.21455  1.0000
  H   H631      1.0  0.36825  0.87097  0.20456  1.0000
  C   C828      1.0  0.34483  0.86494  0.20678  1.0000
  H   H632      1.0  0.07502  0.61200  0.14429  1.0000
  H   H633      1.0  0.20662  0.91127  0.07035  1.0000
  C   C829      1.0  0.10346  0.90147  0.21869  1.0000
  H   H634      1.0  0.00380  0.83037  0.18343  1.0000
  C   C830      1.0  0.09754  0.54729  0.99648  1.0000
  H   H635      1.0  0.06702  0.73150  0.00714  1.0000
  C   C831      1.0  0.99105  0.65485  0.21941  1.0000
  C   C832      1.0  0.13381  0.91813  0.22434  1.0000
  H   H636      1.0  0.27509  0.97321  0.10585  1.0000
  C   C833      1.0  0.09585  0.49745  0.11865  1.0000
  Fe  Fe64      1.0  0.35619  0.97534  0.04612  1.0000
  H   H637      1.0  0.44534  0.97826  0.07434  1.0000
  C   C834      1.0  0.42280  0.93781  0.13524  1.0000
  C   C835      1.0  0.23536  0.87610  0.23311  1.0000
  H   H638      1.0  0.14727  0.76669  0.23304  1.0000
  C   C836      1.0  0.27604  0.55782  0.33707  1.0000
  C   C837      1.0  0.03105  0.68254  0.24057  1.0000
  H   H639      1.0  0.00833  0.64271  0.33447  1.0000
  Fe  Fe65      1.0  0.01078  0.75038  0.24785  1.0000
  S   S127      1.0  0.03442  0.74017  0.27103  1.0000
  H   H640      1.0  0.06557  0.71944  0.29447  1.0000
  H   H641      1.0  0.26257  0.57606  0.35897  1.0000
  Fe  Fe66      1.0  0.04739  0.67495  0.41173  1.0000
  S   S128      1.0  0.09542  0.68304  0.40911  1.0000
  S   S129      1.0  0.01607  0.65164  0.43505  1.0000
  Fe  Fe67      1.0  0.04596  0.69545  0.37274  1.0000
  S   S130      1.0  0.09286  0.70302  0.36820  1.0000
  S   S131      1.0  0.01979  0.70928  0.35303  1.0000
  Fe  Fe68      1.0  0.07963  0.65964  0.38273  1.0000
  S   S132      1.0  0.08608  0.62163  0.36995  1.0000
  Fe  Fe69      1.0  0.10412  0.72581  0.39477  1.0000
  S   S133      1.0  0.13714  0.77646  0.39527  1.0000
  S   S134      1.0  0.03156  0.65050  0.38557  1.0000
  S   S135      1.0  0.05699  0.71885  0.39916  1.0000
  Fe  Fe70      1.0  0.37222  0.94563  0.39145  1.0000
  S   S136      1.0  0.40939  0.93417  0.38290  1.0000
  Fe  Fe71      1.0  0.30691  0.91018  0.40417  1.0000
  S   S137      1.0  0.30000  0.95154  0.40452  1.0000
  S   S138      1.0  0.27662  0.86178  0.41291  1.0000
  H   H642      1.0  0.09537  0.67529  0.48066  1.0000
  C   C838      1.0  0.28497  0.53654  0.33152  1.0000
  S   S139      1.0  0.32734  0.91900  0.37747  1.0000
  S   S140      1.0  0.35208  0.93403  0.41809  1.0000
  H   H643      1.0  0.11075  0.71924  0.44312  1.0000
  C   C839      1.0  0.46553  0.53302  0.39347  1.0000
  C   C840      1.0  0.44818  0.94998  0.38924  1.0000
  H   H644      1.0  0.22412  0.92217  0.27237  1.0000
  H   H645      1.0  0.09328  0.81477  0.47079  1.0000
  C   C841      1.0  0.17586  0.79945  0.40059  1.0000
  C   C842      1.0  0.19401  0.78775  0.40745  1.0000
  C   C843      1.0  0.22482  0.80715  0.41112  1.0000
  C   C844      1.0  0.23789  0.83828  0.40772  1.0000
  C   C845      1.0  0.21975  0.84988  0.40075  1.0000
  C   C846      1.0  0.18886  0.83060  0.39739  1.0000
  H   H646      1.0  0.18433  0.76384  0.40994  1.0000
  H   H647      1.0  0.23868  0.79800  0.41656  1.0000
  H   H648      1.0  0.22944  0.87378  0.39821  1.0000
  H   H649      1.0  0.17495  0.83987  0.39222  1.0000
  H   H650      1.0  0.00100  0.62137  0.27946  1.0000
  C   C847      1.0  0.01253  0.65355  0.45835  1.0000
  C   C848      1.0  0.19870  0.48726  0.34885  1.0000
  C   C849      1.0  0.10245  0.54773  0.39586  1.0000
  C   C850      1.0  0.11025  0.57524  0.40477  1.0000
  C   C851      1.0  0.10447  0.59762  0.39727  1.0000
  C   C852      1.0  0.09147  0.59307  0.38054  1.0000
  C   C853      1.0  0.08393  0.56569  0.37153  1.0000
  C   C854      1.0  0.08902  0.54297  0.37922  1.0000
  H   H651      1.0  0.12114  0.57934  0.41748  1.0000
  H   H652      1.0  0.11089  0.61877  0.40416  1.0000
  H   H653      1.0  0.07411  0.56202  0.35852  1.0000
  H   H654      1.0  0.08308  0.52205  0.37214  1.0000
  C   C855      1.0  0.99974  0.73100  0.47635  1.0000
  C   C856      1.0  0.45073  0.54975  0.39793  1.0000
  C   C857      1.0  0.03638  0.56163  0.43395  1.0000
  C   C858      1.0  0.09654  0.65998  0.47093  1.0000
  H   H655      1.0  0.42651  0.53838  0.39933  1.0000
  H   H656      1.0  0.38531  0.97470  0.47049  1.0000
  H   H657      1.0  0.18025  0.81981  0.28035  1.0000
  H   H658      1.0  0.23975  0.86757  0.24510  1.0000
  H   H659      1.0  0.01506  0.72103  0.42771  1.0000
  C   C859      1.0  0.08478  0.82855  0.46449  1.0000
  C   C860      1.0  0.98695  0.70086  0.44967  1.0000
  H   H660      1.0  0.45555  0.59411  0.40375  1.0000
  C   C861      1.0  0.02180  0.77236  0.41000  1.0000
  C   C862      1.0  0.03681  0.53690  0.42532  1.0000
  S   S141      1.0  0.99173  0.78323  0.24665  1.0000
  H   H661      1.0  0.03355  0.77526  0.36610  1.0000
  C   C863      1.0  0.27196  0.54016  0.36673  1.0000
  C   C864      1.0  0.03063  0.73286  0.29403  1.0000
  C   C865      1.0  0.02547  0.71921  0.33041  1.0000
  C   C866      1.0  0.04669  0.71571  0.32020  1.0000
  C   C867      1.0  0.04926  0.72255  0.30219  1.0000
  H   H662      1.0  0.06082  0.70728  0.32611  1.0000
  C   C868      1.0  0.11713  0.78042  0.24527  1.0000
  P   P26       1.0  0.04738  0.57005  0.45675  1.0000
  H   H663      1.0  0.01858  0.67675  0.26750  1.0000
  Fe  Fe72      1.0  0.22173  0.97082  0.23640  1.0000
  H   H664      1.0  0.05412  0.69921  0.24354  1.0000
  H   H665      1.0  0.26723  0.54170  0.38042  1.0000
  C   C869      1.0  0.02209  0.55080  0.39811  1.0000
  C   C870      1.0  0.38226  0.95313  0.46543  1.0000
  C   C871      1.0  0.02859  0.75209  0.45003  1.0000
  C   C872      1.0  0.01053  0.72460  0.44113  1.0000
  H   H666      1.0  0.46740  0.50284  0.35198  1.0000
  C   C873      1.0  0.12038  0.65113  0.44578  1.0000
  S   S142      1.0  0.30155  0.97519  0.35538  1.0000
  C   C874      1.0  0.37297  0.89748  0.45163  1.0000
  C   C875      1.0  0.08034  0.87459  0.46411  1.0000
  C   C876      1.0  0.02903  0.58103  0.42438  1.0000
  Fe  Fe73      1.0  0.34661  0.97602  0.41701  1.0000
  C   C877      1.0  0.26940  0.55953  0.35465  1.0000
  C   C878      1.0  0.32720  0.97779  0.32241  1.0000
  C   C879      1.0  0.10146  0.52946  0.46093  1.0000
  H   H667      1.0  0.12196  0.53186  0.45494  1.0000
  C   C880      1.0  0.02956  0.53149  0.40750  1.0000
  C   C881      1.0  0.28088  0.51891  0.36123  1.0000
  C   C882      1.0  0.47340  0.96907  0.46104  1.0000
  C   C883      1.0  0.20219  0.90365  0.31440  1.0000
  C   C884      1.0  0.21997  0.91970  0.30041  1.0000
  C   C885      1.0  0.21096  0.90909  0.28329  1.0000
  C   C886      1.0  0.18433  0.88221  0.28015  1.0000
  C   C887      1.0  0.16633  0.86583  0.29411  1.0000
  C   C888      1.0  0.17528  0.87696  0.31128  1.0000
  P   P27       1.0  0.13094  0.83216  0.28984  1.0000
  C   C889      1.0  0.10201  0.84234  0.28395  1.0000
  C   C890      1.0  0.13573  0.81093  0.27193  1.0000
  H   H668      1.0  0.09926  0.76905  0.23560  1.0000
  C   C891      1.0  0.09835  0.62080  0.44525  1.0000
  C   C892      1.0  0.10957  0.87083  0.27708  1.0000
  C   C893      1.0  0.08692  0.87742  0.27118  1.0000
  C   C894      1.0  0.05661  0.85581  0.27228  1.0000
  C   C895      1.0  0.04890  0.82771  0.27952  1.0000
  C   C896      1.0  0.07146  0.82093  0.28524  1.0000
  C   C897      1.0  0.12025  0.80938  0.30927  1.0000
  C   C898      1.0  0.13047  0.78810  0.31230  1.0000
  C   C899      1.0  0.12243  0.77105  0.32755  1.0000
  C   C900      1.0  0.10405  0.77500  0.33982  1.0000
  C   C901      1.0  0.09379  0.79607  0.33687  1.0000
  C   C902      1.0  0.10216  0.81348  0.32182  1.0000
  H   H669      1.0  0.20908  0.91231  0.32764  1.0000
  H   H670      1.0  0.24038  0.94071  0.30282  1.0000
  C   C903      1.0  0.30591  0.98178  0.33229  1.0000
  C   C904      1.0  0.34836  0.90123  0.45695  1.0000
  H   H671      1.0  0.16142  0.86533  0.32225  1.0000
  H   H672      1.0  0.28346  0.50458  0.37088  1.0000
  C   C905      1.0  0.36053  0.52352  0.32905  1.0000
  H   H673      1.0  0.13284  0.88773  0.27559  1.0000
  H   H674      1.0  0.09296  0.89897  0.26518  1.0000
  H   H675      1.0  0.03916  0.86066  0.26722  1.0000
  H   H676      1.0  0.02545  0.81082  0.28031  1.0000
  H   H677      1.0  0.06505  0.79863  0.29022  1.0000
  H   H678      1.0  0.14438  0.78436  0.30292  1.0000
  H   H679      1.0  0.12999  0.75437  0.32980  1.0000
  H   H680      1.0  0.09720  0.76129  0.35144  1.0000
  H   H681      1.0  0.07885  0.79854  0.34609  1.0000
  H   H682      1.0  0.09420  0.82992  0.31993  1.0000
  C   C906      1.0  0.18206  0.85786  0.35594  1.0000
  C   C907      1.0  0.20215  0.88680  0.36225  1.0000
  C   C908      1.0  0.23322  0.89703  0.36146  1.0000
  C   C909      1.0  0.24425  0.87818  0.35466  1.0000
  C   C910      1.0  0.22420  0.84880  0.34869  1.0000
  C   C911      1.0  0.19302  0.83905  0.34899  1.0000
  P   P28       1.0  0.23840  0.82429  0.34004  1.0000
  C   C912      1.0  0.21114  0.78536  0.34415  1.0000
  C   C913      1.0  0.24508  0.82998  0.31686  1.0000
  C   C914      1.0  0.26134  0.81755  0.30816  1.0000
  C   C915      1.0  0.26641  0.82155  0.29020  1.0000
  C   C916      1.0  0.25555  0.83824  0.28083  1.0000
  C   C917      1.0  0.23986  0.85115  0.28945  1.0000
  C   C918      1.0  0.23447  0.84695  0.30738  1.0000
  C   C919      1.0  0.19659  0.77780  0.36030  1.0000
  C   C920      1.0  0.17524  0.74803  0.36368  1.0000
  C   C921      1.0  0.16802  0.72544  0.35090  1.0000
  C   C922      1.0  0.18205  0.73270  0.33468  1.0000
  C   C923      1.0  0.20347  0.76251  0.33127  1.0000
  C   C924      1.0  0.27357  0.83368  0.35143  1.0000
  C   C925      1.0  0.27354  0.82344  0.36845  1.0000
  C   C926      1.0  0.30069  0.83211  0.37757  1.0000
  C   C927      1.0  0.32814  0.85107  0.36983  1.0000
  C   C928      1.0  0.32846  0.86156  0.35296  1.0000
  C   C929      1.0  0.30133  0.85321  0.34386  1.0000
  H   H683      1.0  0.15795  0.84975  0.35669  1.0000
  H   H684      1.0  0.19372  0.90129  0.36783  1.0000
  H   H685      1.0  0.24886  0.91950  0.36633  1.0000
  H   H686      1.0  0.26841  0.88655  0.35434  1.0000
  H   H687      1.0  0.17708  0.81670  0.34424  1.0000
  H   H688      1.0  0.26999  0.80466  0.31532  1.0000
  H   H689      1.0  0.27892  0.81185  0.28358  1.0000
  H   H690      1.0  0.25978  0.84165  0.26696  1.0000
  H   H691      1.0  0.23210  0.86470  0.28225  1.0000
  H   H692      1.0  0.22225  0.85714  0.31378  1.0000
  H   H693      1.0  0.20156  0.79505  0.37026  1.0000
  H   H694      1.0  0.16413  0.74253  0.37621  1.0000
  H   H695      1.0  0.15143  0.70232  0.35357  1.0000
  H   H696      1.0  0.17623  0.71512  0.32476  1.0000
  H   H697      1.0  0.21368  0.76739  0.31856  1.0000
  H   H698      1.0  0.25271  0.80957  0.37505  1.0000
  H   H699      1.0  0.30035  0.82500  0.39094  1.0000
  H   H700      1.0  0.34912  0.85857  0.37715  1.0000
  H   H701      1.0  0.34979  0.87713  0.34729  1.0000
  H   H702      1.0  0.30216  0.86280  0.33116  1.0000
  C   C930      1.0  0.37942  0.52520  0.36373  1.0000
  H   H703      1.0  0.47599  0.61784  0.32711  1.0000
  C   C931      1.0  0.00985  0.73697  0.30432  1.0000
  H   H704      1.0  0.05549  0.69243  0.46340  1.0000
  C   C932      1.0  0.43577  0.51166  0.45500  1.0000
  C   C933      1.0  0.40229  0.92149  0.45324  1.0000
  C   C934      1.0  0.00702  0.63093  0.30709  1.0000
  C   C935      1.0  0.00721  0.73003  0.32231  1.0000
  H   H705      1.0  0.00343  0.76548  0.41910  1.0000
  H   H706      1.0  0.98479  0.55787  0.44845  1.0000
  C   C936      1.0  0.07449  0.62962  0.47045  1.0000
  H   H707      1.0  0.08535  0.89631  0.46992  1.0000
  C   C937      1.0  0.02176  0.57550  0.40656  1.0000
  H   H708      1.0  0.02927  0.60068  0.43064  1.0000
  C   C938      1.0  0.30252  0.90587  0.25163  1.0000
  C   C939      1.0  0.28800  0.91778  0.26240  1.0000
  C   C940      1.0  0.29273  0.91989  0.28051  1.0000
  C   C941      1.0  0.31209  0.91032  0.28806  1.0000
  C   C942      1.0  0.32661  0.89837  0.27747  1.0000
  C   C943      1.0  0.32188  0.89614  0.25932  1.0000
  H   H709      1.0  0.42220  0.52853  0.47738  1.0000
  C   C944      1.0  0.14417  0.77907  0.24387  1.0000
  H   H710      1.0  0.04337  0.82944  0.42913  1.0000
  C   C945      1.0  0.01543  0.77008  0.39202  1.0000
  S   S143      1.0  0.11099  0.52081  0.40597  1.0000
  H   H711      1.0  0.02484  0.62468  0.30840  1.0000
  H   H712      1.0  0.04344  0.52210  0.43209  1.0000
  H   H713      1.0  0.01655  0.59078  0.39919  1.0000
  C   C946      1.0  0.40075  0.53955  0.35082  1.0000
  C   C947      1.0  0.09078  0.54997  0.45708  1.0000
  H   H714      1.0  0.34186  0.89123  0.28334  1.0000
  H   H715      1.0  0.27368  0.92630  0.25680  1.0000
  H   H716      1.0  0.28185  0.92963  0.28865  1.0000
  H   H717      1.0  0.31603  0.91251  0.30210  1.0000
  H   H718      1.0  0.33375  0.88731  0.25137  1.0000
  H   H719      1.0  0.99068  0.73283  0.32999  1.0000
  H   H720      1.0  0.39543  0.97126  0.34732  1.0000
  H   H721      1.0  0.45286  0.91308  0.37756  1.0000
  H   H722      1.0  0.17739  0.87477  0.26677  1.0000
  H   H723      1.0  0.99235  0.76103  0.38734  1.0000
  H   H724      1.0  0.34937  0.49931  0.46165  1.0000
  H   H725      1.0  0.34712  0.98155  0.29697  1.0000
  C   C948      1.0  0.06853  0.78995  0.38600  1.0000
  C   C949      1.0  0.07495  0.79228  0.40392  1.0000
  C   C950      1.0  0.05152  0.78232  0.41605  1.0000
  P   P29       1.0  0.29925  0.48958  0.33675  1.0000
  P   P30       1.0  0.05977  0.78252  0.43911  1.0000
  Fe  Fe74      1.0  0.32323  0.96168  0.37817  1.0000
  C   C951      1.0  0.09236  0.77641  0.44122  1.0000
  C   C952      1.0  0.08873  0.74694  0.44188  1.0000
  C   C953      1.0  0.11389  0.74210  0.44291  1.0000
  C   C954      1.0  0.14293  0.76661  0.44302  1.0000
  C   C955      1.0  0.11964  0.67067  0.45872  1.0000
  C   C956      1.0  0.12165  0.80096  0.44115  1.0000
  H   H726      1.0  0.18779  0.79207  0.25555  1.0000
  C   C957      1.0  0.06765  0.81850  0.44891  1.0000
  C   C958      1.0  0.46730  0.58138  0.40048  1.0000
  C   C959      1.0  0.01075  0.66963  0.25418  1.0000
  C   C960      1.0  0.04697  0.52147  0.47478  1.0000
  H   H727      1.0  0.42080  0.91797  0.44889  1.0000
  H   H728      1.0  0.41303  0.49866  0.44976  1.0000
  H   H729      1.0  0.08672  0.79598  0.37685  1.0000
  H   H730      1.0  0.09813  0.80059  0.40816  1.0000
  H   H731      1.0  0.35357  0.52396  0.31568  1.0000
  H   H732      1.0  0.06655  0.72755  0.44111  1.0000
  C   C961      1.0  0.07549  0.60956  0.45775  1.0000
  H   H733      1.0  0.38662  0.52588  0.37720  1.0000
  H   H734      1.0  0.03690  0.77558  0.47511  1.0000
  C   C962      1.0  0.01558  0.56448  0.47012  1.0000
  C   C963      1.0  0.99759  0.64083  0.32181  1.0000
  H   H735      1.0  0.01749  0.54720  0.38416  1.0000
  H   H736      1.0  0.32663  0.96665  0.24408  1.0000
  C   C964      1.0  0.34872  0.50965  0.35930  1.0000
  C   C965      1.0  0.47044  0.54578  0.47702  1.0000
  C   C966      1.0  0.46438  0.93456  0.38450  1.0000
  H   H737      1.0  0.42455  0.55133  0.35435  1.0000
  H   H738      1.0  0.14096  0.86151  0.24410  1.0000
  C   C967      1.0  0.03469  0.67606  0.46905  1.0000
  C   C968      1.0  0.33910  0.50798  0.34188  1.0000
  H   H739      1.0  0.10337  0.56784  0.44811  1.0000
  H   H740      1.0  0.99563  0.74528  0.29841  1.0000
  C   C969      1.0  0.98798  0.55923  0.46250  1.0000
  C   C970      1.0  0.44096  0.52839  0.47057  1.0000
  H   H741      1.0  0.03086  0.51294  0.40080  1.0000
  H   H742      1.0  0.09163  0.79677  0.25996  1.0000
  C   C971      1.0  0.13077  0.87281  0.23689  1.0000
  C   C972      1.0  0.05673  0.83670  0.44109  1.0000
  C   C973      1.0  0.14681  0.79603  0.44210  1.0000
  C   C974      1.0  0.16271  0.80919  0.27051  1.0000
  C   C975      1.0  0.11287  0.79625  0.25922  1.0000
  H   H743      1.0  0.29098  0.53621  0.31799  1.0000
  H   H744      1.0  0.27461  0.57327  0.32779  1.0000
  C   C976      1.0  0.14738  0.90392  0.23377  1.0000
  C   C977      1.0  0.06311  0.86466  0.44867  1.0000
  H   H745      1.0  0.05651  0.62240  0.47978  1.0000
  H   H746      1.0  0.16245  0.76283  0.44326  1.0000
  H   H747      1.0  0.40783  0.55045  0.32355  1.0000
  C   C978      1.0  0.02303  0.75505  0.46776  1.0000
  C   C979      1.0  0.06336  0.54617  0.46393  1.0000
  C   C980      1.0  0.16696  0.79340  0.25652  1.0000
  C   C981      1.0  0.03873  0.77840  0.38001  1.0000
  C   C982      1.0  0.99361  0.62930  0.29072  1.0000
  H   H748      1.0  0.13670  0.69417  0.45910  1.0000
  H   H749      1.0  0.20624  0.51063  0.35265  1.0000
  H   H750      1.0  0.09882  0.60626  0.43484  1.0000
  H   H751      1.0  0.12516  0.82383  0.43979  1.0000
  H   H752      1.0  0.32560  0.88286  0.45522  1.0000
  H   H753      1.0  0.16936  0.81493  0.44147  1.0000
  C   C983      1.0  0.98167  0.70395  0.46730  1.0000
  C   C984      1.0  0.98579  0.63225  0.46625  1.0000
  C   C985      1.0  0.35303  0.92907  0.46384  1.0000
  C   C986      1.0  0.40718  0.94952  0.46023  1.0000
  C   C987      1.0  0.39130  0.53888  0.33349  1.0000
  C   C988      1.0  0.46351  0.97785  0.39809  1.0000
  C   C989      1.0  0.98042  0.64916  0.25050  1.0000
  C   C990      1.0  0.08514  0.50521  0.47188  1.0000
  H   H754      1.0  0.34143  0.96985  0.32868  1.0000
  C   C991      1.0  0.28662  0.51635  0.34350  1.0000
  H   H755      1.0  0.02513  0.51691  0.47956  1.0000
  H   H756      1.0  0.20966  0.49696  0.32176  1.0000
  H   H757      1.0  0.33395  0.93228  0.46756  1.0000
  H   H758      1.0  0.13777  0.65950  0.43597  1.0000
  C   C992      1.0  0.09113  0.85652  0.47202  1.0000
  P   P31       1.0  0.44469  0.98119  0.46241  1.0000
  H   H759      1.0  0.36922  0.87608  0.44590  1.0000
  H   H760      1.0  0.45608  0.50076  0.43329  1.0000
  H   H761      1.0  0.05474  0.87867  0.44253  1.0000
  C   C993      1.0  0.05805  0.50138  0.47894  1.0000
  S   S144      1.0  0.18414  0.92401  0.24295  1.0000
  S   S145      1.0  0.26406  0.96709  0.23334  1.0000
  H   H762      1.0  0.18727  0.85465  0.23714  1.0000
  H   H763      1.0  0.25902  0.49365  0.40076  1.0000
  C   C994      1.0  0.46005  0.51248  0.44583  1.0000
  H   H764      1.0  0.09312  0.48897  0.47456  1.0000
  H   H765      1.0  0.46561  0.95821  0.43333  1.0000
  H   H766      1.0  0.31968  0.97808  0.46590  1.0000
  H   H767      1.0  0.33251  0.49882  0.36952  1.0000
  S   S146      1.0  0.44565  0.49334  0.38908  1.0000
  H   H768      1.0  0.44601  0.98443  0.35943  1.0000
  H   H769      1.0  0.08782  0.83258  0.23433  1.0000
  C   C995      1.0  0.33019  0.98421  0.30433  1.0000
  H   H770      1.0  0.03991  0.57075  0.49463  1.0000
  S   S147      1.0  0.06119  0.83087  0.73224  1.0000
  H   H771      1.0  0.99326  0.55538  0.63138  1.0000
  C   C996      1.0  0.05632  0.73239  0.65486  1.0000
  C   C997      1.0  0.00553  0.49435  0.51583  1.0000
  C   C998      1.0  0.00280  0.65667  0.49500  1.0000
  H   H772      1.0  0.97941  0.63940  0.66109  1.0000
  H   H773      1.0  0.06872  0.77393  0.64144  1.0000
  H   H774      1.0  0.04683  0.69568  0.49511  1.0000
  C   C999      1.0  0.15356  0.87458  0.72466  1.0000
  Fe  Fe75      1.0  0.23986  0.98282  0.73210  1.0000
  H   H775      1.0  0.16817  0.96451  0.71070  1.0000
  S   S148      1.0  0.20156  0.93302  0.72822  1.0000
  C   C1000     1.0  0.01662  0.71716  0.57197  1.0000
  H   H776      1.0  0.42384  0.48878  0.50400  1.0000
  C   C1001     1.0  0.12303  0.85170  0.72543  1.0000
  S   S149      1.0  0.99720  0.66135  0.51778  1.0000
  H   H777      1.0  0.98123  0.72566  0.65898  1.0000
  S   S150      1.0  0.99241  0.68882  0.68509  1.0000
  C   C1002     1.0  0.03145  0.50337  0.52623  1.0000
  C   C1003     1.0  0.98098  0.63367  0.48440  1.0000
  C   C1004     1.0  0.00831  0.60743  0.60315  1.0000
  H   H778      1.0  0.04777  0.52708  0.52743  1.0000
  H   H779      1.0  0.04297  0.49469  0.57559  1.0000
  C   C1005     1.0  0.06994  0.73996  0.62432  1.0000
  C   C1006     1.0  0.16245  0.90473  0.72998  1.0000
  C   C1007     1.0  0.06539  0.75101  0.64031  1.0000
  C   C1008     1.0  0.05488  0.70552  0.58386  1.0000
  C   C1009     1.0  0.06193  0.70065  0.56677  1.0000
  P   P32       1.0  0.07158  0.69621  0.60218  1.0000
  H   H780      1.0  0.00948  0.49395  0.59900  1.0000
  C   C1010     1.0  0.05397  0.65551  0.60150  1.0000
  C   C1011     1.0  0.02311  0.63891  0.60500  1.0000
  H   H781      1.0  0.99767  0.56601  0.51306  1.0000
  C   C1012     1.0  0.10057  0.85847  0.73148  1.0000
  C   C1013     1.0  0.05487  0.60870  0.59398  1.0000
  C   C1014     1.0  0.06974  0.64024  0.59577  1.0000
  H   H782      1.0  0.99254  0.50268  0.56611  1.0000
  C   C1015     1.0  0.04683  0.70459  0.55241  1.0000
  C   C1016     1.0  0.05204  0.70284  0.65349  1.0000
  H   H783      1.0  0.07725  0.75472  0.61319  1.0000
  C   C1017     1.0  0.99492  0.56372  0.49894  1.0000
  C   C1018     1.0  0.11208  0.71343  0.60079  1.0000
  C   C1019     1.0  0.12794  0.73701  0.58917  1.0000
  C   C1020     1.0  0.15944  0.75066  0.58865  1.0000
  C   C1021     1.0  0.17532  0.74120  0.59987  1.0000
  C   C1022     1.0  0.15972  0.71823  0.61174  1.0000
  C   C1023     1.0  0.12822  0.70452  0.61229  1.0000
  C   C1024     1.0  0.06473  0.70995  0.62271  1.0000
  C   C1025     1.0  0.98107  0.68312  0.66243  1.0000
  C   C1026     1.0  0.05614  0.69156  0.63748  1.0000
  C   C1027     1.0  0.03181  0.71342  0.58635  1.0000
  H   H784      1.0  0.07844  0.69288  0.56455  1.0000
  H   H785      1.0  0.02448  0.71540  0.59936  1.0000
  H   H786      1.0  0.11683  0.82889  0.72108  1.0000
  Fe  Fe76      1.0  0.02460  0.78033  0.72944  1.0000
  H   H787      1.0  0.06688  0.59697  0.58926  1.0000
  H   H788      1.0  0.09318  0.65256  0.59217  1.0000
  H   H789      1.0  0.05250  0.66854  0.63676  1.0000
  H   H790      1.0  0.00205  0.51123  0.50900  1.0000
  C   C1028     1.0  0.02411  0.71275  0.55500  1.0000
  C   C1029     1.0  0.98672  0.50969  0.62986  1.0000
  H   H791      1.0  0.05217  0.74063  0.66721  1.0000
  H   H792      1.0  0.11617  0.74520  0.58067  1.0000
  H   H793      1.0  0.17158  0.76878  0.57962  1.0000
  H   H794      1.0  0.19973  0.75191  0.59951  1.0000
  H   H795      1.0  0.17205  0.71120  0.62063  1.0000
  H   H796      1.0  0.11641  0.68706  0.62175  1.0000
  H   H797      1.0  0.05677  0.48856  0.54272  1.0000
  S   S151      1.0  0.03159  0.73890  0.72904  1.0000
  C   C1030     1.0  0.02417  0.59232  0.59763  1.0000
  C   C1031     1.0  0.02974  0.67772  0.48715  1.0000
  H   H798      1.0  0.05179  0.70009  0.53925  1.0000
  H   H799      1.0  0.04470  0.68843  0.66480  1.0000
  S   S152      1.0  0.98905  0.76236  0.70750  1.0000
  H   H800      1.0  0.99604  0.73300  0.49014  1.0000
  H   H801      1.0  0.17041  0.86889  0.71973  1.0000
  H   H802      1.0  0.01028  0.65046  0.60856  1.0000
  H   H803      1.0  0.01162  0.71455  0.54385  1.0000
  H   H804      1.0  0.01242  0.56799  0.59564  1.0000
  Fe  Fe77      1.0  0.99454  0.72025  0.70814  1.0000
  H   H805      1.0  0.99817  0.72223  0.57408  1.0000
  H   H806      1.0  0.43584  0.95838  0.49800  1.0000
  H   H807      1.0  0.00778  0.51548  0.63666  1.0000
  C   C1032     1.0  0.01873  0.56640  0.48846  1.0000
  H   H808      1.0  0.07784  0.98459  0.66542  1.0000
  S   S153      1.0  0.98579  0.62707  0.56429  1.0000
  H   H809      1.0  0.98427  0.59490  0.60528  1.0000
  H   H810      1.0  0.43315  0.98066  0.52662  1.0000
  H   H811      1.0  0.10452  0.86422  0.48399  1.0000
  H   H812      1.0  0.47423  0.55991  0.48859  1.0000
  C   C1033     1.0  0.43951  0.98146  0.49867  1.0000
  C   C1034     1.0  0.97869  0.53244  0.62681  1.0000
  C   C1035     1.0  0.08930  0.75184  0.95881  1.0000
  H   H813      1.0  0.04733  0.80418  0.76904  1.0000
  H   H814      1.0  0.05764  0.86955  0.94227  1.0000
  C   C1036     1.0  0.07606  0.83988  0.94901  1.0000
  H   H815      1.0  0.13207  0.87365  0.76916  1.0000
  H   H816      1.0  0.05804  0.75798  0.78818  1.0000
  C   C1037     1.0  0.32580  0.48827  0.75811  1.0000
  H   H817      1.0  0.05591  0.65295  0.96475  1.0000
  C   C1038     1.0  0.03745  0.65393  0.97139  1.0000
  C   C1039     1.0  0.04576  0.71024  0.92596  1.0000
  C   C1040     1.0  0.19833  0.89999  0.79174  1.0000
  C   C1041     1.0  0.07030  0.80988  0.95059  1.0000
  H   H818      1.0  0.05134  0.70155  0.93754  1.0000
  H   H819      1.0  0.05165  0.67904  0.90885  1.0000
  C   C1042     1.0  0.02436  0.52927  0.95230  1.0000
  H   H820      1.0  0.04036  0.78860  0.84636  1.0000
  H   H821      1.0  0.09935  0.75048  0.83580  1.0000
  H   H822      1.0  0.47271  0.51983  0.95788  1.0000
  C   C1043     1.0  0.03717  0.70684  0.89460  1.0000
  C   C1044     1.0  0.09633  0.79478  0.77588  1.0000
  H   H823      1.0  0.09481  0.48751  0.95803  1.0000
  H   H824      1.0  0.08840  0.80554  0.95494  1.0000
  C   C1045     1.0  0.07258  0.74225  0.76593  1.0000
  C   C1046     1.0  0.05773  0.78767  0.83846  1.0000
  H   H825      1.0  0.02563  0.87663  0.77616  1.0000
  C   C1047     1.0  0.02991  0.54707  0.92259  1.0000
  P   P33       1.0  0.03369  0.74711  0.94868  1.0000
  C   C1048     1.0  0.98406  0.73677  0.96917  1.0000
  H   H826      1.0  0.22147  0.91786  0.79130  1.0000
  H   H827      1.0  0.00663  0.82763  0.93519  1.0000
  C   C1049     1.0  0.01859  0.79268  0.94106  1.0000
  H   H828      1.0  0.47016  0.97153  0.96599  1.0000
  H   H829      1.0  0.04577  0.52526  0.90408  1.0000
  H   H830      1.0  0.05543  0.71897  0.76743  1.0000
  C   C1050     1.0  0.04149  0.78601  0.94664  1.0000
  C   C1051     1.0  0.17757  0.89806  0.77889  1.0000
  H   H831      1.0  0.06795  0.90155  0.79764  1.0000
  C   C1052     1.0  0.02220  0.54854  0.93996  1.0000
  C   C1053     1.0  0.02820  0.74237  0.91212  1.0000
  H   H832      1.0  0.09833  0.85818  0.95212  1.0000
  H   H833      1.0  0.18467  0.91427  0.76839  1.0000
  C   C1054     1.0  0.04590  0.69733  0.90966  1.0000
  C   C1055     1.0  0.10141  0.78394  0.81766  1.0000
  C   C1056     1.0  0.99239  0.71128  0.82515  1.0000
  C   C1057     1.0  0.07594  0.83923  0.78751  1.0000
  C   C1058     1.0  0.03358  0.83854  0.77166  1.0000
  C   C1059     1.0  0.00009  0.52407  0.81450  1.0000
  C   C1060     1.0  0.06004  0.74487  0.96412  1.0000
  C   C1061     1.0  0.18931  0.87874  0.80505  1.0000
  S   S154      1.0  0.00831  0.63774  0.93899  1.0000
  C   C1062     1.0  0.08154  0.86677  0.79555  1.0000
  H   H834      1.0  0.01769  0.53012  0.96563  1.0000
  C   C1063     1.0  0.46377  0.98294  0.95624  1.0000
  C   C1064     1.0  0.07686  0.53317  0.98271  1.0000
  C   C1065     1.0  0.01089  0.64755  0.96186  1.0000
  C   C1066     1.0  0.11019  0.75125  0.97080  1.0000
  H   H835      1.0  0.03630  0.69610  0.88205  1.0000
  C   C1067     1.0  0.04012  0.52657  0.91760  1.0000
  H   H836      1.0  0.14610  0.93394  0.74086  1.0000
  C   C1068     1.0  0.04259  0.50746  0.92995  1.0000
  H   H837      1.0  0.47604  0.96220  0.91277  1.0000
  H   H838      1.0  0.09223  0.62072  0.97437  1.0000
  C   C1069     1.0  0.06899  0.76788  0.84286  1.0000
  C   C1070     1.0  0.47218  0.50505  0.94739  1.0000
  H   H839      1.0  0.02039  0.75907  0.91278  1.0000
  H   H840      1.0  0.15315  0.83916  0.81582  1.0000
  H   H841      1.0  0.10023  0.87810  0.80472  1.0000
  C   C1071     1.0  0.02442  0.82269  0.93949  1.0000
  H   H842      1.0  0.01422  0.56444  0.94374  1.0000
  H   H843      1.0  0.07402  0.54718  0.97304  1.0000
  C   C1072     1.0  0.14778  0.87498  0.77936  1.0000
  H   H844      1.0  0.98393  0.68807  0.93764  1.0000
  C   C1073     1.0  0.06326  0.88008  0.79161  1.0000
  C   C1074     1.0  0.10952  0.88849  0.73705  1.0000
  C   C1075     1.0  0.99898  0.49576  0.81603  1.0000
  H   H845      1.0  0.02061  0.73591  0.88417  1.0000
  C   C1076     1.0  0.15954  0.85542  0.80547  1.0000
  C   C1077     1.0  0.08989  0.80358  0.81297  1.0000
  H   H846      1.0  0.13262  0.75639  0.96661  1.0000
  H   H847      1.0  0.09101  0.73272  0.74280  1.0000
  H   H848      1.0  0.09601  0.75782  0.94540  1.0000
  Fe  Fe78      1.0  0.99506  0.72015  0.74958  1.0000
  H   H849      1.0  0.02768  0.56166  0.91298  1.0000
  C   C1078     1.0  0.03936  0.86603  0.77960  1.0000
  H   H850      1.0  0.01580  0.82817  0.76185  1.0000
  H   H851      1.0  0.11774  0.78162  0.80946  1.0000
  C   C1079     1.0  0.03484  0.50878  0.94745  1.0000
  C   C1080     1.0  0.06804  0.80542  0.82356  1.0000
  H   H852      1.0  0.05820  0.81977  0.82015  1.0000
  C   C1081     1.0  0.05168  0.82506  0.77568  1.0000
  C   C1082     1.0  0.05314  0.84630  0.94347  1.0000
  H   H853      1.0  0.13277  0.82554  0.75954  1.0000
  H   H854      1.0  0.99880  0.75785  0.97589  1.0000
  C   C1083     1.0  0.11404  0.78014  0.74978  1.0000
  C   C1084     1.0  0.99386  0.71336  0.80667  1.0000
  C   C1085     1.0  0.02835  0.72937  0.89583  1.0000
  P   P34       1.0  0.10026  0.82280  0.79228  1.0000
  C   C1086     1.0  0.30593  0.49155  0.76956  1.0000
  C   C1087     1.0  0.09097  0.76618  0.83253  1.0000
  H   H855      1.0  0.33954  0.50653  0.74951  1.0000
  H   H856      1.0  0.20551  0.88027  0.81498  1.0000
  C   C1088     1.0  0.07413  0.76455  0.77767  1.0000
  C   C1089     1.0  0.98720  0.64856  0.97083  1.0000
  H   H857      1.0  0.06024  0.75341  0.85408  1.0000
  H   H858      1.0  0.99621  0.77466  0.93785  1.0000
  C   C1090     1.0  0.11596  0.80246  0.76164  1.0000
  C   C1091     1.0  0.09265  0.75000  0.75206  1.0000
  H   H859      1.0  0.01440  0.49100  0.80848  1.0000
  C   C1092     1.0  0.98329  0.68347  0.83356  1.0000
  C   C1093     1.0  0.03699  0.73293  0.92735  1.0000
  S   S155      1.0  0.98389  0.68276  0.85708  1.0000
  C   C1094     1.0  0.13854  0.85336  0.79260  1.0000
  C   C1095     1.0  0.98664  0.68762  0.79620  1.0000
  C   C1096     1.0  0.14004  0.91129  0.73641  1.0000
  C   C1097     1.0  0.99515  0.72552  0.95573  1.0000
  H   H860      1.0  0.99856  0.73146  0.83302  1.0000
  H   H861      1.0  0.00120  0.73497  0.80055  1.0000
  S   S156      1.0  0.98417  0.61699  0.88950  1.0000
  H   H862      1.0  0.12905  0.78629  0.73874  1.0000
  H   H863      1.0  0.09262  0.89417  0.74191  1.0000
  C   C1098     1.0  0.43580  0.98252  0.95776  1.0000
  H   H864      1.0  0.33733  0.97974  0.96431  1.0000
  H   H865      1.0  0.04999  0.49138  0.92571  1.0000
  H   H866      1.0  0.03950  0.58321  0.97846  1.0000
  H   H867      1.0  0.42126  0.97130  0.96863  1.0000
  C   C1099     1.0  0.05214  0.73742  0.98164  1.0000
  H   H868      1.0  0.30416  0.51227  0.76980  1.0000
  H   H869      1.0  0.01629  0.54078  0.80593  1.0000
  S   S157      1.0  0.99017  0.68883  0.77279  1.0000
  S   S158      1.0  0.98952  0.76199  0.75090  1.0000
  C   C1100     1.0  0.98228  0.57067  0.97959  1.0000
  C   C1101     1.0  0.98054  0.53100  0.82415  1.0000
  H   H870      1.0  0.98167  0.55307  0.82316  1.0000
  C   C1102     1.0  0.06071  0.50145  0.98145  1.0000
  H   H871      1.0  0.44018  0.54223  0.98138  1.0000
  C   C1103     1.0  0.94401  0.27027  0.18068  1.0000
  C   C1104     1.0  0.90093  0.23308  0.99947  1.0000
  C   C1105     1.0  0.67360  0.02364  0.15744  1.0000
  S   S159      1.0  0.70545  0.03900  0.18883  1.0000
  C   C1106     1.0  0.49517  0.04424  0.04339  1.0000
  H   H872      1.0  0.95435  0.43238  0.00677  1.0000
  Fe  Fe79      1.0  0.73370  0.03699  0.21231  1.0000
  S   S160      1.0  0.78268  0.04784  0.21240  1.0000
  C   C1107     1.0  0.82897  0.19083  0.19421  1.0000
  C   C1108     1.0  0.58854  0.03047  0.01551  1.0000
  H   H873      1.0  0.97007  0.38990  0.98978  1.0000
  C   C1109     1.0  0.53275  0.03037  0.01902  1.0000
  H   H874      1.0  0.81229  0.29748  0.20152  1.0000
  S   S161      1.0  0.62917  0.00260  0.07048  1.0000
  H   H875      1.0  0.54366  0.07012  0.04704  1.0000
  C   C1110     1.0  0.49199  0.05358  0.00539  1.0000
  H   H876      1.0  0.48721  0.02304  0.98401  1.0000
  H   H877      1.0  0.93141  0.19760  0.17708  1.0000
  H   H878      1.0  0.69599  0.04181  0.99785  1.0000
  C   C1111     1.0  0.50685  0.44857  0.99849  1.0000
  C   C1112     1.0  0.52178  0.06335  0.05271  1.0000
  C   C1113     1.0  0.54333  0.01793  0.03198  1.0000
  C   C1114     1.0  0.66613  0.01131  0.14025  1.0000
  H   H879      1.0  0.52630  0.98837  0.16511  1.0000
  H   H880      1.0  0.49125  0.07348  0.09022  1.0000
  H   H881      1.0  0.91089  0.26611  0.22217  1.0000
  C   C1115     1.0  0.92359  0.24228  0.01237  1.0000
  C   C1116     1.0  0.77936  0.16633  0.98652  1.0000
  H   H882      1.0  0.82707  0.26137  0.21413  1.0000
  H   H883      1.0  0.84210  0.22521  0.00420  1.0000
  C   C1117     1.0  0.57865  0.04357  0.00271  1.0000
  H   H884      1.0  0.82319  0.31238  0.17051  1.0000
  H   H885      1.0  0.59252  0.05361  0.99141  1.0000
  H   H886      1.0  0.87471  0.29424  0.98963  1.0000
  C   C1118     1.0  0.84685  0.25538  0.19027  1.0000
  H   H887      1.0  0.86388  0.25440  0.16445  1.0000
  H   H888      1.0  0.66169  0.03483  0.16303  1.0000
  H   H889      1.0  0.88219  0.18806  0.18854  1.0000
  C   C1119     1.0  0.78730  0.15490  0.17591  1.0000
  H   H890      1.0  0.84033  0.17127  0.21613  1.0000
  C   C1120     1.0  0.82736  0.20944  0.99429  1.0000
  C   C1121     1.0  0.94776  0.29252  0.00043  1.0000
  C   C1122     1.0  0.55105  0.04384  0.00452  1.0000
  H   H891      1.0  0.61671  0.01319  0.11003  1.0000
  P   P35       1.0  0.85795  0.22896  0.19937  1.0000
  C   C1123     1.0  0.49239  0.06555  0.07713  1.0000
  H   H892      1.0  0.97140  0.25004  0.17236  1.0000
  C   C1124     1.0  0.86289  0.23492  0.22284  1.0000
  C   C1125     1.0  0.94942  0.24595  0.17685  1.0000
  C   C1126     1.0  0.90647  0.16754  0.21892  1.0000
  C   C1127     1.0  0.80971  0.18454  0.17956  1.0000
  C   C1128     1.0  0.83206  0.26757  0.20059  1.0000
  H   H893      1.0  0.64863  0.01305  0.13290  1.0000
  C   C1129     1.0  0.55804  0.02901  0.11235  1.0000
  C   C1130     1.0  0.58676  0.03274  0.10861  1.0000
  H   H894      1.0  0.96143  0.42896  0.08238  1.0000
  C   C1131     1.0  0.52035  0.07375  0.06956  1.0000
  Fe  Fe80      1.0  0.76737  0.00756  0.23002  1.0000
  C   C1132     1.0  0.57094  0.01781  0.03018  1.0000
  H   H895      1.0  0.51878  0.45301  0.01093  1.0000
  C   C1133     1.0  0.69647  0.02192  0.16739  1.0000
  H   H896      1.0  0.50137  0.00517  0.07587  1.0000
  C   C1134     1.0  0.82359  0.28807  0.19346  1.0000
  H   H897      1.0  0.77238  0.15008  0.16467  1.0000
  H   H898      1.0  0.88354  0.20972  0.99894  1.0000
  C   C1135     1.0  0.67432  0.02850  0.99144  1.0000
  C   C1136     1.0  0.71158  0.00732  0.15988  1.0000
  H   H899      1.0  0.53049  0.00874  0.04370  1.0000
  C   C1137     1.0  0.51110  0.43054  0.98583  1.0000
  H   H900      1.0  0.76652  0.10839  0.18407  1.0000
  C   C1138     1.0  0.70444  0.99541  0.14258  1.0000
  C   C1139     1.0  0.95944  0.43809  0.99315  1.0000
  P   P36       1.0  0.49687  0.03038  0.02172  1.0000
  H   H901      1.0  0.96181  0.29319  0.17911  1.0000
  C   C1140     1.0  0.79910  0.18649  0.99916  1.0000
  H   H902      1.0  0.61002  0.03043  0.01420  1.0000
  C   C1141     1.0  0.49151  0.08051  0.01010  1.0000
  C   C1142     1.0  0.65048  0.00631  0.00101  1.0000
  H   H903      1.0  0.55183  0.04607  0.10852  1.0000
  H   H904      1.0  0.60276  0.05260  0.10183  1.0000
  C   C1143     1.0  0.47887  0.47159  0.04805  1.0000
  C   C1144     1.0  0.68178  0.99740  0.13256  1.0000
  H   H905      1.0  0.72925  0.00581  0.16727  1.0000
  H   H906      1.0  0.64205  0.00631  0.20144  1.0000
  H   H907      1.0  0.54096  0.08807  0.07677  1.0000
  C   C1145     1.0  0.80329  0.13744  0.20124  1.0000
  C   C1146     1.0  0.89889  0.21107  0.18601  1.0000
  H   H908      1.0  0.91249  0.28420  0.19040  1.0000
  C   C1147     1.0  0.82973  0.29646  0.17600  1.0000
  C   C1148     1.0  0.85276  0.26377  0.17269  1.0000
  H   H909      1.0  0.57883  0.00810  0.04029  1.0000
  C   C1149     1.0  0.82567  0.16697  0.20488  1.0000
  H   H910      1.0  0.81182  0.20232  0.17096  1.0000
  C   C1150     1.0  0.84427  0.28428  0.16561  1.0000
  H   H911      1.0  0.84902  0.29074  0.15206  1.0000
  H   H912      1.0  0.80085  0.11928  0.20973  1.0000
  C   C1151     1.0  0.89319  0.23537  0.18979  1.0000
  H   H913      1.0  0.52656  0.42158  0.98839  1.0000
  C   C1152     1.0  0.53700  0.00283  0.12053  1.0000
  C   C1153     1.0  0.91601  0.26504  0.18709  1.0000
  C   C1154     1.0  0.78401  0.13136  0.18679  1.0000
  C   C1155     1.0  0.62261  0.98928  0.99244  1.0000
  H   H914      1.0  0.79246  0.18429  0.01274  1.0000
  C   C1156     1.0  0.97158  0.47670  0.03605  1.0000
  H   H915      1.0  0.49476  0.08837  0.02358  1.0000
  H   H916      1.0  0.54433  0.05462  0.99454  1.0000
  C   C1157     1.0  0.48625  0.09736  0.99736  1.0000
  P   P37       1.0  0.48047  0.48237  0.01202  1.0000
  H   H917      1.0  0.95032  0.46034  0.04141  1.0000
  C   C1158     1.0  0.92683  0.21638  0.17944  1.0000
  S   S162      1.0  0.65721  0.00091  0.02343  1.0000
  H   H918      1.0  0.91667  0.16390  0.20736  1.0000
  C   C1159     1.0  0.94688  0.27207  0.01293  1.0000
  H   H919      1.0  0.51494  0.00049  0.12326  1.0000
  H   H920      1.0  0.55123  0.99696  0.19415  1.0000
  C   C1160     1.0  0.59460  0.01044  0.11320  1.0000
  S   S163      1.0  0.95772  0.22346  0.22080  1.0000
  C   C1161     1.0  0.48700  0.46046  0.99520  1.0000
  C   C1162     1.0  0.92525  0.28338  0.98748  1.0000
  H   H921      1.0  0.92333  0.22627  0.02184  1.0000
  C   C1163     1.0  0.87784  0.14469  0.22412  1.0000
  H   H922      1.0  0.86628  0.12397  0.21648  1.0000
  H   H923      1.0  0.78210  0.27585  0.98560  1.0000
  C   C1164     1.0  0.92186  0.19509  0.22841  1.0000
  H   H924      1.0  0.96455  0.27927  0.02286  1.0000
  C   C1165     1.0  0.90112  0.25382  0.98723  1.0000
  S   S164      1.0  0.71840  0.99535  0.22855  1.0000
  C   C1166     1.0  0.48720  0.04387  0.98780  1.0000
  H   H925      1.0  0.75751  0.14845  0.99027  1.0000
  H   H926      1.0  0.48550  0.11792  0.00106  1.0000
  H   H927      1.0  0.96838  0.47681  0.09645  1.0000
  H   H928      1.0  0.96615  0.31542  0.00066  1.0000
  H   H929      1.0  0.91302  0.41428  0.98448  1.0000
  C   C1167     1.0  0.89123  0.25479  0.23022  1.0000
  H   H930      1.0  0.81601  0.20495  0.22863  1.0000
  H   H931      1.0  0.50629  0.01177  0.40875  1.0000
  H   H932      1.0  0.79927  0.19811  0.42172  1.0000
  C   C1168     1.0  0.72252  0.07289  0.44420  1.0000
  Fe  Fe81      1.0  0.72781  0.02519  0.25270  1.0000
  S   S165      1.0  0.77624  0.03475  0.25511  1.0000
  H   H933      1.0  0.72824  0.02083  0.33502  1.0000
  C   C1169     1.0  0.68711  0.00423  0.29688  1.0000
  C   C1170     1.0  0.73079  0.05218  0.43689  1.0000
  C   C1171     1.0  0.48127  0.03090  0.44246  1.0000
  C   C1172     1.0  0.68218  0.01772  0.47762  1.0000
  S   S166      1.0  0.69011  0.00725  0.27347  1.0000
  C   C1173     1.0  0.50218  0.45825  0.45441  1.0000
  S   S167      1.0  0.63211  0.00486  0.40005  1.0000
  C   C1174     1.0  0.87008  0.24485  0.25924  1.0000
  C   C1175     1.0  0.65738  0.99932  0.46667  1.0000
  C   C1176     1.0  0.70851  0.01227  0.32654  1.0000
  H   H934      1.0  0.70477  0.02604  0.47275  1.0000
  H   H935      1.0  0.76732  0.15019  0.43651  1.0000
  H   H936      1.0  0.73610  0.03168  0.41313  1.0000
  C   C1177     1.0  0.55558  0.02838  0.45549  1.0000
  H   H937      1.0  0.53141  0.04224  0.47339  1.0000
  H   H938      1.0  0.62609  0.03755  0.46242  1.0000
  H   H939      1.0  0.58413  0.01520  0.44088  1.0000
  H   H940      1.0  0.81887  0.99994  0.25725  1.0000
  S   S168      1.0  0.66418  0.99096  0.44482  1.0000
  H   H941      1.0  0.68870  0.16066  0.42425  1.0000
  H   H942      1.0  0.57923  0.08095  0.42670  1.0000
  H   H943      1.0  0.53726  0.01807  0.44600  1.0000
  H   H944      1.0  0.73466  0.02506  0.30273  1.0000
  S   S169      1.0  0.82673  0.12208  0.24555  1.0000
  H   H945      1.0  0.49952  0.03242  0.45054  1.0000
  C   C1178     1.0  0.57645  0.05559  0.48296  1.0000
  C   C1179     1.0  0.49465  0.99013  0.40201  1.0000
  C   C1180     1.0  0.71227  0.01471  0.30816  1.0000
  C   C1181     1.0  0.48578  0.14894  0.34799  1.0000
  H   H946      1.0  0.87302  0.24827  0.27330  1.0000
  H   H947      1.0  0.50182  0.19412  0.35844  1.0000
  H   H948      1.0  0.73621  0.03814  0.44531  1.0000
  S   S170      1.0  0.73989  0.06650  0.23631  1.0000
  C   C1182     1.0  0.68965  0.09699  0.47668  1.0000
  H   H949      1.0  0.82759  0.02751  0.31129  1.0000
  H   H950      1.0  0.96851  0.35742  0.46000  1.0000
  H   H951      1.0  0.84432  0.03870  0.28056  1.0000
  H   H952      1.0  0.52534  0.46703  0.45868  1.0000
  H   H953      1.0  0.77628  0.22733  0.40828  1.0000
  C   C1183     1.0  0.48724  0.05221  0.42943  1.0000
  C   C1184     1.0  0.60570  0.03915  0.46479  1.0000
  C   C1185     1.0  0.73070  0.04848  0.41874  1.0000
  C   C1186     1.0  0.81631  0.01058  0.30109  1.0000
  C   C1187     1.0  0.83814  0.22030  0.23393  1.0000
  H   H954      1.0  0.91675  0.27495  0.25390  1.0000
  H   H955      1.0  0.82283  0.21299  0.26054  1.0000
  C   C1188     1.0  0.58203  0.02653  0.45259  1.0000
  H   H956      1.0  0.51010  0.06973  0.42739  1.0000
  C   C1189     1.0  0.49630  0.46173  0.43689  1.0000
  C   C1190     1.0  0.55258  0.04243  0.47076  1.0000
  H   H957      1.0  0.65715  0.06926  0.41853  1.0000
  H   H958      1.0  0.74425  0.16723  0.46577  1.0000
  H   H959      1.0  0.60460  0.05550  0.41145  1.0000
  H   H960      1.0  0.66031  0.13538  0.45647  1.0000
  C   C1191     1.0  0.87963  0.17632  0.24861  1.0000
  C   C1192     1.0  0.48358  0.17112  0.35821  1.0000
  H   H961      1.0  0.72239  0.07500  0.45828  1.0000
  H   H962      1.0  0.60697  0.12047  0.44951  1.0000
  C   C1193     1.0  0.71276  0.16858  0.42400  1.0000
  H   H963      1.0  0.70950  0.10059  0.40642  1.0000
  C   C1194     1.0  0.72976  0.14823  0.47364  1.0000
  H   H964      1.0  0.53759  0.43128  0.47828  1.0000
  C   C1195     1.0  0.86403  0.14894  0.23900  1.0000
  C   C1196     1.0  0.61694  0.07321  0.42117  1.0000
  C   C1197     1.0  0.60260  0.08752  0.42980  1.0000
  C   C1198     1.0  0.61820  0.10964  0.44267  1.0000
  C   C1199     1.0  0.64834  0.11787  0.44667  1.0000
  C   C1200     1.0  0.66307  0.10388  0.43788  1.0000
  C   C1201     1.0  0.64696  0.08116  0.42525  1.0000
  P   P38       1.0  0.70272  0.11663  0.44235  1.0000
  C   C1202     1.0  0.70819  0.12087  0.46587  1.0000
  C   C1203     1.0  0.71419  0.09016  0.43335  1.0000
  H   H965      1.0  0.51927  0.12185  0.47389  1.0000
  H   H966      1.0  0.72289  0.06303  0.39374  1.0000
  H   H967      1.0  0.91989  0.21976  0.25110  1.0000
  C   C1204     1.0  0.72317  0.06610  0.40783  1.0000
  C   C1205     1.0  0.71537  0.08717  0.41509  1.0000
  C   C1206     1.0  0.82585  0.01688  0.28381  1.0000
  H   H968      1.0  0.51475  0.47306  0.42795  1.0000
  H   H969      1.0  0.72099  0.20839  0.40962  1.0000
  H   H970      1.0  0.50568  0.15477  0.34023  1.0000
  H   H971      1.0  0.55438  0.10011  0.47493  1.0000
  C   C1207     1.0  0.72565  0.15199  0.43171  1.0000
  C   C1208     1.0  0.75696  0.16279  0.43076  1.0000
  C   C1209     1.0  0.77512  0.18991  0.42239  1.0000
  C   C1210     1.0  0.76217  0.20637  0.41483  1.0000
  C   C1211     1.0  0.73101  0.19570  0.41561  1.0000
  H   H972      1.0  0.67319  0.07562  0.47102  1.0000
  C   C1212     1.0  0.90831  0.19909  0.24344  1.0000
  C   C1213     1.0  0.60278  0.05308  0.48012  1.0000
  S   S171      1.0  0.67652  0.99705  0.35750  1.0000
  C   C1214     1.0  0.81143  0.99506  0.27065  1.0000
  H   H973      1.0  0.86933  0.18006  0.26011  1.0000
  H   H974      1.0  0.47892  0.03592  0.37123  1.0000
  C   C1215     1.0  0.67962  0.99922  0.33405  1.0000
  Fe  Fe82      1.0  0.78832  0.07464  0.23740  1.0000
  S   S172      1.0  0.55005  0.99109  0.40262  1.0000
  H   H975      1.0  0.93145  0.39566  0.47836  1.0000
  H   H976      1.0  0.90184  0.45480  0.48185  1.0000
  C   C1216     1.0  0.97611  0.48199  0.44951  1.0000
  C   C1217     1.0  0.65822  0.99088  0.30438  1.0000
  C   C1218     1.0  0.62837  0.98780  0.47354  1.0000
  C   C1219     1.0  0.96750  0.45830  0.47794  1.0000
  C   C1220     1.0  0.89471  0.25989  0.24832  1.0000
  C   C1221     1.0  0.96428  0.47819  0.46636  1.0000
  C   C1222     1.0  0.65446  0.98841  0.32275  1.0000
  C   C1223     1.0  0.84183  0.22504  0.25205  1.0000
  C   C1224     1.0  0.47833  0.44371  0.46610  1.0000
  H   H977      1.0  0.64119  0.99709  0.23328  1.0000
  C   C1225     1.0  0.89107  0.48478  0.49696  1.0000
  S   S173      1.0  0.92168  0.34060  0.54078  1.0000
  P   P39       1.0  0.95208  0.45241  0.49970  1.0000
  S   S174      1.0  0.95829  0.19283  0.72363  1.0000
  S   S175      1.0  0.92057  0.33266  0.58379  1.0000
  H   H978      1.0  0.86424  0.33042  0.51110  1.0000
  Fe  Fe83      1.0  0.91687  0.30453  0.55989  1.0000
  S   S176      1.0  0.88612  0.25342  0.56130  1.0000
  Fe  Fe84      1.0  0.92927  0.37016  0.56483  1.0000
  S   S177      1.0  0.90584  0.39970  0.56715  1.0000
  H   H979      1.0  0.54474  0.03790  0.61491  1.0000
  C   C1226     1.0  0.60589  0.10381  0.51101  1.0000
  Fe  Fe85      1.0  0.64786  0.09151  0.57197  1.0000
  S   S178      1.0  0.64637  0.04588  0.57310  1.0000
  S   S179      1.0  0.61363  0.10735  0.58024  1.0000
  Fe  Fe86      1.0  0.71262  0.12192  0.55780  1.0000
  S   S180      1.0  0.71518  0.07818  0.55721  1.0000
  S   S181      1.0  0.74478  0.16912  0.54802  1.0000
  Fe  Fe87      1.0  0.66749  0.05620  0.54618  1.0000
  S   S182      1.0  0.64268  0.02115  0.52391  1.0000
  Fe  Fe88      1.0  0.69405  0.07096  0.58413  1.0000
  S   S183      1.0  0.71551  0.05526  0.60589  1.0000
  S   S184      1.0  0.66658  0.10045  0.54491  1.0000
  S   S185      1.0  0.69399  0.11579  0.58491  1.0000
  Fe  Fe89      1.0  0.73456  0.04864  0.71359  1.0000
  S   S186      1.0  0.71284  0.05972  0.68997  1.0000
  S   S187      1.0  0.78114  0.05311  0.71519  1.0000
  H   H980      1.0  0.93252  0.23456  0.63797  1.0000
  H   H981      1.0  0.89849  0.06007  0.70345  1.0000
  C   C1227     1.0  0.80113  0.01931  0.66863  1.0000
  C   C1228     1.0  0.50939  0.09921  0.51614  1.0000
  H   H982      1.0  0.95095  0.40548  0.65514  1.0000
  C   C1229     1.0  0.71523  0.05757  0.62927  1.0000
  C   C1230     1.0  0.73342  0.04871  0.63923  1.0000
  C   C1231     1.0  0.73337  0.04948  0.65775  1.0000
  C   C1232     1.0  0.71484  0.05890  0.66661  1.0000
  C   C1233     1.0  0.69696  0.06806  0.65665  1.0000
  C   C1234     1.0  0.69716  0.06747  0.63816  1.0000
  H   H983      1.0  0.74756  0.04106  0.63255  1.0000
  H   H984      1.0  0.74746  0.04259  0.66514  1.0000
  H   H985      1.0  0.68258  0.07547  0.66329  1.0000
  H   H986      1.0  0.68301  0.07434  0.63078  1.0000
  C   C1235     1.0  0.64919  0.01398  0.50177  1.0000
  H   H987      1.0  0.73885  0.12336  0.61808  1.0000
  H   H988      1.0  0.51567  0.12684  0.60472  1.0000
  H   H989      1.0  0.69757  0.03938  0.50310  1.0000
  C   C1236     1.0  0.51289  0.07274  0.56635  1.0000
  C   C1237     1.0  0.52642  0.05404  0.56360  1.0000
  C   C1238     1.0  0.55724  0.06438  0.56752  1.0000
  C   C1239     1.0  0.57491  0.09351  0.57444  1.0000
  C   C1240     1.0  0.56132  0.11216  0.57730  1.0000
  C   C1241     1.0  0.53058  0.10197  0.57311  1.0000
  H   H990      1.0  0.56725  0.04968  0.56549  1.0000
  H   H991      1.0  0.57477  0.13474  0.58265  1.0000
  H   H992      1.0  0.49723  0.09942  0.52779  1.0000
  H   H993      1.0  0.59123  0.45712  0.48767  1.0000
  H   H994      1.0  0.53166  0.07737  0.52896  1.0000
  C   C1242     1.0  0.57589  0.46487  0.49266  1.0000
  C   C1243     1.0  0.90574  0.45459  0.56673  1.0000
  H   H995      1.0  0.51397  0.17120  0.59246  1.0000
  C   C1244     1.0  0.84645  0.23092  0.55852  1.0000
  C   C1245     1.0  0.83324  0.19994  0.56235  1.0000
  C   C1246     1.0  0.80203  0.18086  0.55973  1.0000
  C   C1247     1.0  0.78371  0.19252  0.55305  1.0000
  C   C1248     1.0  0.79689  0.22356  0.54940  1.0000
  C   C1249     1.0  0.82802  0.24273  0.55225  1.0000
  H   H996      1.0  0.84733  0.19056  0.56712  1.0000
  H   H997      1.0  0.79234  0.15700  0.56239  1.0000
  H   H998      1.0  0.78296  0.23280  0.54417  1.0000
  H   H999      1.0  0.83786  0.26645  0.54918  1.0000
  C   C1250     1.0  0.92370  0.43991  0.56661  1.0000
  C   C1251     1.0  0.93826  0.39700  0.64304  1.0000
  C   C1252     1.0  0.95509  0.45750  0.56630  1.0000
  C   C1253     1.0  0.63297  0.14013  0.53439  1.0000
  P   P40       1.0  0.48553  0.43853  0.48879  1.0000
  H   H1000     1.0  0.66616  0.98953  0.61936  1.0000
  H   H1001     1.0  0.96722  0.46958  0.66145  1.0000
  C   C1254     1.0  0.90451  0.37342  0.61223  1.0000
  C   C1255     1.0  0.94098  0.21767  0.67984  1.0000
  C   C1256     1.0  0.52174  0.46057  0.56517  1.0000
  H   H1002     1.0  0.74965  0.17238  0.49790  1.0000
  C   C1257     1.0  0.75898  0.14492  0.62000  1.0000
  C   C1258     1.0  0.77010  0.15557  0.63689  1.0000
  C   C1259     1.0  0.79601  0.18348  0.63935  1.0000
  C   C1260     1.0  0.81155  0.20045  0.62482  1.0000
  C   C1261     1.0  0.79964  0.18994  0.60795  1.0000
  P   P41       1.0  0.84536  0.23642  0.62723  1.0000
  C   C1262     1.0  0.87685  0.23655  0.61594  1.0000
  C   C1263     1.0  0.83618  0.26367  0.61737  1.0000
  C   C1264     1.0  0.84676  0.27493  0.60068  1.0000
  C   C1265     1.0  0.83888  0.29539  0.59295  1.0000
  C   C1266     1.0  0.82012  0.30451  0.60169  1.0000
  C   C1267     1.0  0.80894  0.29290  0.61813  1.0000
  C   C1268     1.0  0.81675  0.27236  0.62590  1.0000
  C   C1269     1.0  0.87437  0.21063  0.60722  1.0000
  C   C1270     1.0  0.89865  0.21204  0.59768  1.0000
  C   C1271     1.0  0.92552  0.23920  0.59687  1.0000
  C   C1272     1.0  0.92837  0.26486  0.60585  1.0000
  C   C1273     1.0  0.90421  0.26353  0.61542  1.0000
  C   C1274     1.0  0.85862  0.24697  0.64961  1.0000
  C   C1275     1.0  0.86233  0.22640  0.66033  1.0000
  C   C1276     1.0  0.87586  0.23538  0.67692  1.0000
  C   C1277     1.0  0.88608  0.26507  0.68290  1.0000
  C   C1278     1.0  0.88235  0.28567  0.67240  1.0000
  C   C1279     1.0  0.86902  0.27682  0.65574  1.0000
  H   H1003     1.0  0.75831  0.14222  0.64805  1.0000
  H   H1004     1.0  0.80345  0.19162  0.65256  1.0000
  H   H1005     1.0  0.81050  0.20323  0.59658  1.0000
  H   H1006     1.0  0.86071  0.26770  0.59340  1.0000
  H   H1007     1.0  0.84710  0.30386  0.58003  1.0000
  H   H1008     1.0  0.71677  0.13004  0.51662  1.0000
  C   C1280     1.0  0.65692  0.15611  0.52316  1.0000
  H   H1009     1.0  0.80750  0.26308  0.63849  1.0000
  H   H1010     1.0  0.85367  0.18954  0.60732  1.0000
  H   H1011     1.0  0.89626  0.19241  0.59033  1.0000
  H   H1012     1.0  0.94384  0.24063  0.58887  1.0000
  H   H1013     1.0  0.94903  0.28605  0.60494  1.0000
  H   H1014     1.0  0.90657  0.28383  0.62196  1.0000
  H   H1015     1.0  0.85551  0.20363  0.65571  1.0000
  H   H1016     1.0  0.87929  0.21965  0.68499  1.0000
  H   H1017     1.0  0.89764  0.27234  0.69548  1.0000
  H   H1018     1.0  0.89093  0.30884  0.67697  1.0000
  H   H1019     1.0  0.86787  0.29361  0.64752  1.0000
  C   C1281     1.0  0.54137  0.09904  0.48636  1.0000
  H   H1020     1.0  0.97382  0.41815  0.52161  1.0000
  H   H1021     1.0  0.67823  0.08190  0.50323  1.0000
  H   H1022     1.0  0.93808  0.41302  0.59987  1.0000
  C   C1282     1.0  0.89548  0.35705  0.62762  1.0000
  C   C1283     1.0  0.54481  0.05855  0.61932  1.0000
  C   C1284     1.0  0.94635  0.23445  0.66463  1.0000
  H   H1023     1.0  0.53929  0.18313  0.71753  1.0000
  H   H1024     1.0  0.87540  0.33533  0.62752  1.0000
  C   C1285     1.0  0.48057  0.16982  0.61040  1.0000
  P   P42       1.0  0.48268  0.08605  0.63321  1.0000
  C   C1286     1.0  0.90827  0.40584  0.51861  1.0000
  H   H1025     1.0  0.79646  0.01187  0.69635  1.0000
  H   H1026     1.0  0.90587  0.35585  0.65490  1.0000
  H   H1027     1.0  0.52066  0.11679  0.57491  1.0000
  C   C1287     1.0  0.71427  0.12750  0.50249  1.0000
  H   H1028     1.0  0.58779  0.00798  0.54609  1.0000
  C   C1288     1.0  0.92493  0.41343  0.50314  1.0000
  C   C1289     1.0  0.54048  0.99103  0.54005  1.0000
  H   H1029     1.0  0.67702  0.17571  0.52807  1.0000
  C   C1290     1.0  0.58057  0.03637  0.52788  1.0000
  H   H1030     1.0  0.58055  0.45701  0.54520  1.0000
  H   H1031     1.0  0.49708  0.03727  0.62305  1.0000
  S   S188      1.0  0.97356  0.31608  0.68691  1.0000
  H   H1032     1.0  0.49090  0.12190  0.50033  1.0000
  H   H1033     1.0  0.67367  0.15900  0.49707  1.0000
  C   C1291     1.0  0.86331  0.07216  0.69857  1.0000
  C   C1292     1.0  0.89207  0.07488  0.69646  1.0000
  C   C1293     1.0  0.91261  0.09691  0.68548  1.0000
  C   C1294     1.0  0.90446  0.11634  0.67667  1.0000
  C   C1295     1.0  0.87578  0.11407  0.67898  1.0000
  C   C1296     1.0  0.85510  0.09155  0.68979  1.0000
  P   P43       1.0  0.86493  0.13863  0.66732  1.0000
  C   C1297     1.0  0.83660  0.14216  0.68026  1.0000
  C   C1298     1.0  0.89768  0.17557  0.66578  1.0000
  C   C1299     1.0  0.91701  0.18832  0.68037  1.0000
  C   C1300     1.0  0.90404  0.19216  0.65028  1.0000
  C   C1301     1.0  0.80602  0.12734  0.67503  1.0000
  C   C1302     1.0  0.78416  0.12901  0.68551  1.0000
  C   C1303     1.0  0.79233  0.14454  0.70156  1.0000
  C   C1304     1.0  0.82248  0.15881  0.70705  1.0000
  C   C1305     1.0  0.84451  0.15756  0.69652  1.0000
  C   C1306     1.0  0.84951  0.12252  0.64593  1.0000
  C   C1307     1.0  0.85074  0.09666  0.63963  1.0000
  C   C1308     1.0  0.83713  0.08332  0.62356  1.0000
  C   C1309     1.0  0.82207  0.09554  0.61372  1.0000
  C   C1310     1.0  0.82105  0.12141  0.61978  1.0000
  C   C1311     1.0  0.83481  0.13494  0.63575  1.0000
  H   H1034     1.0  0.84748  0.05526  0.70723  1.0000
  H   H1035     1.0  0.93499  0.09916  0.68395  1.0000
  H   H1036     1.0  0.92065  0.13330  0.66823  1.0000
  H   H1037     1.0  0.83272  0.08909  0.69162  1.0000
  H   H1038     1.0  0.91362  0.17576  0.69229  1.0000
  H   H1039     1.0  0.89031  0.18291  0.63862  1.0000
  H   H1040     1.0  0.79852  0.11362  0.66319  1.0000
  H   H1041     1.0  0.76065  0.11743  0.68145  1.0000
  H   H1042     1.0  0.77514  0.14476  0.70996  1.0000
  C   C1312     1.0  0.52857  0.02022  0.51938  1.0000
  H   H1043     1.0  0.86742  0.16782  0.70150  1.0000
  H   H1044     1.0  0.86185  0.08651  0.64713  1.0000
  H   H1045     1.0  0.83796  0.06330  0.61878  1.0000
  H   H1046     1.0  0.81097  0.08486  0.60143  1.0000
  H   H1047     1.0  0.80911  0.13064  0.61216  1.0000
  H   H1048     1.0  0.83332  0.15465  0.64039  1.0000
  C   C1313     1.0  0.58881  0.48324  0.60054  1.0000
  C   C1314     1.0  0.77356  0.16228  0.60556  1.0000
  H   H1049     1.0  0.59279  0.08569  0.61630  1.0000
  C   C1315     1.0  0.89751  0.36089  0.49339  1.0000
  C   C1316     1.0  0.55934  0.04107  0.51825  1.0000
  H   H1050     1.0  0.54579  0.13323  0.63425  1.0000
  H   H1051     1.0  0.58197  0.46127  0.59448  1.0000
  C   C1317     1.0  0.48954  0.39134  0.50575  1.0000
  S   S189      1.0  0.48447  0.43797  0.57293  1.0000
  H   H1052     1.0  0.48694  0.12840  0.69263  1.0000
  C   C1318     1.0  0.62945  0.12074  0.49958  1.0000
  C   C1319     1.0  0.53770  0.44831  0.55613  1.0000
  H   H1053     1.0  0.49583  0.13226  0.66092  1.0000
  H   H1054     1.0  0.59330  0.13309  0.62616  1.0000
  C   C1320     1.0  0.90217  0.14365  0.72635  1.0000
  C   C1321     1.0  0.94737  0.41367  0.62758  1.0000
  C   C1322     1.0  0.60764  0.11401  0.52838  1.0000
  C   C1323     1.0  0.96513  0.33470  0.63579  1.0000
  H   H1055     1.0  0.95524  0.22747  0.69134  1.0000
  C   C1324     1.0  0.52874  0.08636  0.51671  1.0000
  H   H1056     1.0  0.85791  0.10491  0.72853  1.0000
  H   H1057     1.0  0.79391  0.29953  0.62473  1.0000
  H   H1058     1.0  0.50824  0.40862  0.51322  1.0000
  H   H1059     1.0  0.49179  0.35521  0.51960  1.0000
  H   H1060     1.0  0.87372  0.37044  0.53342  1.0000
  C   C1325     1.0  0.51919  0.99539  0.53035  1.0000
  H   H1061     1.0  0.62078  0.06127  0.48987  1.0000
  C   C1326     1.0  0.57114  0.01142  0.53873  1.0000
  C   C1327     1.0  0.52178  0.11170  0.48578  1.0000
  C   C1328     1.0  0.93085  0.40111  0.61207  1.0000
  C   C1329     1.0  0.48261  0.11944  0.62466  1.0000
  C   C1330     1.0  0.54554  0.45035  0.48736  1.0000
  H   H1062     1.0  0.88144  0.44123  0.56691  1.0000
  H   H1063     1.0  0.51292  0.03137  0.55843  1.0000
  C   C1331     1.0  0.92814  0.22155  0.64979  1.0000
  C   C1332     1.0  0.65509  0.14650  0.50574  1.0000
  H   H1064     1.0  0.81394  0.32024  0.59557  1.0000
  H   H1065     1.0  0.52679  0.42441  0.55287  1.0000
  H   H1066     1.0  0.82868  0.16999  0.71979  1.0000
  H   H1067     1.0  0.76452  0.15438  0.59246  1.0000
  H   H1068     1.0  0.60447  0.05174  0.52689  1.0000
  H   H1069     1.0  0.96923  0.44659  0.56611  1.0000
  H   H1070     1.0  0.89126  0.36458  0.60029  1.0000
  C   C1333     1.0  0.88619  0.37611  0.52133  1.0000
  Fe  Fe90      1.0  0.76013  0.01171  0.73235  1.0000
  H   H1071     1.0  0.50567  0.20677  0.71611  1.0000
  H   H1072     1.0  0.91237  0.42288  0.52864  1.0000
  C   C1334     1.0  0.78519  0.00586  0.68370  1.0000
  C   C1335     1.0  0.88086  0.35360  0.50876  1.0000
  C   C1336     1.0  0.49732  0.18424  0.72124  1.0000
  P   P44       1.0  0.57165  0.07178  0.50319  1.0000
  C   C1337     1.0  0.56827  0.46683  0.55190  1.0000
  C   C1338     1.0  0.48616  0.11026  0.66686  1.0000
  C   C1339     1.0  0.57195  0.08547  0.62017  1.0000
  C   C1340     1.0  0.93211  0.47375  0.50415  1.0000
  C   C1341     1.0  0.91254  0.36869  0.64299  1.0000
  H   H1073     1.0  0.58948  0.10177  0.53735  1.0000
  C   C1342     1.0  0.50587  0.11185  0.50068  1.0000
  C   C1343     1.0  0.54456  0.08579  0.50176  1.0000
  H   H1074     1.0  0.51182  0.02317  0.51186  1.0000
  C   C1344     1.0  0.57218  0.11224  0.62569  1.0000
  C   C1345     1.0  0.53602  0.48377  0.50645  1.0000
  C   C1346     1.0  0.54521  0.11223  0.63011  1.0000
  C   C1347     1.0  0.50014  0.15988  0.60356  1.0000
  C   C1348     1.0  0.48004  0.46678  0.65168  1.0000
  H   H1075     1.0  0.63440  0.14739  0.54796  1.0000
  C   C1349     1.0  0.51779  0.05842  0.62375  1.0000
  C   C1350     1.0  0.51767  0.08547  0.62865  1.0000
  H   H1076     1.0  0.79903  0.02124  0.64057  1.0000
  C   C1351     1.0  0.67817  0.02531  0.49493  1.0000
  H   H1077     1.0  0.89368  0.34336  0.48375  1.0000
  C   C1352     1.0  0.51627  0.17092  0.72203  1.0000
  C   C1353     1.0  0.95987  0.32755  0.65368  1.0000
  C   C1354     1.0  0.94125  0.47343  0.61469  1.0000
  C   C1355     1.0  0.48148  0.10819  0.68492  1.0000
  H   H1078     1.0  0.82463  0.03608  0.66959  1.0000
  C   C1356     1.0  0.50108  0.13473  0.61059  1.0000
  H   H1079     1.0  0.87247  0.48168  0.48844  1.0000
  C   C1357     1.0  0.50555  0.14188  0.72866  1.0000
  C   C1358     1.0  0.92064  0.17426  0.73079  1.0000
  H   H1080     1.0  0.92651  0.45108  0.60952  1.0000
  H   H1081     1.0  0.96303  0.35356  0.49237  1.0000
  C   C1359     1.0  0.62437  0.99503  0.49096  1.0000
  H   H1082     1.0  0.91126  0.13163  0.71869  1.0000
  C   C1360     1.0  0.69258  0.10037  0.49491  1.0000
  H   H1083     1.0  0.94848  0.33714  0.62789  1.0000
  C   C1361     1.0  0.91929  0.39072  0.49048  1.0000
  H   H1084     1.0  0.96458  0.25747  0.66441  1.0000
  H   H1085     1.0  0.54368  0.47331  0.60623  1.0000
  C   C1362     1.0  0.78680  0.01079  0.65228  1.0000
  C   C1363     1.0  0.52531  0.45963  0.49428  1.0000
  H   H1086     1.0  0.93911  0.32458  0.65937  1.0000
  C   C1364     1.0  0.73283  0.15140  0.49188  1.0000
  S   S190      1.0  0.96051  0.27223  0.72865  1.0000
  C   C1365     1.0  0.90790  0.46979  0.49320  1.0000
  C   C1366     1.0  0.49439  0.47563  0.61630  1.0000
  H   H1087     1.0  0.47933  0.18885  0.60460  1.0000
  H   H1088     1.0  0.49941  0.47872  0.60251  1.0000
  S   S191      1.0  0.96674  0.31881  0.55967  1.0000
  C   C1367     1.0  0.75675  0.98834  0.65097  1.0000
  S   S192      1.0  0.71311  0.00633  0.72981  1.0000
  H   H1089     1.0  0.62815  0.11421  0.48595  1.0000
  H   H1090     1.0  0.70194  0.99747  0.68015  1.0000
  H   H1091     1.0  0.66560  0.00342  0.69917  1.0000
  H   H1092     1.0  0.52026  0.13156  0.72932  1.0000
  Fe  Fe91      1.0  0.97029  0.34829  0.58293  1.0000
  C   C1368     1.0  0.87200  0.12852  0.73184  1.0000
  Fe  Fe92      1.0  0.97189  0.35706  0.54231  1.0000
  C   C1369     1.0  0.48029  0.36102  0.50948  1.0000
  C   C1370     1.0  0.96793  0.47987  0.62396  1.0000
  C   C1371     1.0  0.47817  0.08405  0.65664  1.0000
  H   H1093     1.0  0.60182  0.98583  0.49610  1.0000
  H   H1094     1.0  0.91798  0.22147  0.83800  1.0000
  C   C1372     1.0  0.86556  0.27272  0.96395  1.0000
  C   C1373     1.0  0.88071  0.20040  0.94925  1.0000
  Fe  Fe93      1.0  0.72535  0.03698  0.75401  1.0000
  S   S193      1.0  0.69341  0.03372  0.77635  1.0000
  S   S194      1.0  0.77085  0.03946  0.75755  1.0000
  C   C1374     1.0  0.61893  0.99425  0.97459  1.0000
  C   C1375     1.0  0.77910  0.26888  0.97195  1.0000
  Fe  Fe94      1.0  0.68760  0.06862  0.88317  1.0000
  S   S195      1.0  0.70036  0.11802  0.88588  1.0000
  S   S196      1.0  0.70523  0.05108  0.86010  1.0000
  Fe  Fe95      1.0  0.66505  0.05676  0.92208  1.0000
  S   S197      1.0  0.67777  0.10574  0.92675  1.0000
  S   S198      1.0  0.63747  0.02018  0.94217  1.0000
  Fe  Fe96      1.0  0.65648  0.10267  0.90026  1.0000
  S   S199      1.0  0.62809  0.12708  0.89729  1.0000
  Fe  Fe97      1.0  0.72030  0.11684  0.91193  1.0000
  S   S200      1.0  0.76862  0.15036  0.92024  1.0000
  S   S201      1.0  0.64206  0.05322  0.89581  1.0000
  S   S202      1.0  0.70921  0.06789  0.90914  1.0000
  Fe  Fe98      1.0  0.95584  0.34285  0.87821  1.0000
  S   S203      1.0  0.91722  0.35384  0.87812  1.0000
  C   C1376     1.0  0.48401  0.33799  0.93165  1.0000
  Fe  Fe99      1.0  0.95287  0.33522  0.91866  1.0000
  S   S204      1.0  0.91310  0.34398  0.92072  1.0000
  H   H1095     1.0  0.91137  0.25386  0.77929  1.0000
  Fe  Fe100     1.0  0.89534  0.31454  0.89641  1.0000
  S   S205      1.0  0.84594  0.28224  0.88994  1.0000
  Fe  Fe101     1.0  0.93830  0.38232  0.90236  1.0000
  S   S206      1.0  0.94632  0.42888  0.91208  1.0000
  S   S207      1.0  0.93311  0.30254  0.89559  1.0000
  C   C1377     1.0  0.57147  0.09182  0.94133  1.0000
  H   H1096     1.0  0.92034  0.25319  0.86357  1.0000
  H   H1097     1.0  0.68930  0.05053  0.96654  1.0000
  C   C1378     1.0  0.90128  0.35650  0.83485  1.0000
  C   C1379     1.0  0.94022  0.45734  0.90206  1.0000
  C   C1380     1.0  0.92485  0.45251  0.88604  1.0000
  C   C1381     1.0  0.78770  0.16937  0.96897  1.0000
  H   H1098     1.0  0.88807  0.16882  0.93326  1.0000
  H   H1099     1.0  0.94176  0.46473  0.84516  1.0000
  C   C1382     1.0  0.64290  0.01634  0.96502  1.0000
  S   S208      1.0  0.82293  0.12614  0.74940  1.0000
  H   H1100     1.0  0.86486  0.18286  0.95752  1.0000
  C   C1383     1.0  0.71300  0.29258  0.94552  1.0000
  C   C1384     1.0  0.52395  0.08143  0.89509  1.0000
  C   C1385     1.0  0.53901  0.06383  0.89419  1.0000
  C   C1386     1.0  0.57078  0.07736  0.89522  1.0000
  C   C1387     1.0  0.58794  0.10879  0.89689  1.0000
  C   C1388     1.0  0.57290  0.12639  0.89786  1.0000
  C   C1389     1.0  0.54109  0.11281  0.89711  1.0000
  H   H1101     1.0  0.58197  0.06352  0.89446  1.0000
  H   H1102     1.0  0.58592  0.15071  0.89913  1.0000
  H   H1103     1.0  0.52985  0.12664  0.89777  1.0000
  C   C1390     1.0  0.79003  0.18576  0.91024  1.0000
  C   C1391     1.0  0.82163  0.20062  0.91230  1.0000
  C   C1392     1.0  0.83922  0.22984  0.90573  1.0000
  C   C1393     1.0  0.82525  0.24476  0.89744  1.0000
  C   C1394     1.0  0.79376  0.22972  0.89513  1.0000
  C   C1395     1.0  0.77621  0.20024  0.90132  1.0000
  H   H1104     1.0  0.83257  0.18949  0.91902  1.0000
  H   H1105     1.0  0.86350  0.24101  0.90741  1.0000
  H   H1106     1.0  0.78270  0.24125  0.88899  1.0000
  H   H1107     1.0  0.75192  0.18913  0.89975  1.0000
  C   C1396     1.0  0.55457  0.46913  0.89772  1.0000
  H   H1108     1.0  0.48627  0.34094  0.91760  1.0000
  H   H1109     1.0  0.56243  0.45683  0.90597  1.0000
  H   H1110     1.0  0.85371  0.15180  0.78256  1.0000
  C   C1397     1.0  0.95118  0.32166  0.82354  1.0000
  C   C1398     1.0  0.94839  0.31480  0.80539  1.0000
  H   H1111     1.0  0.93176  0.31877  0.83085  1.0000
  H   H1112     1.0  0.92672  0.30696  0.79891  1.0000
  H   H1113     1.0  0.82238  0.09805  0.78871  1.0000
  H   H1114     1.0  0.74682  0.05276  0.83384  1.0000
  C   C1399     1.0  0.52457  0.45468  0.89135  1.0000
  C   C1400     1.0  0.92429  0.19220  0.78798  1.0000
  H   H1115     1.0  0.82160  0.19455  0.95036  1.0000
  C   C1401     1.0  0.86030  0.14395  0.74187  1.0000
  C   C1402     1.0  0.70264  0.04927  0.83667  1.0000
  C   C1403     1.0  0.67655  0.04481  0.82757  1.0000
  C   C1404     1.0  0.67446  0.04066  0.80917  1.0000
  C   C1405     1.0  0.69836  0.04092  0.79950  1.0000
  C   C1406     1.0  0.72465  0.04577  0.80856  1.0000
  C   C1407     1.0  0.72666  0.04975  0.82699  1.0000
  H   H1116     1.0  0.65757  0.04354  0.83476  1.0000
  H   H1117     1.0  0.65392  0.03671  0.80240  1.0000
  H   H1118     1.0  0.74317  0.04583  0.80143  1.0000
  C   C1408     1.0  0.85954  0.16657  0.80973  1.0000
  C   C1409     1.0  0.77820  0.23453  0.94914  1.0000
  H   H1119     1.0  0.80811  0.08136  0.81928  1.0000
  H   H1120     1.0  0.52603  0.03956  0.89257  1.0000
  C   C1410     1.0  0.78912  0.25528  0.81634  1.0000
  C   C1411     1.0  0.79649  0.27256  0.83183  1.0000
  C   C1412     1.0  0.79076  0.25833  0.84798  1.0000
  C   C1413     1.0  0.77725  0.22683  0.84861  1.0000
  C   C1414     1.0  0.76942  0.20921  0.83316  1.0000
  C   C1415     1.0  0.77571  0.22371  0.81696  1.0000
  P   P45       1.0  0.75239  0.16846  0.83450  1.0000
  C   C1416     1.0  0.77408  0.15894  0.84982  1.0000
  C   C1417     1.0  0.71381  0.15255  0.84194  1.0000
  C   C1418     1.0  0.70422  0.16938  0.85256  1.0000
  C   C1419     1.0  0.67436  0.15653  0.85825  1.0000
  C   C1420     1.0  0.65389  0.12684  0.85344  1.0000
  C   C1421     1.0  0.66321  0.10989  0.84295  1.0000
  C   C1422     1.0  0.69301  0.12259  0.83727  1.0000
  C   C1423     1.0  0.76050  0.13106  0.85820  1.0000
  C   C1424     1.0  0.77607  0.12460  0.87128  1.0000
  C   C1425     1.0  0.80549  0.14587  0.87600  1.0000
  C   C1426     1.0  0.81967  0.17328  0.86726  1.0000
  C   C1427     1.0  0.80419  0.17967  0.85406  1.0000
  C   C1428     1.0  0.75042  0.15127  0.81330  1.0000
  C   C1429     1.0  0.72978  0.15089  0.80066  1.0000
  C   C1430     1.0  0.72570  0.13520  0.78479  1.0000
  C   C1431     1.0  0.74212  0.11974  0.78146  1.0000
  C   C1432     1.0  0.76285  0.12022  0.79386  1.0000
  C   C1433     1.0  0.76706  0.13590  0.80978  1.0000
  H   H1121     1.0  0.79389  0.26633  0.80381  1.0000
  H   H1122     1.0  0.80688  0.29697  0.83136  1.0000
  H   H1123     1.0  0.79716  0.27166  0.86005  1.0000
  H   H1124     1.0  0.77323  0.21602  0.86117  1.0000
  H   H1125     1.0  0.77057  0.21089  0.80480  1.0000
  H   H1126     1.0  0.71966  0.19209  0.85679  1.0000
  H   H1127     1.0  0.66706  0.16910  0.86684  1.0000
  H   H1128     1.0  0.63099  0.11675  0.85823  1.0000
  H   H1129     1.0  0.64746  0.08668  0.83950  1.0000
  H   H1130     1.0  0.69985  0.10875  0.82946  1.0000
  H   H1131     1.0  0.73757  0.11450  0.85498  1.0000
  H   H1132     1.0  0.76488  0.10334  0.87809  1.0000
  H   H1133     1.0  0.81702  0.14125  0.88663  1.0000
  H   H1134     1.0  0.84238  0.18993  0.87104  1.0000
  H   H1135     1.0  0.81558  0.20109  0.84756  1.0000
  H   H1136     1.0  0.71614  0.16193  0.80331  1.0000
  H   H1137     1.0  0.70918  0.13420  0.77525  1.0000
  H   H1138     1.0  0.73822  0.10669  0.76944  1.0000
  H   H1139     1.0  0.77484  0.10751  0.79123  1.0000
  H   H1140     1.0  0.78253  0.13518  0.81942  1.0000
  H   H1141     1.0  0.92523  0.42604  0.95307  1.0000
  C   C1434     1.0  0.77296  0.28555  0.95949  1.0000
  H   H1142     1.0  0.91659  0.43094  0.87927  1.0000
  C   C1435     1.0  0.85316  0.31941  0.95390  1.0000
  H   H1143     1.0  0.48668  0.02220  0.91842  1.0000
  C   C1436     1.0  0.82260  0.10504  0.81665  1.0000
  S   S209      1.0  0.50063  0.41626  0.89688  1.0000
  C   C1437     1.0  0.59942  0.09555  0.94721  1.0000
  C   C1438     1.0  0.84861  0.14501  0.79602  1.0000
  C   C1439     1.0  0.86620  0.24312  0.82462  1.0000
  C   C1440     1.0  0.83725  0.20126  0.78215  1.0000
  H   H1144     1.0  0.69203  0.98697  0.84862  1.0000
  H   H1145     1.0  0.94412  0.25679  0.81197  1.0000
  C   C1441     1.0  0.95817  0.48111  0.83655  1.0000
  C   C1442     1.0  0.77241  0.25134  0.93668  1.0000
  C   C1443     1.0  0.76882  0.27642  0.94180  1.0000
  H   H1146     1.0  0.57865  0.00038  0.88856  1.0000
  P   P46       1.0  0.76178  0.29843  0.92568  1.0000
  C   C1444     1.0  0.79798  0.33032  0.92133  1.0000
  C   C1445     1.0  0.74359  0.27589  0.90630  1.0000
  C   C1446     1.0  0.74968  0.28893  0.88969  1.0000
  C   C1447     1.0  0.73459  0.27163  0.87484  1.0000
  C   C1448     1.0  0.71290  0.24142  0.87650  1.0000
  C   C1449     1.0  0.70627  0.22841  0.89301  1.0000
  C   C1450     1.0  0.72130  0.24565  0.90787  1.0000
  C   C1451     1.0  0.80850  0.35727  0.93125  1.0000
  C   C1452     1.0  0.83709  0.38147  0.92819  1.0000
  C   C1453     1.0  0.85556  0.37872  0.91548  1.0000
  C   C1454     1.0  0.84543  0.35177  0.90584  1.0000
  C   C1455     1.0  0.81684  0.32765  0.90880  1.0000
  C   C1456     1.0  0.73525  0.31032  0.93360  1.0000
  C   C1457     1.0  0.82614  0.20910  0.76734  1.0000
  H   H1147     1.0  0.52920  0.37273  0.93732  1.0000
  H   H1148     1.0  0.92218  0.43331  0.81340  1.0000
  C   C1458     1.0  0.71397  0.34492  0.93253  1.0000
  C   C1459     1.0  0.73522  0.33624  0.92688  1.0000
  C   C1460     1.0  0.91012  0.25313  0.94188  1.0000
  C   C1461     1.0  0.92060  0.21258  0.79924  1.0000
  H   H1149     1.0  0.85319  0.27151  0.83987  1.0000
  H   H1150     1.0  0.77073  0.24467  0.92308  1.0000
  C   C1462     1.0  0.91982  0.47558  0.87889  1.0000
  H   H1151     1.0  0.76572  0.31253  0.88817  1.0000
  H   H1152     1.0  0.73936  0.28179  0.86205  1.0000
  H   H1153     1.0  0.70080  0.22824  0.86503  1.0000
  H   H1154     1.0  0.68915  0.20502  0.89436  1.0000
  H   H1155     1.0  0.71529  0.23534  0.92058  1.0000
  H   H1156     1.0  0.79480  0.35960  0.94140  1.0000
  H   H1157     1.0  0.84509  0.40238  0.93571  1.0000
  H   H1158     1.0  0.87782  0.39739  0.91318  1.0000
  H   H1159     1.0  0.85988  0.34942  0.89616  1.0000
  H   H1160     1.0  0.80958  0.30673  0.90146  1.0000
  H   H1161     1.0  0.92290  0.21304  0.74453  1.0000
  H   H1162     1.0  0.52586  0.06079  0.93464  1.0000
  S   S210      1.0  0.48389  0.06305  0.89318  1.0000
  Fe  Fe102     1.0  0.78746  0.07976  0.74012  1.0000
  H   H1163     1.0  0.75141  0.34960  0.91714  1.0000
  C   C1463     1.0  0.60256  0.07040  0.95203  1.0000
  C   C1464     1.0  0.90375  0.23233  0.83820  1.0000
  C   C1465     1.0  0.91572  0.21469  0.92525  1.0000
  H   H1164     1.0  0.71175  0.27179  0.95032  1.0000
  C   C1466     1.0  0.55291  0.99948  0.91114  1.0000
  C   C1467     1.0  0.51475  0.47099  0.88076  1.0000
  H   H1165     1.0  0.58134  0.02228  0.95374  1.0000
  H   H1166     1.0  0.83716  0.23878  0.74536  1.0000
  H   H1167     1.0  0.77227  0.15399  0.95909  1.0000
  C   C1468     1.0  0.93077  0.38015  0.83656  1.0000
  H   H1168     1.0  0.90749  0.47152  0.86664  1.0000
  C   C1469     1.0  0.86799  0.29488  0.97621  1.0000
  C   C1470     1.0  0.86729  0.26058  0.83931  1.0000
  H   H1169     1.0  0.90517  0.17196  0.78304  1.0000
  H   H1170     1.0  0.85101  0.24073  0.81390  1.0000
  C   C1471     1.0  0.83629  0.21198  0.97676  1.0000
  P   P47       1.0  0.87239  0.24193  0.97029  1.0000
  C   C1472     1.0  0.78147  0.24323  0.96678  1.0000
  H   H1171     1.0  0.85663  0.34245  0.82450  1.0000
  C   C1473     1.0  0.88749  0.24123  0.77618  1.0000
  C   C1474     1.0  0.90497  0.25004  0.85277  1.0000
  C   C1475     1.0  0.86815  0.21694  0.78648  1.0000
  C   C1476     1.0  0.94617  0.23966  0.80424  1.0000
  C   C1477     1.0  0.85155  0.15694  0.82699  1.0000
  H   H1172     1.0  0.94152  0.26257  0.92096  1.0000
  C   C1478     1.0  0.84950  0.29670  0.94187  1.0000
  C   C1479     1.0  0.88819  0.23085  0.95224  1.0000
  C   C1480     1.0  0.87938  0.36079  0.82581  1.0000
  H   H1173     1.0  0.87018  0.39187  0.81100  1.0000
  C   C1481     1.0  0.94301  0.43431  0.96298  1.0000
  C   C1482     1.0  0.85553  0.27340  0.94690  1.0000
  H   H1174     1.0  0.95839  0.39194  0.80130  1.0000
  C   C1483     1.0  0.84567  0.23298  0.75697  1.0000
  H   H1175     1.0  0.89165  0.26760  0.75344  1.0000
  H   H1176     1.0  0.62442  0.07306  0.95610  1.0000
  H   H1177     1.0  0.85936  0.17285  0.83787  1.0000
  H   H1178     1.0  0.95552  0.18275  0.77337  1.0000
  C   C1484     1.0  0.69229  0.32752  0.94469  1.0000
  H   H1179     1.0  0.95585  0.36418  0.96069  1.0000
  H   H1180     1.0  0.52630  0.00217  0.97807  1.0000
  C   C1485     1.0  0.48292  0.99800  0.94233  1.0000
  C   C1486     1.0  0.92394  0.24508  0.92852  1.0000
  P   P48       1.0  0.51956  0.99954  0.94021  1.0000
  C   C1487     1.0  0.50821  0.35593  0.94278  1.0000
  C   C1488     1.0  0.88460  0.22900  0.82391  1.0000
  H   H1181     1.0  0.84234  0.29722  0.92853  1.0000
  C   C1489     1.0  0.97405  0.36397  0.96823  1.0000
  C   C1490     1.0  0.50533  0.35202  0.96086  1.0000
  C   C1491     1.0  0.87629  0.24915  0.76146  1.0000
  H   H1182     1.0  0.85245  0.25593  0.93747  1.0000
  H   H1183     1.0  0.94769  0.37622  0.84324  1.0000
  H   H1184     1.0  0.52432  0.36553  0.96947  1.0000
  H   H1185     1.0  0.78034  0.21485  0.94499  1.0000
  C   C1492     1.0  0.90882  0.18961  0.74079  1.0000
  C   C1493     1.0  0.91651  0.41225  0.81983  1.0000
  H   H1186     1.0  0.84905  0.33777  0.94985  1.0000
  H   H1187     1.0  0.78608  0.23025  0.97642  1.0000
  C   C1494     1.0  0.93621  0.42773  0.98059  1.0000
  C   C1495     1.0  0.67057  0.03360  0.97365  1.0000
  P   P49       1.0  0.88315  0.20616  0.80503  1.0000
  C   C1496     1.0  0.83061  0.11439  0.79948  1.0000
  H   H1188     1.0  0.82180  0.18260  0.78995  1.0000
  H   H1189     1.0  0.82657  0.11910  0.84371  1.0000
  H   H1190     1.0  0.89550  0.33478  0.84051  1.0000
  C   C1497     1.0  0.88702  0.38863  0.81825  1.0000
  C   C1498     1.0  0.89410  0.19235  0.93561  1.0000
  H   H1191     1.0  0.88768  0.27783  0.86463  1.0000
  C   C1499     1.0  0.97297  0.45140  0.95797  1.0000
  C   C1500     1.0  0.81590  0.19226  0.96408  1.0000
  C   C1501     1.0  0.83302  0.12632  0.83040  1.0000
  C   C1502     1.0  0.69173  0.30130  0.95112  1.0000
  H   H1192     1.0  0.80248  0.19622  0.76374  1.0000
  H   H1193     1.0  0.56925  0.11122  0.93706  1.0000
  C   C1503     1.0  0.88670  0.26410  0.85334  1.0000
  H   H1194     1.0  0.61884  0.11783  0.94753  1.0000
  C   C1504     1.0  0.57788  0.04148  0.95073  1.0000
  C   C1505     1.0  0.86220  0.31839  0.97112  1.0000
  C   C1506     1.0  0.54673  0.06291  0.93996  1.0000
  C   C1507     1.0  0.54970  0.03740  0.94461  1.0000
  C   C1508     1.0  0.87880  0.17448  0.74630  1.0000
  S   S211      1.0  0.97746  0.32710  0.94168  1.0000
  H   H1195     1.0  0.79902  0.99631  0.76219  1.0000
  C   C1509     1.0  0.95299  0.19826  0.78239  1.0000
  S   S212      1.0  0.96832  0.30910  0.77265  1.0000
  C   C1510     1.0  0.93844  0.40840  0.82938  1.0000
  H   H1196     1.0  0.71409  0.36501  0.92735  1.0000
  H   H1197     1.0  0.91708  0.27685  0.94435  1.0000
  H   H1198     1.0  0.74154  0.98930  0.84317  1.0000
  C   C1511     1.0  0.97326  0.31760  0.79562  1.0000
  H   H1199     1.0  0.86494  0.33592  0.98049  1.0000
  H   H1200     1.0  0.49178  0.46029  0.87578  1.0000
  C   C1512     1.0  0.49512  0.42378  0.96993  1.0000
  C   C1513     1.0  0.97487  0.24548  0.79879  1.0000
  H   H1201     1.0  0.86987  0.18649  0.75404  1.0000
  H   H1202     1.0  0.92702  0.29938  0.97756  1.0000
  H   H1203     1.0  0.92654  0.20856  0.91489  1.0000
  P   P50       1.0  0.97714  0.43781  0.83007  1.0000
  H   H1204     1.0  0.57299  0.01337  0.91889  1.0000
  H   H1205     1.0  0.77144  0.30551  0.96365  1.0000
  S   S213      1.0  0.74238  0.07823  0.73747  1.0000
  H   H1206     1.0  0.49821  0.40975  0.96008  1.0000
  C   C1514     1.0  0.55628  0.99207  0.89389  1.0000
  H   H1207     1.0  0.97784  0.45623  0.94425  1.0000
  H   H1208     1.0  0.57123  0.48420  0.97703  1.0000
  C   C1515     1.0  0.52399  0.98926  0.91809  1.0000
  H   H1209     1.0  0.67456  0.28751  0.96030  1.0000
  H   H1210     1.0  0.67568  0.33415  0.94895  1.0000
  C   C1516     1.0  0.48147  0.08748  0.97987  1.0000
  C   C1517     1.0  0.95072  0.48552  0.91072  1.0000
  C   C1518     1.0  0.48205  0.06080  0.97509  1.0000
  H   H1211     1.0  0.47810  0.05308  0.96155  1.0000
  C   C1519     1.0  0.49607  0.59840  0.10918  1.0000
  H   H1212     1.0  0.75162  0.69599  0.21281  1.0000
  H   H1213     1.0  0.64126  0.60922  0.99187  1.0000
  H   H1214     1.0  0.65078  0.80875  0.08946  1.0000
  Fe  Fe103     1.0  0.69329  0.73444  0.21082  1.0000
  S   S214      1.0  0.66174  0.70855  0.18733  1.0000
  S   S215      1.0  0.73476  0.77959  0.20970  1.0000
  Fe  Fe104     1.0  0.62726  0.69220  0.07897  1.0000
  S   S216      1.0  0.58861  0.70310  0.07722  1.0000
  S   S217      1.0  0.66043  0.70761  0.10289  1.0000
  Fe  Fe105     1.0  0.61995  0.67273  0.03873  1.0000
  S   S218      1.0  0.58176  0.68378  0.03532  1.0000
  S   S219      1.0  0.63251  0.64846  0.01655  1.0000
  Fe  Fe106     1.0  0.60895  0.72570  0.05199  1.0000
  S   S220      1.0  0.62222  0.77466  0.04488  1.0000
  Fe  Fe107     1.0  0.56469  0.65988  0.06087  1.0000
  S   S221      1.0  0.51364  0.62827  0.06175  1.0000
  S   S222      1.0  0.64848  0.71616  0.05392  1.0000
  S   S223      1.0  0.60200  0.64737  0.06405  1.0000
  H   H1215     1.0  0.57612  0.60658  0.99658  1.0000
  S   S224      1.0  0.59072  0.93993  0.09123  1.0000
  Fe  Fe108     1.0  0.63062  0.97465  0.04747  1.0000
  S   S225      1.0  0.58131  0.94069  0.04837  1.0000
  Fe  Fe109     1.0  0.58022  0.96733  0.07192  1.0000
  H   H1216     1.0  0.75153  0.96684  0.19364  1.0000
  Fe  Fe110     1.0  0.59557  0.91552  0.06759  1.0000
  S   S226      1.0  0.57299  0.86448  0.07143  1.0000
  S   S227      1.0  0.64493  0.94721  0.06498  1.0000
  C   C1520     1.0  0.96036  0.70541  0.12755  1.0000
  H   H1217     1.0  0.67980  0.87234  0.02402  1.0000
  C   C1521     1.0  0.63995  0.96380  0.19395  1.0000
  P   P51       1.0  0.94507  0.74920  0.13997  1.0000
  C   C1522     1.0  0.53607  0.97416  0.16912  1.0000
  C   C1523     1.0  0.60926  0.79927  0.05395  1.0000
  C   C1524     1.0  0.58180  0.78856  0.06262  1.0000
  C   C1525     1.0  0.57125  0.80888  0.06809  1.0000
  C   C1526     1.0  0.58803  0.84007  0.06505  1.0000
  C   C1527     1.0  0.61597  0.85088  0.05692  1.0000
  C   C1528     1.0  0.62645  0.83054  0.05145  1.0000
  H   H1218     1.0  0.56829  0.76456  0.06463  1.0000
  H   H1219     1.0  0.54967  0.80027  0.07442  1.0000
  H   H1220     1.0  0.62933  0.87481  0.05466  1.0000
  H   H1221     1.0  0.64796  0.83900  0.04514  1.0000
  H   H1222     1.0  0.67583  0.79494  0.06618  1.0000
  C   C1529     1.0  0.50114  0.88510  0.13363  1.0000
  H   H1223     1.0  0.48092  0.53240  0.99250  1.0000
  C   C1530     1.0  0.59368  0.87984  0.02093  1.0000
  C   C1531     1.0  0.56387  0.93975  0.17928  1.0000
  H   H1224     1.0  0.86973  0.80898  0.23037  1.0000
  S   S228      1.0  0.67386  0.98178  0.11073  1.0000
  C   C1532     1.0  0.96884  0.60090  0.05181  1.0000
  C   C1533     1.0  0.66145  0.71059  0.16387  1.0000
  C   C1534     1.0  0.63458  0.69216  0.15444  1.0000
  C   C1535     1.0  0.63352  0.69165  0.13590  1.0000
  C   C1536     1.0  0.65956  0.70914  0.12639  1.0000
  C   C1537     1.0  0.68640  0.72776  0.13584  1.0000
  C   C1538     1.0  0.68721  0.72897  0.15438  1.0000
  H   H1225     1.0  0.61443  0.67784  0.16154  1.0000
  H   H1226     1.0  0.61275  0.67699  0.12898  1.0000
  H   H1227     1.0  0.70682  0.74113  0.12876  1.0000
  H   H1228     1.0  0.70793  0.74354  0.16135  1.0000
  H   H1229     1.0  0.72421  0.95617  0.05278  1.0000
  C   C1539     1.0  0.48115  0.94349  0.13613  1.0000
  C   C1540     1.0  0.55095  0.82415  0.00670  1.0000
  Fe  Fe111     1.0  0.63963  0.97277  0.08812  1.0000
  C   C1541     1.0  0.59204  0.87740  0.16114  1.0000
  H   H1230     1.0  0.95398  0.61752  0.03002  1.0000
  H   H1231     1.0  0.69953  0.67634  0.16514  1.0000
  C   C1542     1.0  0.96437  0.60388  0.03406  1.0000
  H   H1232     1.0  0.50311  0.92089  0.06914  1.0000
  H   H1233     1.0  0.89648  0.81486  0.13483  1.0000
  H   H1234     1.0  0.64138  0.96906  0.18025  1.0000
  C   C1543     1.0  0.52123  0.91350  0.10728  1.0000
  H   H1235     1.0  0.70438  0.66438  0.19594  1.0000
  S   S229      1.0  0.67207  0.75075  0.23117  1.0000
  C   C1544     1.0  0.51393  0.91283  0.12499  1.0000
  S   S230      1.0  0.78507  0.97386  0.22551  1.0000
  C   C1545     1.0  0.53493  0.95130  0.15784  1.0000
  H   H1236     1.0  0.65956  0.94517  0.01271  1.0000
  C   C1546     1.0  0.64979  0.86224  0.19605  1.0000
  H   H1237     1.0  0.54583  0.50737  0.00444  1.0000
  Fe  Fe112     1.0  0.71446  0.79485  0.23123  1.0000
  H   H1238     1.0  0.94633  0.69701  0.19399  1.0000
  C   C1547     1.0  0.50570  0.85986  0.10744  1.0000
  C   C1548     1.0  0.70842  0.94230  0.04261  1.0000
  C   C1549     1.0  0.75569  0.88326  0.22619  1.0000
  C   C1550     1.0  0.54280  0.83813  0.01999  1.0000
  H   H1239     1.0  0.89103  0.67298  0.19793  1.0000
  C   C1551     1.0  0.70340  0.91279  0.03943  1.0000
  H   H1240     1.0  0.58514  0.85854  0.16981  1.0000
  C   C1552     1.0  0.49202  0.58851  0.06456  1.0000
  C   C1553     1.0  0.55036  0.97923  0.18552  1.0000
  S   S231      1.0  0.54610  0.98510  0.07454  1.0000
  C   C1554     1.0  0.59387  0.83353  0.21238  1.0000
  C   C1555     1.0  0.57370  0.98434  0.12147  1.0000
  H   H1241     1.0  0.81195  0.84783  0.20482  1.0000
  C   C1556     1.0  0.58043  0.83800  0.00048  1.0000
  C   C1557     1.0  0.63015  0.87490  0.19510  1.0000
  H   H1242     1.0  0.85968  0.73542  0.10166  1.0000
  C   C1558     1.0  0.56429  0.57266  0.02686  1.0000
  C   C1559     1.0  0.51351  0.51793  0.01734  1.0000
  H   H1243     1.0  0.71674  0.98472  0.13688  1.0000
  H   H1244     1.0  0.58693  0.87012  0.20312  1.0000
  H   H1245     1.0  0.96172  0.61201  0.06155  1.0000
  C   C1560     1.0  0.58412  0.89689  0.13383  1.0000
  C   C1561     1.0  0.73348  0.95370  0.18436  1.0000
  C   C1562     1.0  0.74028  0.94883  0.16733  1.0000
  C   C1563     1.0  0.71701  0.93198  0.15535  1.0000
  C   C1564     1.0  0.68691  0.92013  0.16039  1.0000
  H   H1246     1.0  0.58621  0.82694  0.99005  1.0000
  H   H1247     1.0  0.51687  0.61561  0.10372  1.0000
  H   H1248     1.0  0.58020  0.96737  0.12507  1.0000
  H   H1249     1.0  0.66926  0.90701  0.15093  1.0000
  C   C1565     1.0  0.74975  0.70068  0.19919  1.0000
  C   C1566     1.0  0.74442  0.71396  0.16437  1.0000
  C   C1567     1.0  0.77129  0.73181  0.17379  1.0000
  C   C1568     1.0  0.77340  0.72546  0.19140  1.0000
  P   P52       1.0  0.80092  0.76536  0.16436  1.0000
  C   C1569     1.0  0.79364  0.79567  0.17167  1.0000
  C   C1570     1.0  0.83795  0.77199  0.17153  1.0000
  C   C1571     1.0  0.84264  0.74833  0.17786  1.0000
  C   C1572     1.0  0.87095  0.75428  0.18452  1.0000
  C   C1573     1.0  0.89494  0.78359  0.18446  1.0000
  C   C1574     1.0  0.89081  0.80704  0.17751  1.0000
  C   C1575     1.0  0.86246  0.80126  0.17099  1.0000
  C   C1576     1.0  0.77267  0.80171  0.16264  1.0000
  C   C1577     1.0  0.76716  0.82529  0.16826  1.0000
  C   C1578     1.0  0.78167  0.84228  0.18329  1.0000
  C   C1579     1.0  0.80159  0.83553  0.19277  1.0000
  C   C1580     1.0  0.80740  0.81219  0.18707  1.0000
  C   C1581     1.0  0.80015  0.76196  0.14078  1.0000
  C   C1582     1.0  0.80601  0.78687  0.13028  1.0000
  C   C1583     1.0  0.80303  0.78340  0.11207  1.0000
  C   C1584     1.0  0.79501  0.75527  0.10419  1.0000
  C   C1585     1.0  0.79062  0.73076  0.11450  1.0000
  C   C1586     1.0  0.79347  0.73414  0.13272  1.0000
  H   H1250     1.0  0.74128  0.71940  0.15112  1.0000
  H   H1251     1.0  0.79311  0.73999  0.19922  1.0000
  H   H1252     1.0  0.82437  0.72545  0.17819  1.0000
  H   H1253     1.0  0.87411  0.73639  0.19038  1.0000
  H   H1254     1.0  0.91650  0.78813  0.19022  1.0000
  H   H1255     1.0  0.90939  0.82984  0.17766  1.0000
  H   H1256     1.0  0.85944  0.81978  0.16599  1.0000
  H   H1257     1.0  0.76036  0.78807  0.15136  1.0000
  H   H1258     1.0  0.75122  0.83002  0.16111  1.0000
  H   H1259     1.0  0.95367  0.50508  0.02622  1.0000
  H   H1260     1.0  0.76551  0.86825  0.22477  1.0000
  H   H1261     1.0  0.82207  0.80664  0.19497  1.0000
  H   H1262     1.0  0.81243  0.80888  0.13614  1.0000
  H   H1263     1.0  0.80672  0.80247  0.10405  1.0000
  H   H1264     1.0  0.79221  0.75244  0.09009  1.0000
  H   H1265     1.0  0.78445  0.70895  0.10839  1.0000
  H   H1266     1.0  0.78968  0.71484  0.14054  1.0000
  C   C1587     1.0  0.83203  0.76405  0.23019  1.0000
  C   C1588     1.0  0.50618  0.96487  0.07274  1.0000
  C   C1589     1.0  0.64020  0.98512  0.20601  1.0000
  H   H1267     1.0  0.49405  0.88385  0.14707  1.0000
  C   C1590     1.0  0.87608  0.74980  0.11143  1.0000
  H   H1268     1.0  0.58386  0.59377  0.03059  1.0000
  C   C1591     1.0  0.68287  0.89490  0.02637  1.0000
  C   C1592     1.0  0.61781  0.90511  0.16487  1.0000
  C   C1593     1.0  0.89733  0.74188  0.11813  1.0000
  C   C1594     1.0  0.91884  0.76054  0.13069  1.0000
  C   C1595     1.0  0.91811  0.78672  0.13682  1.0000
  C   C1596     1.0  0.60976  0.92438  0.13736  1.0000
  C   C1597     1.0  0.92750  0.72436  0.15803  1.0000
  H   H1269     1.0  0.61717  0.94244  0.12799  1.0000
  C   C1598     1.0  0.64141  0.83537  0.20498  1.0000
  H   H1270     1.0  0.71472  0.77968  0.07359  1.0000
  H   H1271     1.0  0.57150  0.89364  0.12170  1.0000
  C   C1599     1.0  0.94544  0.71942  0.17036  1.0000
  C   C1600     1.0  0.97353  0.50195  0.02737  1.0000
  C   C1601     1.0  0.89682  0.79455  0.13010  1.0000
  C   C1602     1.0  0.49584  0.57419  0.11814  1.0000
  C   C1603     1.0  0.89603  0.70988  0.15999  1.0000
  C   C1604     1.0  0.54248  0.52367  0.01215  1.0000
  H   H1272     1.0  0.76363  0.95835  0.16343  1.0000
  H   H1273     1.0  0.77692  0.86013  0.18789  1.0000
  H   H1274     1.0  0.60742  0.80040  0.22024  1.0000
  H   H1275     1.0  0.85870  0.68040  0.17591  1.0000
  H   H1276     1.0  0.97217  0.65844  0.99532  1.0000
  H   H1277     1.0  0.89686  0.72109  0.11359  1.0000
  C   C1605     1.0  0.95578  0.73017  0.12337  1.0000
  C   C1606     1.0  0.64941  0.85427  0.99248  1.0000
  C   C1607     1.0  0.64390  0.62869  0.98465  1.0000
  H   H1278     1.0  0.57543  0.96607  0.20328  1.0000
  C   C1608     1.0  0.48536  0.54053  0.07580  1.0000
  H   H1279     1.0  0.88154  0.71319  0.15073  1.0000
  C   C1609     1.0  0.97057  0.72729  0.09345  1.0000
  C   C1610     1.0  0.56411  0.96192  0.19064  1.0000
  H   H1280     1.0  0.67182  0.87326  0.19025  1.0000
  C   C1611     1.0  0.50420  0.57127  0.07211  1.0000
  H   H1281     1.0  0.95753  0.69703  0.14072  1.0000
  C   C1612     1.0  0.67073  0.89335  0.11091  1.0000
  C   C1613     1.0  0.64164  0.88904  0.10744  1.0000
  C   C1614     1.0  0.61682  0.86080  0.11006  1.0000
  C   C1615     1.0  0.62095  0.83701  0.11652  1.0000
  C   C1616     1.0  0.65010  0.84130  0.12046  1.0000
  C   C1617     1.0  0.67501  0.86944  0.11708  1.0000
  P   P53       1.0  0.65600  0.81012  0.12760  1.0000
  C   C1618     1.0  0.67508  0.81680  0.14869  1.0000
  C   C1619     1.0  0.62039  0.77648  0.13036  1.0000
  C   C1620     1.0  0.61292  0.74992  0.12055  1.0000
  C   C1621     1.0  0.58613  0.72361  0.12373  1.0000
  C   C1622     1.0  0.56666  0.72351  0.13670  1.0000
  C   C1623     1.0  0.57401  0.74975  0.14659  1.0000
  C   C1624     1.0  0.60085  0.77611  0.14351  1.0000
  C   C1625     1.0  0.67266  0.79199  0.15825  1.0000
  C   C1626     1.0  0.68613  0.79627  0.17483  1.0000
  C   C1627     1.0  0.70242  0.82539  0.18200  1.0000
  C   C1628     1.0  0.70535  0.85026  0.17254  1.0000
  C   C1629     1.0  0.69146  0.84601  0.15605  1.0000
  C   C1630     1.0  0.67662  0.80293  0.11060  1.0000
  C   C1631     1.0  0.69910  0.79480  0.11470  1.0000
  C   C1632     1.0  0.71311  0.78687  0.10135  1.0000
  C   C1633     1.0  0.70476  0.78698  0.08388  1.0000
  C   C1634     1.0  0.68272  0.79545  0.07971  1.0000
  C   C1635     1.0  0.66862  0.80334  0.09299  1.0000
  H   H1282     1.0  0.68992  0.91514  0.10842  1.0000
  H   H1283     1.0  0.63838  0.90739  0.10229  1.0000
  H   H1284     1.0  0.59438  0.85715  0.10659  1.0000
  H   H1285     1.0  0.60136  0.81517  0.11782  1.0000
  H   H1286     1.0  0.69776  0.87275  0.11890  1.0000
  H   H1287     1.0  0.62783  0.74901  0.11066  1.0000
  H   H1288     1.0  0.58075  0.70312  0.11626  1.0000
  H   H1289     1.0  0.55913  0.74953  0.15682  1.0000
  H   H1290     1.0  0.60663  0.79614  0.15151  1.0000
  H   H1291     1.0  0.66011  0.76916  0.15296  1.0000
  H   H1292     1.0  0.68381  0.77690  0.18216  1.0000
  H   H1293     1.0  0.71279  0.82862  0.19489  1.0000
  H   H1294     1.0  0.71806  0.87284  0.17818  1.0000
  H   H1295     1.0  0.69342  0.86555  0.14929  1.0000
  H   H1296     1.0  0.70514  0.79351  0.12815  1.0000
  H   H1297     1.0  0.72949  0.77935  0.10456  1.0000
  C   C1636     1.0  0.67180  0.93585  0.01996  1.0000
  H   H1298     1.0  0.52786  0.58192  0.07575  1.0000
  H   H1299     1.0  0.54606  0.70295  0.13917  1.0000
  H   H1300     1.0  0.97102  0.59379  0.00791  1.0000
  C   C1637     1.0  0.72057  0.68947  0.17229  1.0000
  C   C1638     1.0  0.73068  0.92257  0.23034  1.0000
  C   C1639     1.0  0.72324  0.68280  0.18968  1.0000
  H   H1301     1.0  0.53449  0.80243  0.00135  1.0000
  C   C1640     1.0  0.54960  0.93463  0.16289  1.0000
  C   C1641     1.0  0.70345  0.94203  0.18942  1.0000
  C   C1642     1.0  0.64773  0.80564  0.99737  1.0000
  S   S232      1.0  0.80472  0.77770  0.23092  1.0000
  P   P54       1.0  0.51849  0.94668  0.13619  1.0000
  C   C1643     1.0  0.67992  0.92552  0.17742  1.0000
  H   H1302     1.0  0.53293  0.58484  0.03895  1.0000
  H   H1303     1.0  0.60982  0.90129  0.02670  1.0000
  C   C1644     1.0  0.51738  0.88715  0.09860  1.0000
  H   H1304     1.0  0.64072  0.78568  0.00531  1.0000
  C   C1645     1.0  0.87594  0.77621  0.11735  1.0000
  C   C1646     1.0  0.69286  0.95390  0.03275  1.0000
  H   H1305     1.0  0.95816  0.76041  0.10274  1.0000
  C   C1647     1.0  0.93223  0.70059  0.18452  1.0000
  H   H1306     1.0  0.79765  0.92384  0.22226  1.0000
  C   C1648     1.0  0.63933  0.93226  0.21781  1.0000
  H   H1307     1.0  0.51660  0.57283  0.11978  1.0000
  H   H1308     1.0  0.65681  0.82587  0.20585  1.0000
  C   C1649     1.0  0.53554  0.56757  0.03161  1.0000
  H   H1309     1.0  0.49479  0.52777  0.08228  1.0000
  C   C1650     1.0  0.64410  0.67682  0.98377  1.0000
  H   H1310     1.0  0.60402  0.97208  0.99950  1.0000
  P   P55       1.0  0.64018  0.88347  0.99956  1.0000
  C   C1651     1.0  0.90104  0.68677  0.18661  1.0000
  H   H1311     1.0  0.48819  0.53655  0.03116  1.0000
  C   C1652     1.0  0.61353  0.82103  0.21316  1.0000
  H   H1312     1.0  0.53523  0.97034  0.99932  1.0000
  H   H1313     1.0  0.59012  0.55536  0.01302  1.0000
  H   H1314     1.0  0.64709  0.94944  0.15478  1.0000
  H   H1315     1.0  0.85964  0.78245  0.11209  1.0000
  H   H1316     1.0  0.55569  0.85189  0.14276  1.0000
  C   C1653     1.0  0.66667  0.90619  0.01661  1.0000
  H   H1317     1.0  0.53699  0.62313  0.99761  1.0000
  H   H1318     1.0  0.52011  0.82724  0.02506  1.0000
  C   C1654     1.0  0.88290  0.69113  0.17424  1.0000
  C   C1655     1.0  0.64023  0.82810  0.00245  1.0000
  C   C1656     1.0  0.62658  0.92842  0.15272  1.0000
  H   H1319     1.0  0.71540  0.90372  0.04710  1.0000
  C   C1657     1.0  0.96474  0.51741  0.98435  1.0000
  Fe  Fe113     1.0  0.75335  0.76257  0.23163  1.0000
  H   H1320     1.0  0.57236  0.82251  0.21887  1.0000
  C   C1658     1.0  0.60215  0.86040  0.20341  1.0000
  P   P56       1.0  0.64116  0.91027  0.18416  1.0000
  C   C1659     1.0  0.57526  0.87341  0.14571  1.0000
  H   H1321     1.0  0.69871  0.94595  0.20269  1.0000
  H   H1322     1.0  0.57524  0.92690  0.18306  1.0000
  H   H1323     1.0  0.90906  0.79215  0.22907  1.0000
  C   C1660     1.0  0.63932  0.93702  0.19969  1.0000
  Fe  Fe114     1.0  0.95643  0.75011  0.22763  1.0000
  C   C1661     1.0  0.56402  0.86610  0.02689  1.0000
  C   C1662     1.0  0.60225  0.86559  0.00787  1.0000
  C   C1663     1.0  0.53595  0.60734  0.98744  1.0000
  H   H1324     1.0  0.69137  0.93378  0.98321  1.0000
  H   H1325     1.0  0.55757  0.87675  0.03724  1.0000
  C   C1664     1.0  0.48959  0.98088  0.07407  1.0000
  H   H1326     1.0  0.64050  0.91275  0.22277  1.0000
  C   C1665     1.0  0.64059  0.65187  0.99348  1.0000
  H   H1327     1.0  0.72230  0.92851  0.14209  1.0000
  C   C1666     1.0  0.56774  0.55089  0.01698  1.0000
  H   H1328     1.0  0.52982  0.93432  0.10009  1.0000
  S   S233      1.0  0.97393  0.71599  0.23023  1.0000
  H   H1329     1.0  0.93384  0.80116  0.14679  1.0000
  H   H1330     1.0  0.95783  0.78627  0.17187  1.0000
  C   C1667     1.0  0.51026  0.54030  0.02698  1.0000
  H   H1331     1.0  0.52355  0.88788  0.08497  1.0000
  H   H1332     1.0  0.64162  0.69485  0.99020  1.0000
  C   C1668     1.0  0.88547  0.77558  0.22923  1.0000
  H   H1333     1.0  0.96973  0.73020  0.16906  1.0000
  C   C1669     1.0  0.82393  0.73321  0.22962  1.0000
  C   C1670     1.0  0.86301  0.78507  0.22994  1.0000
  H   H1334     1.0  0.55075  0.91822  0.15408  1.0000
  C   C1671     1.0  0.49067  0.93347  0.07038  1.0000
  H   H1335     1.0  0.62741  0.82503  0.01427  1.0000
  C   C1672     1.0  0.55783  0.59767  0.98702  1.0000
  H   H1336     1.0  0.50290  0.83958  0.10062  1.0000
  C   C1673     1.0  0.77383  0.91472  0.22481  1.0000
  C   C1674     1.0  0.97451  0.59049  0.02144  1.0000
  C   C1675     1.0  0.54454  0.98004  0.12487  1.0000
  C   C1676     1.0  0.96087  0.74094  0.10618  1.0000
  C   C1677     1.0  0.84636  0.72372  0.22869  1.0000
  C   C1678     1.0  0.76143  0.93449  0.22697  1.0000
  H   H1337     1.0  0.49319  0.49555  0.05012  1.0000
  C   C1679     1.0  0.63982  0.98001  0.22392  1.0000
  H   H1338     1.0  0.94533  0.72955  0.98438  1.0000
  H   H1339     1.0  0.94707  0.62746  0.22982  1.0000
  H   H1340     1.0  0.96427  0.49910  0.99184  1.0000
  H   H1341     1.0  0.53805  0.92465  0.98903  1.0000
  C   C1680     1.0  0.63912  0.95348  0.22982  1.0000
  C   C1681     1.0  0.49732  0.85876  0.12492  1.0000
  C   C1682     1.0  0.72499  0.87146  0.22968  1.0000
  H   H1342     1.0  0.69665  0.97677  0.03524  1.0000
  S   S234      1.0  0.71209  0.71615  0.23202  1.0000
  C   C1683     1.0  0.87733  0.74475  0.22854  1.0000
  H   H1343     1.0  0.72093  0.93754  0.23214  1.0000
  C   C1684     1.0  0.71252  0.89117  0.23157  1.0000
  H   H1344     1.0  0.48791  0.96967  0.03175  1.0000
  H   H1345     1.0  0.48759  0.83743  0.13163  1.0000
  S   S235      1.0  0.70133  0.83245  0.23235  1.0000
  S   S236      1.0  0.90444  0.73102  0.22680  1.0000
  C   C1685     1.0  0.53229  0.96418  0.98552  1.0000
  H   H1346     1.0  0.97419  0.67320  0.11814  1.0000
  C   C1686     1.0  0.96977  0.69167  0.11473  1.0000
  C   C1687     1.0  0.97510  0.70272  0.09774  1.0000
  H   H1347     1.0  0.83962  0.69982  0.22815  1.0000
  H   H1348     1.0  0.80037  0.71665  0.22993  1.0000
  H   H1349     1.0  0.97535  0.73616  0.08035  1.0000
  C   C1688     1.0  0.97062  0.64209  0.23299  1.0000
  H   H1350     1.0  0.47838  0.94432  0.10786  1.0000
  H   H1351     1.0  0.87225  0.50954  0.26009  1.0000
  H   H1352     1.0  0.50886  0.53553  0.38872  1.0000
  C   C1689     1.0  0.49889  0.59670  0.39885  1.0000
  H   H1353     1.0  0.66044  0.91204  0.31152  1.0000
  H   H1354     1.0  0.85835  0.54236  0.27826  1.0000
  C   C1690     1.0  0.58731  0.87912  0.44999  1.0000
  H   H1355     1.0  0.80448  0.87029  0.30903  1.0000
  C   C1691     1.0  0.68447  0.93335  0.26505  1.0000
  C   C1692     1.0  0.78698  0.96721  0.27463  1.0000
  Fe  Fe115     1.0  0.69370  0.73654  0.25243  1.0000
  S   S237      1.0  0.66037  0.71638  0.27542  1.0000
  S   S238      1.0  0.73568  0.78165  0.25315  1.0000
  Fe  Fe116     1.0  0.63003  0.69630  0.38349  1.0000
  S   S239      1.0  0.59318  0.70958  0.38583  1.0000
  S   S240      1.0  0.65952  0.70242  0.35920  1.0000
  Fe  Fe117     1.0  0.62646  0.68044  0.42347  1.0000
  S   S241      1.0  0.59004  0.69362  0.42788  1.0000
  S   S242      1.0  0.64382  0.65823  0.44381  1.0000
  Fe  Fe118     1.0  0.56947  0.66806  0.40263  1.0000
  S   S243      1.0  0.51842  0.63675  0.40176  1.0000
  Fe  Fe119     1.0  0.61664  0.73367  0.41078  1.0000
  S   S244      1.0  0.63028  0.78269  0.41866  1.0000
  S   S245      1.0  0.60472  0.65321  0.39876  1.0000
  S   S246      1.0  0.65476  0.72220  0.40794  1.0000
  C   C1693     1.0  0.59717  0.64125  0.29155  1.0000
  S   S247      1.0  0.58953  0.94594  0.37523  1.0000
  H   H1356     1.0  0.75706  0.84900  0.25959  1.0000
  S   S248      1.0  0.58546  0.94059  0.41848  1.0000
  Fe  Fe120     1.0  0.59662  0.91800  0.39598  1.0000
  S   S249      1.0  0.57599  0.86703  0.39109  1.0000
  P   P57       1.0  0.63428  0.87231  0.46544  1.0000
  Fe  Fe121     1.0  0.63941  0.97740  0.37858  1.0000
  S   S250      1.0  0.64640  0.94828  0.39849  1.0000
  H   H1357     1.0  0.64200  0.89858  0.25490  1.0000
  C   C1694     1.0  0.58374  0.82948  0.44634  1.0000
  C   C1695     1.0  0.96413  0.55631  0.47303  1.0000
  H   H1358     1.0  0.96419  0.68503  0.47407  1.0000
  C   C1696     1.0  0.61603  0.80603  0.40961  1.0000
  C   C1697     1.0  0.58981  0.79423  0.39921  1.0000
  C   C1698     1.0  0.57814  0.81329  0.39337  1.0000
  C   C1699     1.0  0.59259  0.84433  0.39779  1.0000
  C   C1700     1.0  0.61941  0.85631  0.40763  1.0000
  C   C1701     1.0  0.63097  0.83724  0.41355  1.0000
  H   H1359     1.0  0.57814  0.77032  0.39602  1.0000
  H   H1360     1.0  0.55753  0.80385  0.38561  1.0000
  H   H1361     1.0  0.63084  0.88013  0.41103  1.0000
  H   H1362     1.0  0.65149  0.84675  0.42135  1.0000
  C   C1702     1.0  0.64337  0.65693  0.46725  1.0000
  H   H1363     1.0  0.51759  0.49178  0.30973  1.0000
  H   H1364     1.0  0.52185  0.64725  0.44075  1.0000
  H   H1365     1.0  0.62752  0.68952  0.47135  1.0000
  H   H1366     1.0  0.65943  0.62394  0.46795  1.0000
  H   H1367     1.0  0.64344  0.60972  0.29694  1.0000
  C   C1703     1.0  0.76132  0.62406  0.47059  1.0000
  H   H1368     1.0  0.94751  0.72962  0.27791  1.0000
  C   C1704     1.0  0.66171  0.71575  0.29893  1.0000
  C   C1705     1.0  0.63564  0.71004  0.30846  1.0000
  C   C1706     1.0  0.63462  0.70657  0.32686  1.0000
  C   C1707     1.0  0.65972  0.70857  0.33608  1.0000
  C   C1708     1.0  0.68595  0.71487  0.32661  1.0000
  C   C1709     1.0  0.68705  0.71861  0.30825  1.0000
  H   H1369     1.0  0.61589  0.70788  0.30151  1.0000
  H   H1370     1.0  0.61424  0.70175  0.33382  1.0000
  H   H1371     1.0  0.70555  0.71650  0.33351  1.0000
  H   H1372     1.0  0.70723  0.72279  0.30125  1.0000
  H   H1373     1.0  0.79492  0.67103  0.46901  1.0000
  C   C1710     1.0  0.66565  0.89369  0.45124  1.0000
  H   H1374     1.0  0.96839  0.61477  0.45819  1.0000
  C   C1711     1.0  0.66175  0.90353  0.26284  1.0000
  C   C1712     1.0  0.55933  0.56354  0.46319  1.0000
  C   C1713     1.0  0.75933  0.89759  0.29193  1.0000
  C   C1714     1.0  0.87969  0.55205  0.27154  1.0000
  H   H1375     1.0  0.97335  0.49709  0.44053  1.0000
  H   H1376     1.0  0.49200  0.65604  0.35130  1.0000
  C   C1715     1.0  0.63832  0.90795  0.33608  1.0000
  C   C1716     1.0  0.62063  0.63442  0.28838  1.0000
  H   H1377     1.0  0.80207  0.66868  0.43718  1.0000
  H   H1378     1.0  0.64328  0.82353  0.44961  1.0000
  H   H1379     1.0  0.50746  0.93444  0.38483  1.0000
  H   H1380     1.0  0.58372  0.51071  0.45952  1.0000
  H   H1381     1.0  0.52566  0.83301  0.42524  1.0000
  H   H1382     1.0  0.77587  0.95071  0.26418  1.0000
  H   H1383     1.0  0.63979  0.93020  0.33554  1.0000
  H   H1384     1.0  0.63852  0.98268  0.29591  1.0000
  H   H1385     1.0  0.54914  0.72467  0.36679  1.0000
  H   H1386     1.0  0.89611  0.62641  0.25149  1.0000
  H   H1387     1.0  0.89348  0.59697  0.28155  1.0000
  H   H1388     1.0  0.73872  0.88543  0.26600  1.0000
  H   H1389     1.0  0.53710  0.94604  0.45641  1.0000
  H   H1390     1.0  0.96755  0.65679  0.33166  1.0000
  C   C1717     1.0  0.63483  0.67479  0.47759  1.0000
  C   C1718     1.0  0.96116  0.64732  0.30388  1.0000
  H   H1391     1.0  0.57794  0.60526  0.44861  1.0000
  C   C1719     1.0  0.93474  0.65844  0.26681  1.0000
  H   H1392     1.0  0.77320  0.62048  0.42055  1.0000
  C   C1720     1.0  0.66611  0.91746  0.44150  1.0000
  C   C1721     1.0  0.68306  0.80743  0.29902  1.0000
  C   C1722     1.0  0.66150  0.78771  0.28700  1.0000
  C   C1723     1.0  0.63082  0.77567  0.29063  1.0000
  C   C1724     1.0  0.62159  0.78335  0.30630  1.0000
  C   C1725     1.0  0.64314  0.80300  0.31851  1.0000
  C   C1726     1.0  0.67394  0.81506  0.31472  1.0000
  P   P58       1.0  0.63198  0.81314  0.33894  1.0000
  C   C1727     1.0  0.59294  0.78746  0.34342  1.0000
  C   C1728     1.0  0.65505  0.80997  0.35625  1.0000
  C   C1729     1.0  0.66430  0.78753  0.35506  1.0000
  C   C1730     1.0  0.68086  0.78382  0.36871  1.0000
  C   C1731     1.0  0.68823  0.80229  0.38367  1.0000
  C   C1732     1.0  0.67936  0.82478  0.38491  1.0000
  C   C1733     1.0  0.66268  0.82853  0.37134  1.0000
  C   C1734     1.0  0.58513  0.76239  0.35413  1.0000
  C   C1735     1.0  0.55494  0.74358  0.35822  1.0000
  C   C1736     1.0  0.53234  0.74957  0.35162  1.0000
  C   C1737     1.0  0.53986  0.77423  0.34077  1.0000
  C   C1738     1.0  0.57000  0.79305  0.33662  1.0000
  C   C1739     1.0  0.63548  0.85073  0.33795  1.0000
  C   C1740     1.0  0.64877  0.86926  0.32355  1.0000
  C   C1741     1.0  0.65003  0.89769  0.32259  1.0000
  C   C1742     1.0  0.62474  0.88955  0.35032  1.0000
  C   C1743     1.0  0.62298  0.86094  0.35117  1.0000
  H   H1393     1.0  0.70683  0.81633  0.29625  1.0000
  H   H1394     1.0  0.66858  0.78127  0.27498  1.0000
  H   H1395     1.0  0.61430  0.75988  0.28139  1.0000
  H   H1396     1.0  0.59774  0.77355  0.30892  1.0000
  H   H1397     1.0  0.69087  0.82991  0.32406  1.0000
  H   H1398     1.0  0.65810  0.77225  0.34383  1.0000
  H   H1399     1.0  0.68740  0.76609  0.36785  1.0000
  H   H1400     1.0  0.70015  0.79868  0.39449  1.0000
  H   H1401     1.0  0.68439  0.83850  0.39675  1.0000
  H   H1402     1.0  0.65534  0.84546  0.37297  1.0000
  H   H1403     1.0  0.60226  0.75754  0.35961  1.0000
  H   H1404     1.0  0.70164  0.91900  0.36578  1.0000
  C   C1744     1.0  0.57838  0.58420  0.45094  1.0000
  H   H1405     1.0  0.52238  0.77909  0.33581  1.0000
  H   H1406     1.0  0.57543  0.81226  0.32835  1.0000
  H   H1407     1.0  0.65805  0.86188  0.31301  1.0000
  H   H1408     1.0  0.61533  0.89736  0.36069  1.0000
  H   H1409     1.0  0.61157  0.84670  0.36209  1.0000
  C   C1745     1.0  0.97101  0.63810  0.28893  1.0000
  C   C1746     1.0  0.69116  0.93554  0.43146  1.0000
  C   C1747     1.0  0.51378  0.57989  0.39472  1.0000
  C   C1748     1.0  0.54566  0.84003  0.43340  1.0000
  H   H1410     1.0  0.55161  0.88489  0.43773  1.0000
  H   H1411     1.0  0.63208  0.97843  0.32817  1.0000
  H   H1412     1.0  0.59450  0.65724  0.28325  1.0000
  H   H1413     1.0  0.51523  0.59640  0.44643  1.0000
  H   H1414     1.0  0.50593  0.59161  0.32051  1.0000
  H   H1415     1.0  0.50789  0.52991  0.44488  1.0000
  H   H1416     1.0  0.61717  0.54740  0.43779  1.0000
  C   C1749     1.0  0.59919  0.85919  0.45316  1.0000
  C   C1750     1.0  0.90795  0.69634  0.26422  1.0000
  C   C1751     1.0  0.74543  0.59671  0.46117  1.0000
  C   C1752     1.0  0.76996  0.62144  0.43450  1.0000
  C   C1753     1.0  0.66461  0.88011  0.27087  1.0000
  C   C1754     1.0  0.89367  0.66732  0.25667  1.0000
  C   C1755     1.0  0.73321  0.92309  0.31895  1.0000
  C   C1756     1.0  0.62491  0.61458  0.29928  1.0000
  C   C1757     1.0  0.94935  0.68794  0.27378  1.0000
  C   C1758     1.0  0.72812  0.89878  0.32979  1.0000
  C   C1759     1.0  0.69016  0.88656  0.28110  1.0000
  C   C1760     1.0  0.65277  0.63790  0.47574  1.0000
  C   C1761     1.0  0.92715  0.59575  0.26455  1.0000
  H   H1417     1.0  0.95706  0.58595  0.24856  1.0000
  C   C1762     1.0  0.53602  0.53671  0.32100  1.0000
  C   C1763     1.0  0.53246  0.55537  0.33359  1.0000
  C   C1764     1.0  0.50744  0.54291  0.34466  1.0000
  P   P59       1.0  0.56020  0.59464  0.33641  1.0000
  C   C1765     1.0  0.58256  0.60898  0.31697  1.0000
  C   C1766     1.0  0.53956  0.61524  0.34079  1.0000
  C   C1767     1.0  0.54871  0.63721  0.35422  1.0000
  C   C1768     1.0  0.53156  0.65188  0.35785  1.0000
  C   C1769     1.0  0.89954  0.58299  0.27329  1.0000
  H   H1418     1.0  0.68242  0.95160  0.25888  1.0000
  C   C1770     1.0  0.51332  0.60849  0.33095  1.0000
  C   C1771     1.0  0.60592  0.60183  0.31348  1.0000
  H   H1419     1.0  0.54608  0.79747  0.43075  1.0000
  C   C1772     1.0  0.64137  0.82026  0.46361  1.0000
  C   C1773     1.0  0.57831  0.62881  0.30584  1.0000
  C   C1774     1.0  0.58539  0.59845  0.35441  1.0000
  C   C1775     1.0  0.57613  0.57722  0.36786  1.0000
  C   C1776     1.0  0.59617  0.57994  0.38142  1.0000
  C   C1777     1.0  0.62565  0.60371  0.38159  1.0000
  C   C1778     1.0  0.63495  0.62502  0.36835  1.0000
  C   C1779     1.0  0.61485  0.62262  0.35492  1.0000
  H   H1420     1.0  0.68877  0.88214  0.23424  1.0000
  C   C1780     1.0  0.91539  0.54596  0.25301  1.0000
  H   H1421     1.0  0.55509  0.54562  0.31235  1.0000
  H   H1422     1.0  0.71335  0.87877  0.35502  1.0000
  H   H1423     1.0  0.56873  0.64276  0.36208  1.0000
  H   H1424     1.0  0.53806  0.66813  0.36856  1.0000
  H   H1425     1.0  0.78970  0.84082  0.28105  1.0000
  P   P60       1.0  0.53306  0.57092  0.47565  1.0000
  C   C1781     1.0  0.71007  0.93990  0.27526  1.0000
  H   H1426     1.0  0.61001  0.58704  0.32203  1.0000
  C   C1782     1.0  0.90707  0.64843  0.25786  1.0000
  H   H1427     1.0  0.56115  0.63552  0.30834  1.0000
  H   H1428     1.0  0.55347  0.55866  0.36804  1.0000
  H   H1429     1.0  0.58872  0.56382  0.39190  1.0000
  H   H1430     1.0  0.64106  0.60619  0.39224  1.0000
  H   H1431     1.0  0.65753  0.64402  0.36871  1.0000
  H   H1432     1.0  0.62239  0.63983  0.34502  1.0000
  H   H1433     1.0  0.73733  0.57438  0.43592  1.0000
  H   H1434     1.0  0.61387  0.59450  0.43250  1.0000
  H   H1435     1.0  0.53805  0.59132  0.39347  1.0000
  H   H1436     1.0  0.73222  0.88060  0.32521  1.0000
  C   C1783     1.0  0.78207  0.64988  0.46187  1.0000
  H   H1437     1.0  0.78605  0.90712  0.31575  1.0000
  C   C1784     1.0  0.56127  0.53693  0.46613  1.0000
  C   C1785     1.0  0.51920  0.95218  0.45777  1.0000
  C   C1786     1.0  0.55717  0.82004  0.43649  1.0000
  H   H1438     1.0  0.64755  0.92269  0.44196  1.0000
  C   C1787     1.0  0.52699  0.61422  0.45612  1.0000
  C   C1788     1.0  0.59895  0.57817  0.44174  1.0000
  C   C1789     1.0  0.77892  0.89393  0.30369  1.0000
  Fe  Fe122     1.0  0.58242  0.97111  0.39805  1.0000
  H   H1439     1.0  0.72998  0.57626  0.46764  1.0000
  H   H1440     1.0  0.50439  0.55675  0.35465  1.0000
  C   C1790     1.0  0.50161  0.95080  0.44321  1.0000
  H   H1441     1.0  0.73500  0.94376  0.42288  1.0000
  H   H1442     1.0  0.94326  0.65348  0.30302  1.0000
  C   C1791     1.0  0.58202  0.53106  0.45699  1.0000
  C   C1792     1.0  0.53872  0.60865  0.47159  1.0000
  C   C1793     1.0  0.71572  0.92976  0.43075  1.0000
  H   H1443     1.0  0.63591  0.64516  0.27769  1.0000
  H   H1444     1.0  0.64722  0.85692  0.26902  1.0000
  C   C1794     1.0  0.51476  0.50611  0.31947  1.0000
  H   H1445     1.0  0.94314  0.55296  0.46706  1.0000
  C   C1795     1.0  0.71326  0.91646  0.28317  1.0000
  C   C1796     1.0  0.53066  0.64309  0.45283  1.0000
  H   H1446     1.0  0.50904  0.73528  0.35508  1.0000
  C   C1797     1.0  0.78621  0.64860  0.44387  1.0000
  C   C1798     1.0  0.74968  0.59549  0.44316  1.0000
  H   H1447     1.0  0.89778  0.71113  0.26303  1.0000
  H   H1448     1.0  0.69204  0.87150  0.45879  1.0000
  C   C1799     1.0  0.49716  0.54827  0.39203  1.0000
  H   H1449     1.0  0.64612  0.77986  0.46172  1.0000
  C   C1800     1.0  0.71561  0.90632  0.44047  1.0000
  Fe  Fe123     1.0  0.63501  0.97316  0.41965  1.0000
  C   C1801     1.0  0.93592  0.70674  0.27264  1.0000
  C   C1802     1.0  0.60086  0.55169  0.44478  1.0000
  H   H1450     1.0  0.60903  0.97327  0.46546  1.0000
  C   C1803     1.0  0.69093  0.88866  0.45089  1.0000
  H   H1451     1.0  0.73485  0.90209  0.44013  1.0000
  C   C1804     1.0  0.49146  0.97075  0.47559  1.0000
  P   P61       1.0  0.95334  0.63525  0.26783  1.0000
  C   C1805     1.0  0.76291  0.86121  0.27203  1.0000
  H   H1452     1.0  0.70933  0.96133  0.34658  1.0000
  C   C1806     1.0  0.49000  0.49391  0.33057  1.0000
  C   C1807     1.0  0.88755  0.53355  0.26135  1.0000
  H   H1453     1.0  0.72714  0.96328  0.27696  1.0000
  C   C1808     1.0  0.49632  0.62330  0.33462  1.0000
  C   C1809     1.0  0.50538  0.64489  0.34815  1.0000
  C   C1810     1.0  0.71505  0.94411  0.34198  1.0000
  C   C1811     1.0  0.49541  0.94665  0.38859  1.0000
  H   H1454     1.0  0.59215  0.81349  0.44812  1.0000
  H   H1455     1.0  0.69165  0.95439  0.42443  1.0000
  C   C1812     1.0  0.71065  0.92019  0.35280  1.0000
  C   C1813     1.0  0.75219  0.88175  0.27583  1.0000
  H   H1456     1.0  0.69209  0.86817  0.28721  1.0000
  C   C1814     1.0  0.54631  0.66673  0.46485  1.0000
  C   C1815     1.0  0.55826  0.66148  0.48019  1.0000
  H   H1457     1.0  0.72831  0.96363  0.31665  1.0000
  H   H1458     1.0  0.68043  0.93191  0.47909  1.0000
  C   C1816     1.0  0.51082  0.97463  0.39729  1.0000
  H   H1459     1.0  0.54961  0.68922  0.46209  1.0000
  C   C1817     1.0  0.63700  0.84048  0.47463  1.0000
  C   C1818     1.0  0.72589  0.94537  0.32504  1.0000
  P   P62       1.0  0.74576  0.92446  0.29672  1.0000
  C   C1819     1.0  0.71715  0.89751  0.34670  1.0000
  H   H1460     1.0  0.87257  0.65991  0.24955  1.0000
  C   C1820     1.0  0.78959  0.87328  0.29986  1.0000
  C   C1821     1.0  0.77693  0.96086  0.29190  1.0000
  C   C1822     1.0  0.56054  0.86943  0.44029  1.0000
  H   H1461     1.0  0.54693  0.52091  0.47564  1.0000
  C   C1823     1.0  0.64311  0.79544  0.47047  1.0000
  C   C1824     1.0  0.79217  0.98255  0.30519  1.0000
  H   H1462     1.0  0.97141  0.69651  0.27982  1.0000
  C   C1825     1.0  0.78138  0.85675  0.28409  1.0000
  H   H1463     1.0  0.59876  0.90223  0.45491  1.0000
  H   H1464     1.0  0.63961  0.95010  0.24376  1.0000
  C   C1826     1.0  0.48947  0.52913  0.45250  1.0000
  C   C1827     1.0  0.51414  0.96216  0.47396  1.0000
  H   H1465     1.0  0.78566  0.97804  0.31870  1.0000
  H   H1466     1.0  0.73556  0.66157  0.47222  1.0000
  H   H1467     1.0  0.95299  0.49102  0.47024  1.0000
  C   C1828     1.0  0.49489  0.54561  0.46833  1.0000
  H   H1468     1.0  0.71718  0.69763  0.48008  1.0000
  C   C1829     1.0  0.93528  0.57690  0.25474  1.0000
  H   H1469     1.0  0.92171  0.53152  0.24537  1.0000
  H   H1470     1.0  0.50588  0.94357  0.43056  1.0000
  C   C1830     1.0  0.48637  0.51232  0.34318  1.0000
  H   H1471     1.0  0.97364  0.67950  0.44279  1.0000
  C   C1831     1.0  0.47889  0.95926  0.44481  1.0000
  C   C1832     1.0  0.97454  0.64880  0.32021  1.0000
  C   C1833     1.0  0.63414  0.89732  0.48268  1.0000
  Fe  Fe124     1.0  0.66536  0.63276  0.54754  1.0000
  S   S251      1.0  0.68298  0.60108  0.53922  1.0000
  S   S252      1.0  0.64916  0.65699  0.52799  1.0000
  Fe  Fe125     1.0  0.67077  0.62130  0.58732  1.0000
  S   S253      1.0  0.68741  0.58769  0.58078  1.0000
  S   S254      1.0  0.66328  0.62612  0.61681  1.0000
  Fe  Fe126     1.0  0.71714  0.62152  0.56132  1.0000
  S   S255      1.0  0.76863  0.64126  0.56112  1.0000
  Fe  Fe127     1.0  0.65149  0.56992  0.55946  1.0000
  S   S256      1.0  0.62215  0.51999  0.55173  1.0000
  S   S257      1.0  0.70170  0.65592  0.56847  1.0000
  S   S258      1.0  0.63271  0.60094  0.56712  1.0000
  H   H1472     1.0  0.64226  0.77143  0.49377  1.0000
  S   S259      1.0  0.93011  0.58343  0.53754  1.0000
  H   H1473     1.0  0.79406  0.60781  0.63241  1.0000
  Fe  Fe128     1.0  0.95258  0.63611  0.57966  1.0000
  S   S260      1.0  0.91816  0.58687  0.58002  1.0000
  H   H1474     1.0  0.60819  0.56867  0.67622  1.0000
  Fe  Fe129     1.0  0.94990  0.57808  0.56299  1.0000
  C   C1834     1.0  0.88732  0.74935  0.72973  1.0000
  Fe  Fe130     1.0  0.90111  0.59636  0.55466  1.0000
  S   S261      1.0  0.85036  0.57618  0.54965  1.0000
  C   C1835     1.0  0.83892  0.66913  0.51928  1.0000
  S   S262      1.0  0.93410  0.64589  0.55481  1.0000
  C   C1836     1.0  0.93387  0.74844  0.57795  1.0000
  H   H1475     1.0  0.94243  0.71117  0.57146  1.0000
  C   C1837     1.0  0.61924  0.50479  0.60108  1.0000
  Fe  Fe131     1.0  0.73103  0.74608  0.70533  1.0000
  S   S263      1.0  0.72362  0.73123  0.67605  1.0000
  S   S264      1.0  0.76229  0.79619  0.70881  1.0000
  H   H1476     1.0  0.73065  0.68722  0.53455  1.0000
  H   H1477     1.0  0.75423  0.58360  0.52104  1.0000
  C   C1838     1.0  0.63488  0.83561  0.49274  1.0000
  C   C1839     1.0  0.95209  0.52574  0.61760  1.0000
  H   H1478     1.0  0.63016  0.68846  0.50385  1.0000
  C   C1840     1.0  0.50623  0.49233  0.64653  1.0000
  H   H1479     1.0  0.80461  0.62705  0.66281  1.0000
  C   C1841     1.0  0.50290  0.55620  0.58640  1.0000
  C   C1842     1.0  0.80316  0.59701  0.70632  1.0000
  H   H1480     1.0  0.84324  0.69766  0.68153  1.0000
  C   C1843     1.0  0.66206  0.98100  0.69559  1.0000
  H   H1481     1.0  0.68652  0.92007  0.60079  1.0000
  S   S265      1.0  0.75737  0.73327  0.72441  1.0000
  H   H1482     1.0  0.49540  0.97969  0.53143  1.0000
  H   H1483     1.0  0.58670  0.90337  0.51234  1.0000
  C   C1844     1.0  0.60715  0.90927  0.50514  1.0000
  H   H1484     1.0  0.60631  0.61726  0.67632  1.0000
  H   H1485     1.0  0.79632  0.57309  0.70504  1.0000
  C   C1845     1.0  0.56636  0.49829  0.51166  1.0000
  C   C1846     1.0  0.63688  0.95569  0.70174  1.0000
  H   H1486     1.0  0.58773  0.86825  0.48964  1.0000
  H   H1487     1.0  0.60055  0.59081  0.52692  1.0000
  H   H1488     1.0  0.73914  0.65940  0.65738  1.0000
  C   C1847     1.0  0.68135  0.65545  0.63315  1.0000
  C   C1848     1.0  0.67397  0.64879  0.65090  1.0000
  C   C1849     1.0  0.68695  0.67135  0.66423  1.0000
  C   C1850     1.0  0.70741  0.70113  0.66000  1.0000
  C   C1851     1.0  0.71518  0.70762  0.64230  1.0000
  C   C1852     1.0  0.70240  0.68502  0.62900  1.0000
  H   H1489     1.0  0.65795  0.62601  0.65433  1.0000
  H   H1490     1.0  0.68076  0.66583  0.67772  1.0000
  H   H1491     1.0  0.73096  0.73048  0.63880  1.0000
  H   H1492     1.0  0.70837  0.69067  0.61548  1.0000
  C   C1853     1.0  0.79078  0.62235  0.55874  1.0000
  C   C1854     1.0  0.82239  0.63920  0.56024  1.0000
  C   C1855     1.0  0.84091  0.62530  0.55801  1.0000
  C   C1856     1.0  0.82803  0.59445  0.55377  1.0000
  C   C1857     1.0  0.79640  0.57756  0.55242  1.0000
  C   C1858     1.0  0.77785  0.59131  0.55516  1.0000
  H   H1493     1.0  0.83269  0.66323  0.56292  1.0000
  H   H1494     1.0  0.86516  0.63856  0.55921  1.0000
  H   H1495     1.0  0.78619  0.55365  0.54927  1.0000
  H   H1496     1.0  0.75359  0.57801  0.55423  1.0000
  H   H1497     1.0  0.92683  0.79047  0.72322  1.0000
  C   C1859     1.0  0.56698  0.51015  0.56515  1.0000
  C   C1860     1.0  0.59429  0.60023  0.66626  1.0000
  C   C1861     1.0  0.82023  0.65845  0.71005  1.0000
  H   H1498     1.0  0.57818  0.53378  0.56898  1.0000
  C   C1862     1.0  0.72669  0.59158  0.50198  1.0000
  H   H1499     1.0  0.96743  0.63113  0.62923  1.0000
  C   C1863     1.0  0.64642  0.65564  0.50456  1.0000
  H   H1500     1.0  0.63212  0.95259  0.51829  1.0000
  C   C1864     1.0  0.78838  0.60960  0.69649  1.0000
  H   H1501     1.0  0.67847  0.98216  0.64942  1.0000
  C   C1865     1.0  0.51799  0.54681  0.50945  1.0000
  H   H1502     1.0  0.87093  0.65251  0.52367  1.0000
  C   C1866     1.0  0.75100  0.64779  0.65218  1.0000
  C   C1867     1.0  0.83189  0.62031  0.50915  1.0000
  H   H1503     1.0  0.58576  0.57576  0.59697  1.0000
  H   H1504     1.0  0.58223  0.53051  0.65275  1.0000
  S   S266      1.0  0.69997  0.74696  0.72641  1.0000
  C   C1868     1.0  0.71563  0.62363  0.68938  1.0000
  C   C1869     1.0  0.62792  0.53337  0.60846  1.0000
  H   H1505     1.0  0.92069  0.78118  0.58728  1.0000
  C   C1870     1.0  0.52488  0.54367  0.52685  1.0000
  C   C1871     1.0  0.73253  0.87117  0.73257  1.0000
  C   C1872     1.0  0.53899  0.54805  0.60392  1.0000
  C   C1873     1.0  0.57809  0.60584  0.65318  1.0000
  C   C1874     1.0  0.52638  0.57737  0.57647  1.0000
  C   C1875     1.0  0.74045  0.97475  0.66610  1.0000
  C   C1876     1.0  0.50916  0.54187  0.60021  1.0000
  C   C1877     1.0  0.65906  0.94478  0.49917  1.0000
  C   C1878     1.0  0.69711  0.58141  0.49564  1.0000
  H   H1506     1.0  0.76988  0.59514  0.68781  1.0000
  C   C1879     1.0  0.97162  0.70037  0.63442  1.0000
  C   C1880     1.0  0.77176  0.64355  0.66266  1.0000
  H   H1507     1.0  0.58878  0.59634  0.49627  1.0000
  H   H1508     1.0  0.94900  0.76318  0.56820  1.0000
  Fe  Fe132     1.0  0.78656  0.78297  0.72889  1.0000
  H   H1509     1.0  0.57087  0.67993  0.48937  1.0000
  H   H1510     1.0  0.52158  0.58860  0.56582  1.0000
  C   C1881     1.0  0.58068  0.55135  0.65286  1.0000
  C   C1882     1.0  0.95028  0.50403  0.56651  1.0000
  C   C1883     1.0  0.60618  0.54074  0.61483  1.0000
  H   H1511     1.0  0.52430  0.50163  0.57600  1.0000
  H   H1512     1.0  0.85235  0.69031  0.52625  1.0000
  C   C1884     1.0  0.65985  0.92508  0.48631  1.0000
  H   H1513     1.0  0.79196  0.76110  0.68652  1.0000
  C   C1885     1.0  0.57066  0.58165  0.50470  1.0000
  C   C1886     1.0  0.76088  0.62270  0.62771  1.0000
  C   C1887     1.0  0.51372  0.49691  0.62876  1.0000
  C   C1888     1.0  0.83175  0.71120  0.68270  1.0000
  H   H1514     1.0  0.66202  0.62283  0.50048  1.0000
  C   C1889     1.0  0.70819  0.54952  0.52196  1.0000
  C   C1890     1.0  0.56469  0.55700  0.63954  1.0000
  C   C1891     1.0  0.72368  0.69544  0.50778  1.0000
  H   H1515     1.0  0.87327  0.75319  0.68293  1.0000
  C   C1892     1.0  0.89784  0.50329  0.51191  1.0000
  H   H1516     1.0  0.66043  0.51976  0.52117  1.0000
  C   C1893     1.0  0.80386  0.61398  0.50188  1.0000
  C   C1894     1.0  0.78775  0.62967  0.65527  1.0000
  C   C1895     1.0  0.74338  0.66045  0.71227  1.0000
  H   H1517     1.0  0.69733  0.83052  0.67987  1.0000
  C   C1896     1.0  0.80024  0.69744  0.68432  1.0000
  H   H1518     1.0  0.74654  0.98178  0.63808  1.0000
  C   C1897     1.0  0.67469  0.95464  0.60824  1.0000
  C   C1898     1.0  0.84886  0.74270  0.68327  1.0000
  C   C1899     1.0  0.74534  0.63705  0.63485  1.0000
  C   C1900     1.0  0.79756  0.64069  0.69781  1.0000
  C   C1901     1.0  0.81075  0.66276  0.51218  1.0000
  H   H1519     1.0  0.95532  0.49376  0.52876  1.0000
  C   C1902     1.0  0.59543  0.57291  0.66616  1.0000
  H   H1520     1.0  0.84776  0.78509  0.68578  1.0000
  H   H1521     1.0  0.52094  0.49091  0.51237  1.0000
  H   H1522     1.0  0.57757  0.62721  0.65314  1.0000
  C   C1903     1.0  0.71633  0.65301  0.72086  1.0000
  H   H1523     1.0  0.63182  0.85084  0.50164  1.0000
  H   H1524     1.0  0.55105  0.58929  0.62983  1.0000
  H   H1525     1.0  0.67870  0.96647  0.50166  1.0000
  C   C1904     1.0  0.72530  0.68825  0.49024  1.0000
  H   H1526     1.0  0.74939  0.65108  0.52700  1.0000
  C   C1905     1.0  0.83455  0.76068  0.68483  1.0000
  H   H1527     1.0  0.65046  0.54810  0.49774  1.0000
  H   H1528     1.0  0.82661  0.68204  0.71213  1.0000
  C   C1906     1.0  0.55616  0.58438  0.58043  1.0000
  C   C1907     1.0  0.78207  0.61900  0.63793  1.0000
  H   H1529     1.0  0.57442  0.60127  0.57295  1.0000
  P   P63       1.0  0.75670  0.62626  0.49385  1.0000
  C   C1908     1.0  0.83516  0.64593  0.71974  1.0000
  H   H1530     1.0  0.72910  0.64014  0.62686  1.0000
  H   H1531     1.0  0.78439  0.69285  0.59036  1.0000
  C   C1909     1.0  0.93020  0.71922  0.57974  1.0000
  H   H1532     1.0  0.71477  0.61161  0.67737  1.0000
  C   C1910     1.0  0.56316  0.58426  0.63992  1.0000
  C   C1911     1.0  0.73267  0.68221  0.52095  1.0000
  H   H1533     1.0  0.61352  0.56338  0.62001  1.0000
  C   C1912     1.0  0.56248  0.56979  0.59406  1.0000
  H   H1534     1.0  0.66809  0.62573  0.72027  1.0000
  H   H1535     1.0  0.94602  0.54338  0.61491  1.0000
  C   C1913     1.0  0.63639  0.67415  0.49607  1.0000
  C   C1914     1.0  0.74314  0.64634  0.69625  1.0000
  H   H1536     1.0  0.71439  0.71040  0.51122  1.0000
  H   H1537     1.0  0.92624  0.52057  0.53489  1.0000
  C   C1915     1.0  0.53642  0.49173  0.56925  1.0000
  H   H1538     1.0  0.92122  0.71265  0.68808  1.0000
  P   P64       1.0  0.77823  0.65678  0.68517  1.0000
  H   H1539     1.0  0.90473  0.49732  0.56671  1.0000
  C   C1916     1.0  0.74327  0.66176  0.51661  1.0000
  C   C1917     1.0  0.84945  0.64791  0.51779  1.0000
  H   H1540     1.0  0.63601  0.49951  0.59549  1.0000
  C   C1918     1.0  0.80312  0.74717  0.68546  1.0000
  C   C1919     1.0  0.74532  0.65464  0.49903  1.0000
  C   C1920     1.0  0.67331  0.55532  0.50233  1.0000
  C   C1921     1.0  0.78601  0.71568  0.68516  1.0000
  H   H1541     1.0  0.79058  0.59251  0.49515  1.0000
  H   H1542     1.0  0.88467  0.51472  0.51497  1.0000
  S   S267      1.0  0.96145  0.67023  0.60248  1.0000
  C   C1922     1.0  0.58325  0.49776  0.55665  1.0000
  P   P65       1.0  0.70239  0.94390  0.66432  1.0000
  C   C1923     1.0  0.68876  0.94582  0.64263  1.0000
  C   C1924     1.0  0.70192  0.90811  0.66839  1.0000
  C   C1925     1.0  0.67887  0.88109  0.66113  1.0000
  C   C1926     1.0  0.67740  0.85326  0.66512  1.0000
  C   C1927     1.0  0.69863  0.85208  0.67656  1.0000
  C   C1928     1.0  0.72138  0.87873  0.68398  1.0000
  C   C1929     1.0  0.72306  0.90660  0.67996  1.0000
  C   C1930     1.0  0.69155  0.92888  0.62863  1.0000
  C   C1931     1.0  0.68416  0.93304  0.61155  1.0000
  H   H1543     1.0  0.66974  0.95850  0.59497  1.0000
  H   H1544     1.0  0.60934  0.49921  0.50962  1.0000
  H   H1545     1.0  0.83849  0.60562  0.72527  1.0000
  C   C1932     1.0  0.67789  0.94855  0.67988  1.0000
  C   C1933     1.0  0.65261  0.92315  0.68627  1.0000
  Fe  Fe133     1.0  0.95534  0.74105  0.72902  1.0000
  C   C1934     1.0  0.91796  0.75856  0.58871  1.0000
  C   C1935     1.0  0.79278  0.63489  0.50365  1.0000
  C   C1936     1.0  0.68266  0.97752  0.68484  1.0000
  C   C1937     1.0  0.68899  0.63110  0.71367  1.0000
  C   C1938     1.0  0.97795  0.70492  0.65263  1.0000
  H   H1546     1.0  0.85336  0.66020  0.72871  1.0000
  H   H1547     1.0  0.52040  0.50838  0.65647  1.0000
  C   C1939     1.0  0.67242  0.97198  0.62202  1.0000
  H   H1548     1.0  0.66163  0.88143  0.65270  1.0000
  H   H1549     1.0  0.65957  0.83250  0.65953  1.0000
  H   H1550     1.0  0.76170  0.70569  0.68581  1.0000
  H   H1551     1.0  0.73753  0.87772  0.69311  1.0000
  H   H1552     1.0  0.74062  0.92662  0.68626  1.0000
  H   H1553     1.0  0.70041  0.91324  0.63075  1.0000
  C   C1940     1.0  0.93341  0.49627  0.61158  1.0000
  H   H1554     1.0  0.71232  0.53765  0.53251  1.0000
  H   H1555     1.0  0.50731  0.52840  0.53538  1.0000
  C   C1941     1.0  0.68865  0.61627  0.69800  1.0000
  H   H1556     1.0  0.64824  0.90051  0.68272  1.0000
  C   C1942     1.0  0.67936  0.96759  0.63913  1.0000
  C   C1943     1.0  0.57744  0.57851  0.52207  1.0000
  H   H1557     1.0  0.75661  0.61470  0.61420  1.0000
  C   C1944     1.0  0.75478  0.98420  0.68251  1.0000
  H   H1558     1.0  0.55995  0.55695  0.54654  1.0000
  H   H1559     1.0  0.48869  0.97914  0.48814  1.0000
  C   C1945     1.0  0.96812  0.67392  0.62569  1.0000
  C   C1946     1.0  0.65422  0.63716  0.49423  1.0000
  H   H1560     1.0  0.57438  0.51632  0.52146  1.0000
  C   C1947     1.0  0.84095  0.75326  0.73264  1.0000
  P   P66       1.0  0.54750  0.52981  0.62179  1.0000
  S   S268      1.0  0.95939  0.69845  0.72860  1.0000
  H   H1561     1.0  0.49506  0.53354  0.50483  1.0000
  H   H1562     1.0  0.76444  0.67760  0.71795  1.0000
  C   C1948     1.0  0.63228  0.92674  0.69720  1.0000
  C   C1949     1.0  0.82812  0.59884  0.59903  1.0000
  C   C1950     1.0  0.84924  0.58898  0.60288  1.0000
  C   C1951     1.0  0.87536  0.60774  0.61248  1.0000
  C   C1952     1.0  0.88054  0.63647  0.61801  1.0000
  C   C1953     1.0  0.85969  0.64683  0.61391  1.0000
  C   C1954     1.0  0.83340  0.62773  0.60435  1.0000
  P   P67       1.0  0.86904  0.68554  0.61934  1.0000
  C   C1955     1.0  0.83644  0.69197  0.61900  1.0000
  C   C1956     1.0  0.88616  0.69432  0.64100  1.0000
  C   C1957     1.0  0.91032  0.72291  0.64511  1.0000
  C   C1958     1.0  0.92276  0.72949  0.66207  1.0000
  C   C1959     1.0  0.91132  0.70761  0.67499  1.0000
  C   C1960     1.0  0.88736  0.67909  0.67098  1.0000
  C   C1961     1.0  0.87474  0.67248  0.65409  1.0000
  C   C1962     1.0  0.82114  0.68966  0.60313  1.0000
  C   C1963     1.0  0.79659  0.69559  0.60259  1.0000
  C   C1964     1.0  0.78783  0.70504  0.61776  1.0000
  C   C1965     1.0  0.80351  0.70836  0.63350  1.0000
  C   C1966     1.0  0.82755  0.70163  0.63417  1.0000
  C   C1967     1.0  0.89473  0.71012  0.60323  1.0000
  C   C1968     1.0  0.89843  0.73949  0.60129  1.0000
  C   C1969     1.0  0.67887  0.53937  0.51549  1.0000
  H   H1563     1.0  0.94162  0.75145  0.66518  1.0000
  H   H1564     1.0  0.61278  0.90707  0.70199  1.0000
  C   C1970     1.0  0.91069  0.70011  0.59228  1.0000
  H   H1565     1.0  0.80812  0.58447  0.59130  1.0000
  H   H1566     1.0  0.84566  0.56709  0.59806  1.0000
  H   H1567     1.0  0.89211  0.60045  0.61520  1.0000
  H   H1568     1.0  0.90148  0.65108  0.62488  1.0000
  H   H1569     1.0  0.81699  0.63489  0.60069  1.0000
  H   H1570     1.0  0.91977  0.74010  0.63530  1.0000
  H   H1571     1.0  0.83983  0.60361  0.50841  1.0000
  H   H1572     1.0  0.87877  0.66211  0.68101  1.0000
  H   H1573     1.0  0.85628  0.65025  0.65118  1.0000
  H   H1574     1.0  0.82811  0.68328  0.59112  1.0000
  H   H1575     1.0  0.76881  0.70966  0.61734  1.0000
  H   H1576     1.0  0.79673  0.71583  0.64523  1.0000
  H   H1577     1.0  0.83923  0.70434  0.64651  1.0000
  H   H1578     1.0  0.88621  0.74765  0.60950  1.0000
  C   C1971     1.0  0.92132  0.50666  0.52313  1.0000
  Fe  Fe134     1.0  0.96454  0.63259  0.53939  1.0000
  C   C1972     1.0  0.73200  0.57562  0.51533  1.0000
  H   H1579     1.0  0.90828  0.67760  0.59325  1.0000
  C   C1973     1.0  0.57545  0.51935  0.61418  1.0000
  H   H1580     1.0  0.62101  0.95862  0.71002  1.0000
  C   C1974     1.0  0.93816  0.49170  0.51942  1.0000
  C   C1975     1.0  0.91889  0.48643  0.56660  1.0000
  C   C1976     1.0  0.60782  0.88950  0.49227  1.0000
  C   C1977     1.0  0.55456  0.55959  0.53315  1.0000
  H   H1581     1.0  0.65149  0.55011  0.60900  1.0000
  H   H1582     1.0  0.80319  0.67959  0.51350  1.0000
  H   H1583     1.0  0.96008  0.61737  0.49010  1.0000
  H   H1584     1.0  0.56403  0.62931  0.49556  1.0000
  C   C1978     1.0  0.82678  0.61525  0.71779  1.0000
  H   H1585     1.0  0.63517  0.80714  0.51358  1.0000
  C   C1979     1.0  0.64085  0.79069  0.48848  1.0000
  C   C1980     1.0  0.63274  0.93694  0.50855  1.0000
  C   C1981     1.0  0.54078  0.56630  0.49830  1.0000
  S   S269      1.0  0.90512  0.72632  0.73046  1.0000
  H   H1586     1.0  0.66745  0.59924  0.69244  1.0000
  C   C1982     1.0  0.63682  0.81080  0.49961  1.0000
  C   C1983     1.0  0.97041  0.65175  0.63557  1.0000
  H   H1587     1.0  0.91305  0.49121  0.60417  1.0000
  C   C1984     1.0  0.73582  0.66772  0.48585  1.0000
  H   H1588     1.0  0.74274  0.97419  0.69439  1.0000
  S   S270      1.0  0.96827  0.54430  0.56673  1.0000
  C   C1985     1.0  0.76332  0.88886  0.72940  1.0000
  Fe  Fe135     1.0  0.73335  0.79656  0.73095  1.0000
  H   H1589     1.0  0.69237  0.59407  0.48582  1.0000
  H   H1590     1.0  0.49062  0.52614  0.60795  1.0000
  C   C1986     1.0  0.56701  0.49035  0.60718  1.0000
  H   H1591     1.0  0.53328  0.97189  0.54862  1.0000
  H   H1592     1.0  0.96976  0.71766  0.62701  1.0000
  H   H1593     1.0  0.94960  0.55764  0.49931  1.0000
  H   H1594     1.0  0.52825  0.96385  0.48516  1.0000
  C   C1987     1.0  0.96770  0.55883  0.49121  1.0000
  C   C1988     1.0  0.85639  0.78388  0.72859  1.0000
  C   C1989     1.0  0.97703  0.65645  0.65373  1.0000
  H   H1595     1.0  0.47980  0.55098  0.58347  1.0000
  S   S271      1.0  0.77527  0.97543  0.72747  1.0000
  H   H1596     1.0  0.77752  0.87811  0.72811  1.0000
  H   H1597     1.0  0.89958  0.82106  0.72233  1.0000
  C   C1990     1.0  0.96826  0.48935  0.56634  1.0000
  C   C1991     1.0  0.90294  0.78006  0.72585  1.0000
  C   C1992     1.0  0.88748  0.79729  0.72533  1.0000
  S   S272      1.0  0.83765  0.80606  0.72797  1.0000
  H   H1598     1.0  0.79969  0.93388  0.72544  1.0000
  C   C1993     1.0  0.75797  0.93524  0.72970  1.0000
  C   C1994     1.0  0.77586  0.92058  0.72791  1.0000
  C   C1995     1.0  0.55444  0.63257  0.48361  1.0000
  H   H1599     1.0  0.71640  0.66452  0.73299  1.0000
  C   C1996     1.0  0.58620  0.48868  0.50491  1.0000
  C   C1997     1.0  0.72715  0.91757  0.73278  1.0000
  C   C1998     1.0  0.67168  0.86694  0.80716  1.0000
  H   H1600     1.0  0.66440  0.87901  0.81611  1.0000
  H   H1601     1.0  0.97149  0.63965  0.79676  1.0000
  H   H1602     1.0  0.77060  0.65296  0.79994  1.0000
  C   C1999     1.0  0.62217  0.64540  0.84517  1.0000
  H   H1603     1.0  0.75775  0.68742  0.75408  1.0000
  Fe  Fe136     1.0  0.72867  0.73739  0.74589  1.0000
  S   S273      1.0  0.70798  0.69903  0.76599  1.0000
  S   S274      1.0  0.75988  0.78669  0.75157  1.0000
  H   H1604     1.0  0.94459  0.51499  0.84281  1.0000
  H   H1605     1.0  0.78568  0.57093  0.83071  1.0000
  H   H1606     1.0  0.89610  0.61930  0.78437  1.0000
  Fe  Fe137     1.0  0.68998  0.64730  0.87036  1.0000
  S   S275      1.0  0.67881  0.59887  0.86597  1.0000
  S   S276      1.0  0.71132  0.68465  0.84956  1.0000
  Fe  Fe138     1.0  0.67423  0.63604  0.91058  1.0000
  S   S277      1.0  0.66386  0.58704  0.90813  1.0000
  S   S278      1.0  0.66578  0.66059  0.93431  1.0000
  Fe  Fe139     1.0  0.70540  0.60423  0.89095  1.0000
  S   S279      1.0  0.73913  0.58583  0.88696  1.0000
  Fe  Fe140     1.0  0.63867  0.58590  0.88339  1.0000
  S   S280      1.0  0.58987  0.55256  0.87534  1.0000
  S   S281      1.0  0.71754  0.65323  0.89503  1.0000
  S   S282      1.0  0.64798  0.63441  0.88610  1.0000
  H   H1607     1.0  0.65891  0.79511  0.79805  1.0000
  S   S283      1.0  0.91712  0.60660  0.87654  1.0000
  H   H1608     1.0  0.93394  0.68971  0.87029  1.0000
  C   C2000     1.0  0.49686  0.48952  0.92545  1.0000
  S   S284      1.0  0.92675  0.58896  0.91688  1.0000
  C   C2001     1.0  0.49841  0.51061  0.93823  1.0000
  Fe  Fe141     1.0  0.93648  0.57896  0.88952  1.0000
  S   S285      1.0  0.92342  0.53204  0.87782  1.0000
  Fe  Fe142     1.0  0.91137  0.61978  0.90390  1.0000
  S   S286      1.0  0.87447  0.62985  0.91452  1.0000
  Fe  Fe143     1.0  0.97351  0.62853  0.91653  1.0000
  S   S287      1.0  0.95779  0.66001  0.90494  1.0000
  H   H1609     1.0  0.71641  0.87697  0.77183  1.0000
  C   C2002     1.0  0.93031  0.50378  0.88753  1.0000
  C   C2003     1.0  0.79718  0.53804  0.84077  1.0000
  C   C2004     1.0  0.75818  0.96380  0.77428  1.0000
  H   H1610     1.0  0.51693  0.49284  0.91853  1.0000
  C   C2005     1.0  0.70098  0.94080  0.80981  1.0000
  C   C2006     1.0  0.59957  0.50491  0.95499  1.0000
  C   C2007     1.0  0.72570  0.95868  0.82086  1.0000
  C   C2008     1.0  0.76360  0.92834  0.79331  1.0000
  C   C2009     1.0  0.77706  0.59916  0.89446  1.0000
  C   C2010     1.0  0.79004  0.62118  0.90772  1.0000
  C   C2011     1.0  0.81971  0.63002  0.91375  1.0000
  C   C2012     1.0  0.83710  0.61758  0.90634  1.0000
  C   C2013     1.0  0.82437  0.59603  0.89280  1.0000
  C   C2014     1.0  0.79443  0.58665  0.88706  1.0000
  H   H1611     1.0  0.77697  0.63089  0.91361  1.0000
  H   H1612     1.0  0.82928  0.64666  0.92425  1.0000
  H   H1613     1.0  0.83740  0.58626  0.88695  1.0000
  H   H1614     1.0  0.78463  0.56949  0.87685  1.0000
  C   C2015     1.0  0.65529  0.65590  0.95703  1.0000
  C   C2016     1.0  0.65103  0.63057  0.96662  1.0000
  C   C2017     1.0  0.65149  0.67882  0.96579  1.0000
  H   H1615     1.0  0.65378  0.61266  0.96023  1.0000
  H   H1616     1.0  0.65459  0.69852  0.95864  1.0000
  H   H1617     1.0  0.59744  0.98064  0.96808  1.0000
  H   H1618     1.0  0.83094  0.97648  0.77557  1.0000
  H   H1619     1.0  0.80639  0.83836  0.78551  1.0000
  H   H1620     1.0  0.51417  0.53904  0.90588  1.0000
  C   C2018     1.0  0.82894  0.81471  0.77471  1.0000
  H   H1621     1.0  0.52721  0.51318  0.86779  1.0000
  C   C2019     1.0  0.90120  0.68561  0.79946  1.0000
  H   H1622     1.0  0.67351  0.87739  0.96937  1.0000
  H   H1623     1.0  0.85934  0.59951  0.80823  1.0000
  C   C2020     1.0  0.60566  0.66112  0.84797  1.0000
  C   C2021     1.0  0.90670  0.66562  0.78910  1.0000
  C   C2022     1.0  0.67289  0.95176  0.96412  1.0000
  H   H1624     1.0  0.65351  0.92592  0.80478  1.0000
  H   H1625     1.0  0.52313  0.94255  0.93608  1.0000
  H   H1626     1.0  0.95416  0.53025  0.91026  1.0000
  H   H1627     1.0  0.81476  0.50990  0.85163  1.0000
  H   H1628     1.0  0.74457  0.97245  0.76795  1.0000
  C   C2023     1.0  0.71069  0.69541  0.78919  1.0000
  C   C2024     1.0  0.72947  0.71969  0.80023  1.0000
  C   C2025     1.0  0.72928  0.71590  0.81857  1.0000
  C   C2026     1.0  0.71075  0.68776  0.82621  1.0000
  C   C2027     1.0  0.69244  0.66338  0.81515  1.0000
  C   C2028     1.0  0.69244  0.66722  0.79683  1.0000
  H   H1629     1.0  0.74367  0.74152  0.79467  1.0000
  H   H1630     1.0  0.74355  0.73499  0.82693  1.0000
  H   H1631     1.0  0.67804  0.64159  0.82070  1.0000
  H   H1632     1.0  0.67780  0.64822  0.78852  1.0000
  C   C2029     1.0  0.75116  0.63268  0.82440  1.0000
  H   H1633     1.0  0.87718  0.69042  0.82135  1.0000
  H   H1634     1.0  0.63299  0.93521  0.73719  1.0000
  H   H1635     1.0  0.91345  0.70967  0.79709  1.0000
  H   H1636     1.0  0.53566  0.57325  0.88132  1.0000
  H   H1637     1.0  0.77396  0.64832  0.74855  1.0000
  C   C2030     1.0  0.64912  0.70277  0.90197  1.0000
  C   C2031     1.0  0.75546  0.62086  0.83997  1.0000
  H   H1638     1.0  0.83411  0.82685  0.76252  1.0000
  H   H1639     1.0  0.69466  0.97001  0.96064  1.0000
  C   C2032     1.0  0.81336  0.82123  0.78769  1.0000
  C   C2033     1.0  0.57501  0.49840  0.96580  1.0000
  H   H1640     1.0  0.81862  0.65218  0.80557  1.0000
  C   C2034     1.0  0.60104  0.73650  0.86552  1.0000
  C   C2035     1.0  0.66850  0.81942  0.79708  1.0000
  C   C2036     1.0  0.94898  0.53361  0.95828  1.0000
  H   H1641     1.0  0.73774  0.61196  0.84959  1.0000
  C   C2037     1.0  0.80350  0.56744  0.83646  1.0000
  C   C2038     1.0  0.52540  0.94873  0.94984  1.0000
  H   H1642     1.0  0.56513  0.57318  0.84557  1.0000
  C   C2039     1.0  0.57428  0.64475  0.85007  1.0000
  C   C2040     1.0  0.67283  0.93923  0.81322  1.0000
  H   H1643     1.0  0.56107  0.65610  0.85297  1.0000
  C   C2041     1.0  0.66668  0.90257  0.76125  1.0000
  H   H1644     1.0  0.64395  0.82387  0.81891  1.0000
  C   C2042     1.0  0.50206  0.96360  0.89039  1.0000
  C   C2043     1.0  0.80715  0.96624  0.77853  1.0000
  C   C2044     1.0  0.79440  0.94172  0.78973  1.0000
  H   H1645     1.0  0.75418  0.90959  0.80219  1.0000
  C   C2045     1.0  0.56510  0.51525  0.88233  1.0000
  C   C2046     1.0  0.64869  0.90578  0.74827  1.0000
  C   C2047     1.0  0.94528  0.68238  0.95203  1.0000
  C   C2048     1.0  0.61853  0.92634  0.96090  1.0000
  S   S288      1.0  0.71534  0.83100  0.73497  1.0000
  Fe  Fe144     1.0  0.96429  0.64521  0.87791  1.0000
  H   H1646     1.0  0.68643  0.83746  0.96048  1.0000
  P   P68       1.0  0.70556  0.92208  0.79052  1.0000
  C   C2049     1.0  0.64716  0.93278  0.74708  1.0000
  C   C2050     1.0  0.64261  0.90817  0.98190  1.0000
  H   H1647     1.0  0.93564  0.48726  0.96404  1.0000
  C   C2051     1.0  0.71457  0.88580  0.73412  1.0000
  H   H1648     1.0  0.62317  0.52787  0.93188  1.0000
  H   H1649     1.0  0.48234  0.94993  0.88230  1.0000
  C   C2052     1.0  0.93434  0.69382  0.96529  1.0000
  C   C2053     1.0  0.88064  0.67465  0.81312  1.0000
  C   C2054     1.0  0.92430  0.77134  0.77386  1.0000
  C   C2055     1.0  0.94406  0.79381  0.78545  1.0000
  C   C2056     1.0  0.93271  0.80240  0.79987  1.0000
  C   C2057     1.0  0.90163  0.78818  0.80281  1.0000
  C   C2058     1.0  0.88171  0.76472  0.79160  1.0000
  C   C2059     1.0  0.89328  0.75703  0.77681  1.0000
  P   P69       1.0  0.84160  0.74691  0.79563  1.0000
  C   C2060     1.0  0.83253  0.73068  0.81713  1.0000
  C   C2061     1.0  0.83052  0.77606  0.79287  1.0000
  C   C2062     1.0  0.81535  0.78315  0.80604  1.0000
  C   C2063     1.0  0.80660  0.80549  0.80336  1.0000
  C   C2064     1.0  0.83737  0.79213  0.77722  1.0000
  C   C2065     1.0  0.80230  0.71596  0.82233  1.0000
  C   C2066     1.0  0.79482  0.70406  0.83908  1.0000
  C   C2067     1.0  0.81733  0.70596  0.85062  1.0000
  C   C2068     1.0  0.84739  0.71978  0.84540  1.0000
  C   C2069     1.0  0.85501  0.73202  0.82871  1.0000
  C   C2070     1.0  0.82039  0.71602  0.78043  1.0000
  C   C2071     1.0  0.82885  0.69328  0.77775  1.0000
  C   C2072     1.0  0.81234  0.66909  0.76617  1.0000
  C   C2073     1.0  0.78683  0.66705  0.75751  1.0000
  C   C2074     1.0  0.77778  0.68912  0.76051  1.0000
  C   C2075     1.0  0.79441  0.71349  0.77192  1.0000
  H   H1650     1.0  0.93290  0.76518  0.76239  1.0000
  H   H1651     1.0  0.93024  0.66126  0.94534  1.0000
  H   H1652     1.0  0.94798  0.82026  0.80867  1.0000
  H   H1653     1.0  0.89308  0.79541  0.81387  1.0000
  H   H1654     1.0  0.87864  0.74042  0.76730  1.0000
  H   H1655     1.0  0.81014  0.77165  0.81837  1.0000
  C   C2076     1.0  0.69438  0.97367  0.83800  1.0000
  H   H1656     1.0  0.84907  0.78712  0.76687  1.0000
  H   H1657     1.0  0.78446  0.71382  0.81345  1.0000
  H   H1658     1.0  0.77146  0.69300  0.84308  1.0000
  H   H1659     1.0  0.81131  0.69648  0.86356  1.0000
  H   H1660     1.0  0.86482  0.72099  0.85431  1.0000
  H   H1661     1.0  0.87837  0.74217  0.82497  1.0000
  H   H1662     1.0  0.84844  0.69445  0.78446  1.0000
  H   H1663     1.0  0.81938  0.65199  0.76389  1.0000
  H   H1664     1.0  0.78666  0.73009  0.77407  1.0000
  P   P70       1.0  0.62559  0.70174  0.85053  1.0000
  C   C2077     1.0  0.64828  0.71892  0.83161  1.0000
  C   C2078     1.0  0.59979  0.71737  0.85159  1.0000
  C   C2079     1.0  0.66935  0.74978  0.83215  1.0000
  C   C2080     1.0  0.68609  0.76365  0.81733  1.0000
  C   C2081     1.0  0.68125  0.74704  0.80174  1.0000
  C   C2082     1.0  0.65978  0.71654  0.80098  1.0000
  C   C2083     1.0  0.64342  0.70245  0.81584  1.0000
  C   C2084     1.0  0.64743  0.70887  0.87053  1.0000
  C   C2085     1.0  0.67897  0.72157  0.87022  1.0000
  C   C2086     1.0  0.69540  0.72475  0.88565  1.0000
  C   C2087     1.0  0.68051  0.71546  0.90152  1.0000
  C   C2088     1.0  0.63257  0.69909  0.88651  1.0000
  H   H1665     1.0  0.64650  0.65754  0.84412  1.0000
  H   H1666     1.0  0.67298  0.76302  0.84407  1.0000
  H   H1667     1.0  0.70288  0.78726  0.81792  1.0000
  H   H1668     1.0  0.69442  0.75754  0.79026  1.0000
  H   H1669     1.0  0.65638  0.70362  0.78891  1.0000
  H   H1670     1.0  0.62705  0.67876  0.81489  1.0000
  H   H1671     1.0  0.69098  0.72782  0.85803  1.0000
  H   H1672     1.0  0.71961  0.73339  0.88518  1.0000
  H   H1673     1.0  0.69316  0.71713  0.91342  1.0000
  C   C2089     1.0  0.96578  0.56367  0.96387  1.0000
  H   H1674     1.0  0.61747  0.74228  0.87604  1.0000
  C   C2090     1.0  0.94852  0.51051  0.96850  1.0000
  C   C2091     1.0  0.58112  0.74873  0.86590  1.0000
  H   H1675     1.0  0.82344  0.65184  0.86754  1.0000
  C   C2092     1.0  0.74518  0.93912  0.78547  1.0000
  H   H1676     1.0  0.93651  0.52831  0.94596  1.0000
  H   H1677     1.0  0.53616  0.50472  0.97041  1.0000
  C   C2093     1.0  0.78255  0.62023  0.84321  1.0000
  C   C2094     1.0  0.57911  0.71161  0.83777  1.0000
  C   C2095     1.0  0.60751  0.61383  0.84418  1.0000
  H   H1678     1.0  0.86621  0.55232  0.85655  1.0000
  C   C2096     1.0  0.66390  0.95670  0.75869  1.0000
  H   H1679     1.0  0.69544  0.82202  0.77462  1.0000
  H   H1680     1.0  0.64829  0.96565  0.94647  1.0000
  C   C2097     1.0  0.55924  0.72389  0.83818  1.0000
  C   C2098     1.0  0.51279  0.57776  0.96111  1.0000
  C   C2099     1.0  0.78911  0.97743  0.77098  1.0000
  C   C2100     1.0  0.64673  0.94933  0.95613  1.0000
  C   C2101     1.0  0.66610  0.85750  0.97728  1.0000
  H   H1681     1.0  0.63770  0.69478  0.91427  1.0000
  C   C2102     1.0  0.68380  0.92662  0.77294  1.0000
  H   H1682     1.0  0.53547  0.60050  0.85054  1.0000
  C   C2103     1.0  0.68246  0.95386  0.77143  1.0000
  C   C2104     1.0  0.53035  0.93068  0.96190  1.0000
  C   C2105     1.0  0.52731  0.98221  0.97350  1.0000
  C   C2106     1.0  0.70098  0.86578  0.78238  1.0000
  C   C2107     1.0  0.56014  0.74234  0.85228  1.0000
  C   C2108     1.0  0.66964  0.95575  0.82720  1.0000
  H   H1683     1.0  0.96627  0.64274  0.96397  1.0000
  C   C2109     1.0  0.55963  0.61314  0.84884  1.0000
  H   H1684     1.0  0.66259  0.97761  0.75779  1.0000
  H   H1685     1.0  0.87752  0.60419  0.84891  1.0000
  H   H1686     1.0  0.96629  0.58163  0.95589  1.0000
  C   C2110     1.0  0.81971  0.53261  0.84809  1.0000
  H   H1687     1.0  0.90788  0.70066  0.89453  1.0000
  H   H1688     1.0  0.96809  0.80480  0.78309  1.0000
  H   H1689     1.0  0.69537  0.97285  0.78025  1.0000
  H   H1690     1.0  0.54470  0.75182  0.85262  1.0000
  H   H1691     1.0  0.57834  0.69752  0.82670  1.0000
  H   H1692     1.0  0.78483  0.60996  0.85511  1.0000
  H   H1693     1.0  0.79449  0.81052  0.81343  1.0000
  C   C2111     1.0  0.69229  0.88223  0.79394  1.0000
  P   P71       1.0  0.53440  0.54341  0.94298  1.0000
  C   C2112     1.0  0.54791  0.56874  0.92480  1.0000
  C   C2113     1.0  0.53380  0.56669  0.96110  1.0000
  H   H1694     1.0  0.62047  0.60175  0.84252  1.0000
  C   C2114     1.0  0.89136  0.63463  0.79227  1.0000
  C   C2115     1.0  0.53387  0.93844  0.97972  1.0000
  C   C2116     1.0  0.65998  0.83564  0.80876  1.0000
  C   C2117     1.0  0.57380  0.59685  0.92716  1.0000
  C   C2118     1.0  0.58552  0.61639  0.91315  1.0000
  C   C2119     1.0  0.57160  0.60804  0.89667  1.0000
  C   C2120     1.0  0.54573  0.58024  0.89424  1.0000
  C   C2121     1.0  0.53382  0.56063  0.90824  1.0000
  C   C2122     1.0  0.56026  0.52876  0.94761  1.0000
  C   C2123     1.0  0.58472  0.53484  0.93665  1.0000
  C   C2124     1.0  0.60432  0.52302  0.94039  1.0000
  H   H1695     1.0  0.49624  0.57164  0.95060  1.0000
  H   H1696     1.0  0.60818  0.68807  0.88697  1.0000
  C   C2125     1.0  0.57626  0.59771  0.84596  1.0000
  C   C2126     1.0  0.55673  0.57729  0.97401  1.0000
  H   H1697     1.0  0.58201  0.76327  0.87676  1.0000
  H   H1698     1.0  0.90533  0.65980  0.84462  1.0000
  H   H1699     1.0  0.58553  0.60343  0.93971  1.0000
  H   H1700     1.0  0.60604  0.63756  0.91501  1.0000
  H   H1701     1.0  0.58148  0.62265  0.88566  1.0000
  C   C2127     1.0  0.72234  0.97501  0.83489  1.0000
  H   H1702     1.0  0.77469  0.51949  0.83860  1.0000
  H   H1703     1.0  0.58869  0.54840  0.92508  1.0000
  H   H1704     1.0  0.92325  0.67419  0.77879  1.0000
  H   H1705     1.0  0.96268  0.48953  0.92310  1.0000
  H   H1706     1.0  0.59832  0.92497  0.95489  1.0000
  H   H1707     1.0  0.80839  0.93301  0.79557  1.0000
  C   C2128     1.0  0.68907  0.83452  0.78392  1.0000
  H   H1708     1.0  0.59779  0.50977  0.89804  1.0000
  H   H1709     1.0  0.73016  0.63329  0.82201  1.0000
  H   H1710     1.0  0.85278  0.68225  0.89269  1.0000
  C   C2129     1.0  0.77402  0.64382  0.81202  1.0000
  C   C2130     1.0  0.80599  0.63199  0.83106  1.0000
  C   C2131     1.0  0.80137  0.64359  0.81535  1.0000
  P   P72       1.0  0.84075  0.63024  0.83517  1.0000
  C   C2132     1.0  0.86196  0.65387  0.85371  1.0000
  C   C2133     1.0  0.83235  0.59179  0.83976  1.0000
  C   C2134     1.0  0.85499  0.58597  0.84670  1.0000
  C   C2135     1.0  0.84868  0.55653  0.85091  1.0000
  C   C2136     1.0  0.84754  0.66051  0.86748  1.0000
  C   C2137     1.0  0.86421  0.67801  0.88190  1.0000
  C   C2138     1.0  0.89530  0.68848  0.88292  1.0000
  C   C2139     1.0  0.90990  0.68208  0.86933  1.0000
  C   C2140     1.0  0.89341  0.66495  0.85478  1.0000
  C   C2141     1.0  0.86532  0.64356  0.81651  1.0000
  C   C2142     1.0  0.87063  0.62355  0.80587  1.0000
  C   C2143     1.0  0.67349  0.83489  0.97219  1.0000
  H   H1711     1.0  0.54316  0.71913  0.82754  1.0000
  C   C2144     1.0  0.57469  0.49922  0.89329  1.0000
  C   C2145     1.0  0.53492  0.50103  0.87626  1.0000
  C   C2146     1.0  0.95378  0.72088  0.97397  1.0000
  H   H1712     1.0  0.64815  0.95526  0.82945  1.0000
  C   C2147     1.0  0.49858  0.97080  0.90767  1.0000
  C   C2148     1.0  0.97569  0.69789  0.94748  1.0000
  H   H1713     1.0  0.66703  0.88126  0.76202  1.0000
  H   H1714     1.0  0.49709  0.60578  0.97449  1.0000
  C   C2149     1.0  0.52390  0.97470  0.95558  1.0000
  H   H1715     1.0  0.63589  0.88726  0.73918  1.0000
  H   H1716     1.0  0.74775  0.96065  0.81852  1.0000
  H   H1717     1.0  0.59430  0.88854  0.97744  1.0000
  H   H1718     1.0  0.84442  0.71272  0.73690  1.0000
  C   C2150     1.0  0.53088  0.97433  0.88348  1.0000
  C   C2151     1.0  0.94590  0.50867  0.90349  1.0000
  H   H1719     1.0  0.53357  0.96900  0.87004  1.0000
  C   C2152     1.0  0.55530  0.51013  0.96207  1.0000
  H   H1720     1.0  0.69067  0.87235  0.73625  1.0000
  H   H1721     1.0  0.96826  0.63606  0.82918  1.0000
  H   H1722     1.0  0.61487  0.49584  0.95782  1.0000
  H   H1723     1.0  0.91082  0.68155  0.96886  1.0000
  C   C2153     1.0  0.61641  0.90580  0.97373  1.0000
  C   C2154     1.0  0.66434  0.80900  0.98224  1.0000
  H   H1724     1.0  0.71298  0.92835  0.73395  1.0000
  C   C2155     1.0  0.51347  0.59747  0.97445  1.0000
  C   C2156     1.0  0.97525  0.65762  0.82307  1.0000
  C   C2157     1.0  0.95957  0.50951  0.83516  1.0000
  H   H1725     1.0  0.57456  0.57096  0.97376  1.0000
  H   H1726     1.0  0.67016  0.79153  0.97836  1.0000
  H   H1727     1.0  0.53174  0.91080  0.95740  1.0000
  C   C2158     1.0  0.85640  0.73616  0.73328  1.0000
  C   C2159     1.0  0.67089  0.93123  0.97691  1.0000
  H   H1728     1.0  0.81720  0.74285  0.73551  1.0000
  C   C2160     1.0  0.97717  0.65977  0.80461  1.0000
