data_image0
_chemical_formula_structural       S2HFeS2C2SC2S2HS2CSCH2SFeSC2HSCHSHCHSC4FeH2SCSHCHC3HCHC6H4FeCFeCSC2H2CPC6H5PCSC6H6C2H2PCH4CHCHCSCH3C2HCHC3FeHCH2CSH4CHC2HCHCH2C3HFeCFeH2CHC2SC4PC14HC2H5CHCHCH6C2HCHC6PC3HC5HC8H5C3H18CHCH2C4HCFe2HSHC2H5CHC8HCFeHC2HCH2C4H2CHC4HCHSFeCHPHC2HCH2CHC2HC3HCH3C2HCHC9HC6HCHC3HCH3CH2CHC3H3CH2PH5C4H2CHCH2CHCH3C2H2CHCHC3SHC4FeCH2C2H2FeCSFeSHCS2FeS2FeS2FeSFeS3HCHSHC2HCHCFeSCS2CSC2SCSCHCH3CH3C4H3SHCHC7H4C6H4C6H4CHCFeCSC6H4C2HSHC2H2C4PH2CHC7HC2HC3H4C2FeH2CHCHFeH2CHCFePHCHCH5CH3C3HSH4CH3SCHCFeC5H2CHC3HC2HC4PC2PC2HC3HC2HCHC6H2C2HCHC7H5C3HSH3C3PC4HC3H2C4HCSH5CH2CHC2H2C4H4CHCPC7HC4HC2HC3SH2CH7CH2C3HSFeCH5C3HC2SC7HCHC3H10C3FeHCHCH2C4HC4HC2H2C2HC2H3CHSH5CH4CH4C3H2C3SHC3HFeH2CHSFeSH2SCHFeS2HPHC3FeS2FeS2FeSFeS3FeH2FeS2FeSFeHS2HCFeS2CS2C3HCH2C2PSC3HC7H4C6H4C3H2C6H4CHC4SCH5CHCHCH6SH2CH5CHCHSHC3HC3HC2H2FeH2CH2C9H8C10PC2H2CHC3H2C2HCH7C2H2C2H2C6PC3SC2HC7HCH2CH4C2H6CH2C3SC2SCHCH2C2SHCHC2H3CH2C4H3C5HCH5C5PC14H2C5H5CH7C2H2C6PC18H16CHCPC4H2C3H2CH2FeHCPHC2HC2FeCHCHC3HC2SH2C2HC2HCSC3HCHC8HCHSC3HCHCH2PCH4FeHC2H2CSC3HCHCHCHCHCSCH2C3H8CHC5SCSCPHC3H2FeHC2H2C2S2HFeSC2HCHFeS2Fe2S3FeCSFeCSFeCHS2FeS2FeS2FeSFeCSCFeS2FeS2FeSFeS3C3H2C6H9C6H6CH2CH3C6H4CH4C4H2C6H6C7HC8PHC9HCHC3H14CHCH3CPC5HCH4C7H2C2H5C2SHC2H2C2HCHCH4CH2C3HSC4H2C2HC2H4CSHCH2CH5CHCH2CHCH4C3H5CPHC2H4CH2CH2C6PC3HC2HC8H2CH6C3PH9C7PC2H2C8H3CPCHCH6C3HC2H4CH2CH2CHC9HC2H2CH4C5HCSCHFeCHC2HC2SH2FeC2HC2HCH2CHC3H2C3H2C7H2CHCHC4H2CHC5HC3H2CHC2H2FeHS2HC4FeS4FeCSFeCSFeSCS2FeS2FeS2FeSFeS3C4HCH3C6H4SC7H3C4HC7H4C2HPC6H2CFeC2HCHPHC3HC3PCH5CHCH2CH3PCH2CH2C11HS2FeCHCH5CH7C2HC3H4C5H2C3HFeCPHC2HC5HC2HCH3FeC2H3SC3FeH2CHCH2C2H2C8HCSC4H2CHCH5C2HCH3C2HC2FeCHC7H5CH4CHCH2PC2HCH2CH4CHC2H7C6H3CH2SHCHC3H2C8HCH2CH2C2SCH2C6HC2H4CH2CFeC3H2C2HCHCHC3HCHSH2C5HFeCHC2HCHCHSH2C2H3CHFeHS2HSCSHFeHFeSHSCSCFeSFeSFeS2FeS2FeSFeCS2FeS2FeS2FeSFeS3FeS2FeSHFeSFeS3C6H5CH2CHC2HC3H5C3H4CHCFeH4CHC2HC6H4C6H4CHCHCHPC7H8CHC2HCHCHC3HCSCHC12H2CH7C6PC15HC2H12CH4C2H2CSC6PC18H20C5H2C2FeC5HCH2CH2CH2C2HCH3C2H2CPC2HC2FeCH2CH2C3H2C3HCH5C3H3CHCHC3SC6PC18H21CH2CP2C7HCH3C2HCH2C6HCSH4PC2H4C4H3CH3PCSHC6H3C2HC2HC2H4CHC4HCH2C2HC11HC3H2FeHC2H2C4H2C2HC4HC4HCHC4H2CHCSH3C3SH2CH5CHSCS2CSCPSC2FeHCHFeSCSCPHFeSHC2FeHSCFe2H2CSC2SCSFe2C6HCH2SHC2HCHCHC2FeSHC3SC3H4C3SCHC2HCSC3HC9H4C6H4SCH2C2H3C6H4S2HFeC3HCFeH2CHCHC2HC3HC9HCHFeCH3CH2C4HFeC2H2CH3C3H2C6PC18HCH18C6PSC3HC4HCH6CHCHCH2C2H5CHCSH2CHSCHFeCHCHCHCPC7PCH8CH6C3H2C2SCH2CHCHC3H2C3HCH2CHCHC2H2C3SHC7PCHC4HC3HC2H3SHCH2CHCHC4HSH2C5HPCHSH2C3SH3CHSH2FeCHC3HCH4CPSCSFeS2FeS2FeSFeS3H3FeHSH2S3CSHSC3H3C6H2C10H4C6H4C6H5C2HC6H4C4HCH2C5H2C3H2CHCH4CHCHSCH2CPSC6H2C9HC3H2CH2FeH6C6PC18H19C6PC18H18CSHCHC3HCH2CH2CH3C2HCH2CHCHC2HSPC2PC3HC4H2C4PC3H4C11PSH4C4H9CHPCHC5H5CHCHC2H4C2FeCH3CFeCH3C2HC2HC6HFeH2C3H3C2FeHCH2CH3C6H2CH5CH2C4SH5C2FeSC2SHFeSFeS2HFeS2FeS2FeSFeS3CFeSH3FeSHSFeS2CFeSH2SHC2SFeHSHC6SCHCHSC3H2CHCPHC4HCH2CFeC6H4C6H8SC2H3SHCHCHC2HC6H4C2H2CSCH2C2H5C5SH4C4FeSC6H2CH2SCHCHC2HCH4CHCFeSCH2C4FeCSHC7HCH6CH2C6PC5HC8H7PH8C3PC15HC2H13CHCHC8H2CH2C4SH3CHCSCH4C2HC3H2C2HC7PC14HC3H11CH4C2H4CHCHC2SHC3HC2H3C3HFeC2HC4HC4H3C7PC9H2C4HC2H7CH2C2H4C2H3SH2C2H3CH2CH3FeHC2HCHCHCHC4H3C2FeHC3H2PHCH3CHFe2S2HC2H2FeCS2Fe2C2SHSCFeS2FeS2FeSFeS3FeS2FeS2FeSFeS4FeSHFeSFeS3HC6H4SC2H2C4HSC6H4CSC4H4FeH2C6H4CHC2HC2H2CHC6H6CH3CHCHC3HC2HCFeCH4C2H3CH2C2H2C2H2CSCH2C3HC8H2CSH2CHCH4C2H3C4H2C2H4CHC3HC2HCHC2S2HC3H2CHC2HFeC6PC3H2C3H2C6H5SHCH3CH5C6PC6H10CHC2PC2H2C5SC9H2C2H2CHCHCH6C6PC4SCHCHC6H3CH3SC3SH5C2H4CHCHC3HC5HC8PC18H22SC4HC2HPFeC3SC8PC18H14CH5C2HCH3CH2C2HCHCH3CHC2HCHCH3C3HCHCHFeC3H2C3HC3HCHCFeC2HCH2CH3SCHC2PC2H3C2H3CHCH2C2HC4HPH3CH2SC2HCH3FeSHC2FeS2FeSCFeSFeSCSFeS2FeS2FeSFeS3HC2HPHC3H2CHC3HCH2C6H4C7H2C9H4CHCSCHC7H2CHCH5C5H2CHC6H4C11HC2SCHCHCH4CH6C6PC15HC2H17C2H4C2H4C2H2CHCSH4C2HPFeCH4SC2H2C2HCHCHCSHC3H2C2HCHC2HPHC3HCHC2PHC4H4C2HPCH3C11HCH2C2HC2PCH7SC2HCHC7H2SC2FeC2HSCHSCH3CH3CH2C2HCHC3H7CHCH5CHC3PHC4FeCSC3FeS3HCSFeSC3HFeS2FeS2FeSFeS3FeS2FeS2FeSFeS3FeS2FeS2FeCFeHS2H2CHC4H2CHCHCH2C6HC6H4C2H2C6H7C7H4C2FeH2C6H4CHCH2C2H5CSHCHPHCHCHC4PHC3PHCHC5H2C9H2C2HCH2CHC2H7C4HC3H3C2HCSH2C2HC2H3C2HC3HCH3C3HC6PC5HC8HC3H7PHFeH6CHC8PC18H8CH11C2H5CH2C2HCH5CHSC2H2CH2C2HCHC5HCHCH2C3HCH4C5HC2HCH5C2H4CHCFeH2CSCHC2HC6H3CHSCSCH2SCHCSH3CHC5H2CH2C3H2C2HCHCHCH2CHC4H2CPHC4H2CHC3H2PC2H2CHC4H3CHCHCHCH2C2HCHCHC3H2C4HCHCH3C3HCHC3PSCHCHCHC3H2CSCFe2S2HS2HC2HFeSCHC2PFeSCHCFeS2FeS2FeSFeS3FeS2FeS2FeSFeS3FeCSFeCSC3S2H2CHCH4C2HCH2C3HC2HCH2C6H4C6H4C6H6CHCHCHC6H4C4H4C6PC18H23C2SHSHC2H3C4H2SHC4HC6HC2HSH2C3HC6HC3H3CH4CH2C2H4CH3CH3CH2CH3C2HCH2C2FeH4PCHCHCH4C9H3CSC6PC4H3C3H3CHC2HC3HC2H2C2H2C3H3C2H2CFeH2Fe2HCH2CHCHC2SC3H2C6PC6H10C3H5C3SC3H2CH4CHCSC7HCHSH2C4HCHC4H2C3HC3H2SCHCHCH2PCPC4HCH3C2H3CHCHC2HC3SCHC5H6CH2FeSHCFeSH2SFeSHFeSCFeSFeS2H2FeS2FeS2FeSFeS3HCHC2HCPC6H3SCH2CHPC7H4SHC3HCH3CH4CHC7H7C6PC8HCSH3CH5CHC2H4CH2C2H2C4FeCH3C2H5C2HC2HC2HCHC2H3FeH8C3HSC5H2C3HC7HCHS2HCH2CHCSC5HC7HCHCSC2HCH2C2H7C6PC8HC6H3CH3CH5CSC2HCHCH2CHCH3CH3C2HCFePH2CHCHCH2CH4CHC6HCH2C5HC2HC6H2C2HC2H2C2H2CHCHC2H3C2HSFeS3C3SFeSH3SFeSHCFeS2FeS2FeSFeS3FeSHFeS2FeSFeS3FeS2FeS2FeSFeS2C3H3C2H2C6H4C6H4SC2PH3CH3CHC3PCFeC6H4C3H2C3SCSH2C6H4C6H2CH3C5HC3H3CSH2CH4PCHC7H2CHC2H2C2H2C2H5SC4PC18H19CH2C3HCH2C2HPCHC7P2HCHC2PH2CH3C2H2C2SCH2CHCH2C3HC2H2CHC2HC4PC21H9CH7C2HCH2CHC2HCH3C2SCH2C3H2CH2C3HCHCH4C4H3C2HCHC2H2CH2C2HCH2CHPC4HC2HCHSCH2C2HCHC6HCHCH5C6H2C4H2CHC2H2CH2C3FeH2CHCHCSCH4CHCHC3HCHC3H2C6HC6FeH2CHC3HCSCHCH4CHC3S2HC3HCHCHCH2CHCHCH3C2FeCHC2FeCH4C2HCFeSCSHS2CHCSHSFeSHCFeS2FeS2FeSFeS3CSH2SCFeSFeSHFeHS2C2HC2HC2HCH4CSCHCHCHSHC3H5C6H6C6H4CHC6H4CH3C4H4C7H4C4PC20H17C3HPCSHC3HC5H2C2SC3H2C3H2C2FeC2HCFeC2Fe2C2HC3H4C2H2C3HCH3C2SC3HC4FeCHC6HC4PC3HCHC4HC4H2C2HCH3C3HCH8SHC2H3CH2C2HC4HC2H2C6H3CH2C2PH2CHC3H4SPHCHSHC7H5C2HC6PC18H20CH2FeHCH2CFeC5H4C3H2C2H3C3HC2H2CPH2C6PC7HC7H10C2HCH5CH2C3PCH3CFeH4CHC2HC2HPCFeC4H5SC2HC2HCHC2SHC3FeCSCHC2SHFeS2FeS2FeSFeS4H2SH2FeS2H2CHFeS2FeSHS2C2HC3H2CHC2H2C6H4C6H4C5PC3HC6H5C9H4CHCHCHC4H2C2SC3HPCHC2H2CH3C3H6C2H3C2H2C3SC2HCFeC3PC6PC4HC11FeC3H3CSC3H7CH2PH2C2HC6PC18H21C2H2C4HCH6CHCHC2HCH3CH4C2HCFeC4H2CH3C4HCHC10HC2HCH5C4HC4H2CSH3CSHSHCHFeHC3HCH2C3HCHCH2CH3C2H3SFeH3PH2CHC2H4SC2HC2SCHSCSHCHCPHC2SHCSCSH2SHSHSCHFeS3HC2FeHSHS2FeHSH2C2HC2HC2HCH3C7H4CSCHCH2CHC9H4CHC3SC2HC7HCH2C6H5FeHC3HCH2FeHCH3CHC3SC2HFeCH2C3H2CHC2FeH2CH2CH2C2PC2HCHC2HC7HC2HC2H2CHC4H2C2HC3HC3HC3HC7PC8HC5H2C2H11SCH7C6PC18H11CH8CHC3HC5H3CH5FeC2HCS2C2HCPC5H3CHCHCHC3H2C2H5CH2SH2S2FeSPH2C3H3PHCHCH4C2H2FeC6H2C3HCFeH2CHC2SCHC3HC2HPH4C2H2CSCHC2H3CHC2HC4FeC4H2C2HSHCHC2HCSHC4H2FeH3SHC2HCFeSHSCSHFeSFeS2FeS2FeSFeS3FeS2FeS2FeHS2FeS2FeS2FeSFeS3FeS2FeSHFeSFeS3C3FeH2C6H5C3HCH3C4HCH4CHCHC2HCH3C6H4C6H4CH2C4HCHC6H5C2HC7PC9H3C7SH9CH5C2HC2HCHC5HCH2C2H5C7HC2HCH2CH3C3H3CH6C2H3CH4CH2CHCPSCHCH3C2H5CHC4H2CH2CHCH4C2HCH4C2HCHC3H3CHC5HCHCH4C3PH2CHSC2H2C2HC6PC15SHC2PC2H3C2HCHC4PCHCHCHCHC4H3PC6HCH2C6H5C2H2C8HCHCH2C4HC2HC2H2SH2C2HCHC2H4C2HCHC3H2C2H3C3H2C3HC2H2C2HC3HCFeCPHCH2C3SFeS2CH2FeSCHFeS2FeS2FeSFeS3H2FeS2FeCSFeCFeS2H2C6H4C6H6C2HSC3H2C3H2CHC8H6CHCH2FeC7H5C6PC2H3CH2C2HC7H5C3HCPCHC2H7CH2CHCHCH2CHCHC2H2SCHC2SHCHSCH2C2HCHCH3CPC2H5CHCH4C2HCSC2H2CHFeC2SHC2H7C4HC5HC3PC2HC4H2C2HC6H2C2H3C2HC5H5C6PC9HC10H5CH5CH3C2HC5H2CHC2H2CPHCHC2H2CH4C2HC4HFeH2C2HC2HSPC3HFeHCSPC2HC2FeSFeS2FeS3H3PCSH2CHCFeS2FeS2FeHFeHS2FeS2FeSHFeSFeS3FeSHFeSHFe2S3C2H2SH2CHC6H4C6H10C4H3PHC2H2CHC6H4C4H2CH3C6H4CH2C3H2C2HCH2C2H2C3HFeHC3HCHCHCHCH2C3HCHC2H2C2H2CHC3PC12H11C6PC18H11CH4CHC2HPHC4HSH3C5SPH3C4H3C3SC4HCHC3SPC15H9CHCH3SCH3CH2C6H3C2HSC2HC2H4C3H3C2PC3HCHCH5CHC8PC4HCHC11HCHCH2CH2C4HCHCHC3H3C4HCHC4H4SC3HCH2C2HCHC3H5CH2CSHCHCH3C3FeHC2H2CHC2HSCH2C3HCH2CHCH2C4HFeH2C5HCHC4H4CHSH2C3H5CFeSFeS2FeSFeS2HCHPC2HSHSCHC3HSFeS2FeS2FeSFeS3FeSHFeS2FeSFeSC5PC6H4C2H2C6H4CPCH3CSCH3C2H2CH4CH2CH3C6H4C5H2C6H2C6H5CH2CH2C6H2C3H2CH3C2FeHCH2C3FeSC3HCSHCHSC3HSH2CH3CHCSCHCHCHCHC9H10C2HCHC6SHC2H2C4H2CSHC2HC2H5C6PC5HCPC10H5C2FeH2CHCH7C6PC18H19CPC11H11C2SHC4H2C6H2CSC2HCH2CH2C2H3CHC2H3C4PC3H2C8H5CH3SHC6HCH2SC3PCH2CHCHC2H2CHC2HC2HC3HCHC4HC2H3C2HC2H3FeCPC3HC2H3C2HC2HCHC2FeCHCHC2H2SHC4H3CHFeCHCPCH5C3H2CH3CSC4SH3SCH2FeSCFeC2FeCSFeS2CFeSFeSFeS2FeS2FeSFeS3FeSH3CFeS2FeSH4C2H2CH2CH2C7H4C3SH2C6H4C6H4C3SHCHC6H8CFeSC2SCHSHCHCH2C4H2C3HSH3CHC2PH2C4H4SCHSCH2C2HSC2HC3PC13HC4HC2H13CFeH2C2H3CHCHC8HC3HC2H3CH6CSHC7PC18H20CH2C2H2C2H5C10H8C4HC5FeCHCH3SHC6HC3H4C9PC18H8PHC7SH3C2HPCHC4PHC2H2CHSHCH4PCSHCH2CHCH4SHSC3FeSCSFeC2H3CHS2FeSFeSCSHC2H2C2H2C3H2C2H4SCH2C4HSC7H6C3H2C6H4PHC3HCH4CH2C7H4C2HC7HC2SCH2C3HCH2CSCH2SC2HC2HCHCHC2H2CH2CHC2FeC2HCHC4HCH2C3HPHCH3CHCH3C2H5SCPH2CH2CHCHCHCHC6HC4H3C4SCHSHC5HCHC2HCH3C6H5CH2SHC6PC18HCH5PH4SH7C2HFeH3CHCPC5HC3HC2H4C2HSCH2SFeCH3C2FeH2CHC5HFeC2H3FeC4SHC5H4C2HCHC3H2C
_chemical_formula_sum              "S768 H4608 Fe384 C5760 P192"
_cell_length_a       73.7677
_cell_length_b       73.9318
_cell_length_c       74.1806
_cell_angle_alpha    77.9238
_cell_angle_beta     77.9715
_cell_angle_gamma    78.0286

_space_group_name_H-M_alt    "P 1"
_space_group_IT_number       1

loop_
  _space_group_symop_operation_xyz
  'x, y, z'

loop_
  _atom_site_type_symbol
  _atom_site_label
  _atom_site_symmetry_multiplicity
  _atom_site_fract_x
  _atom_site_fract_y
  _atom_site_fract_z
  _atom_site_occupancy
  S   S1        1.0  0.08693  0.46252  0.25995  1.0000
  S   S2        1.0  0.99855  0.31714  0.17014  1.0000
  H   H1        1.0  0.11695  0.22866  0.03109  1.0000
  Fe  Fe1       1.0  0.08747  0.45101  0.23377  1.0000
  S   S3        1.0  0.07249  0.42583  0.23579  1.0000
  S   S4        1.0  0.11928  0.44534  0.22738  1.0000
  C   C1        1.0  0.17943  0.02026  0.22865  1.0000
  C   C2        1.0  0.03063  0.32400  0.03601  1.0000
  S   S5        1.0  0.08207  0.99600  0.20993  1.0000
  C   C3        1.0  0.01190  0.97285  0.21083  1.0000
  C   C4        1.0  0.17067  0.00615  0.22614  1.0000
  S   S6        1.0  0.14983  0.26120  0.96710  1.0000
  S   S7        1.0  0.01322  0.39704  0.20028  1.0000
  H   H2        1.0  0.18033  0.41864  0.21277  1.0000
  S   S8        1.0  0.01533  0.30895  0.25189  1.0000
  S   S9        1.0  0.01626  0.34146  0.20298  1.0000
  C   C5        1.0  0.20661  0.99696  0.23606  1.0000
  S   S10       1.0  0.00226  0.04042  0.24344  1.0000
  C   C6        1.0  0.09024  0.37328  0.16637  1.0000
  H   H3        1.0  0.01389  0.44144  0.24046  1.0000
  H   H4        1.0  0.09164  0.01122  0.23940  1.0000
  S   S11       1.0  0.01066  0.22125  0.06778  1.0000
  Fe  Fe2       1.0  0.21609  0.36692  0.98789  1.0000
  S   S12       1.0  0.20785  0.38382  0.01206  1.0000
  C   C7        1.0  0.18180  0.97460  0.96863  1.0000
  C   C8        1.0  0.02714  0.06061  0.27571  1.0000
  H   H5        1.0  0.00436  0.15210  0.14925  1.0000
  S   S13       1.0  0.20579  0.33918  0.99311  1.0000
  C   C9        1.0  0.22630  0.23878  0.00383  1.0000
  H   H6        1.0  0.16177  0.14820  0.99554  1.0000
  S   S14       1.0  0.11108  0.23161  0.98706  1.0000
  H   H7        1.0  0.17747  0.27149  0.00855  1.0000
  C   C10       1.0  0.16145  0.10869  0.96494  1.0000
  H   H8        1.0  0.02286  0.12520  0.21639  1.0000
  S   S15       1.0  0.05627  0.25132  0.98733  1.0000
  C   C11       1.0  0.12691  0.34495  0.01257  1.0000
  C   C12       1.0  0.01273  0.13801  0.21721  1.0000
  C   C13       1.0  0.98819  0.14381  0.11641  1.0000
  C   C14       1.0  0.01162  0.99147  0.21263  1.0000
  Fe  Fe3       1.0  0.98488  0.06860  0.23245  1.0000
  H   H9        1.0  0.99159  0.11200  0.28296  1.0000
  H   H10       1.0  0.13763  0.09924  0.98395  1.0000
  S   S16       1.0  0.13311  0.17915  0.98444  1.0000
  C   C15       1.0  0.01084  0.27628  0.27665  1.0000
  S   S17       1.0  0.99245  0.12115  0.17677  1.0000
  H   H11       1.0  0.07336  0.09310  0.24495  1.0000
  C   C16       1.0  0.17280  0.28565  0.96753  1.0000
  H   H12       1.0  0.18058  0.24006  0.00040  1.0000
  C   C17       1.0  0.16575  0.03254  0.96966  1.0000
  C   C18       1.0  0.16955  0.98323  0.28323  1.0000
  C   C19       1.0  0.12948  0.33483  0.99807  1.0000
  H   H13       1.0  0.21381  0.02239  0.11486  1.0000
  C   C20       1.0  0.17805  0.30331  0.96550  1.0000
  H   H14       1.0  0.98905  0.42836  0.23202  1.0000
  C   C21       1.0  0.02297  0.22984  0.04529  1.0000
  C   C22       1.0  0.01442  0.24409  0.03255  1.0000
  C   C23       1.0  0.02481  0.25044  0.01490  1.0000
  C   C24       1.0  0.04379  0.24251  0.00965  1.0000
  C   C25       1.0  0.05232  0.22819  0.02236  1.0000
  C   C26       1.0  0.04198  0.22196  0.04007  1.0000
  H   H15       1.0  0.99980  0.25020  0.03629  1.0000
  H   H16       1.0  0.01804  0.26147  0.00518  1.0000
  H   H17       1.0  0.06686  0.22187  0.01849  1.0000
  H   H18       1.0  0.04870  0.21082  0.04973  1.0000
  Fe  Fe4       1.0  0.98135  0.23207  0.08323  1.0000
  C   C27       1.0  0.02889  0.30684  0.12597  1.0000
  Fe  Fe5       1.0  0.00006  0.36998  0.20756  1.0000
  C   C28       1.0  0.01006  0.42829  0.24835  1.0000
  S   S18       1.0  0.20054  0.43867  0.13342  1.0000
  C   C29       1.0  0.07963  0.30958  0.98947  1.0000
  C   C30       1.0  0.00215  0.29191  0.26527  1.0000
  H   H19       1.0  0.03639  0.36557  0.26049  1.0000
  H   H20       1.0  0.04638  0.32421  0.00824  1.0000
  C   C31       1.0  0.14749  0.02959  0.96989  1.0000
  P   P1        1.0  0.05107  0.06448  0.26705  1.0000
  C   C32       1.0  0.05997  0.00820  0.21964  1.0000
  C   C33       1.0  0.05085  0.02371  0.20835  1.0000
  C   C34       1.0  0.03329  0.03384  0.21542  1.0000
  C   C35       1.0  0.02460  0.02851  0.23389  1.0000
  C   C36       1.0  0.03371  0.01299  0.24517  1.0000
  C   C37       1.0  0.05131  0.00292  0.23813  1.0000
  H   H21       1.0  0.05740  0.02791  0.19402  1.0000
  H   H22       1.0  0.02640  0.04565  0.20653  1.0000
  H   H23       1.0  0.02712  0.00876  0.25948  1.0000
  H   H24       1.0  0.05819  0.99109  0.24701  1.0000
  H   H25       1.0  0.07061  0.42606  0.16689  1.0000
  P   P2        1.0  0.23015  0.99122  0.24146  1.0000
  C   C38       1.0  0.00836  0.14991  0.20085  1.0000
  S   S19       1.0  0.98574  0.35951  0.23676  1.0000
  C   C39       1.0  0.05672  0.41798  0.22482  1.0000
  C   C40       1.0  0.04721  0.42967  0.21103  1.0000
  C   C41       1.0  0.03407  0.42302  0.20369  1.0000
  C   C42       1.0  0.03025  0.40457  0.20988  1.0000
  C   C43       1.0  0.04014  0.39275  0.22327  1.0000
  C   C44       1.0  0.05324  0.39940  0.23065  1.0000
  H   H26       1.0  0.04971  0.44395  0.20628  1.0000
  H   H27       1.0  0.02665  0.43231  0.19324  1.0000
  H   H28       1.0  0.03765  0.37848  0.22793  1.0000
  H   H29       1.0  0.06062  0.39011  0.24108  1.0000
  H   H30       1.0  0.12451  0.28525  0.00795  1.0000
  H   H31       1.0  0.10961  0.35130  0.03839  1.0000
  C   C45       1.0  0.20175  0.01589  0.03953  1.0000
  C   C46       1.0  0.04273  0.08284  0.21290  1.0000
  H   H32       1.0  0.19916  0.39941  0.04595  1.0000
  H   H33       1.0  0.00365  0.28248  0.15651  1.0000
  P   P3        1.0  0.21739  0.47020  0.19025  1.0000
  C   C47       1.0  0.17374  0.44312  0.16471  1.0000
  H   H34       1.0  0.15261  0.44647  0.18945  1.0000
  H   H35       1.0  0.17903  0.42859  0.16985  1.0000
  H   H36       1.0  0.06107  0.36995  0.17214  1.0000
  H   H37       1.0  0.20414  0.02689  0.23494  1.0000
  C   C48       1.0  0.07385  0.03432  0.25137  1.0000
  H   H38       1.0  0.02572  0.27456  0.27687  1.0000
  C   C49       1.0  0.07084  0.37973  0.16929  1.0000
  H   H39       1.0  0.05568  0.10312  0.19163  1.0000
  C   C50       1.0  0.07818  0.98409  0.16299  1.0000
  S   S20       1.0  0.13844  0.44540  0.27264  1.0000
  C   C51       1.0  0.01563  0.40073  0.27225  1.0000
  H   H40       1.0  0.16666  0.44255  0.11566  1.0000
  H   H41       1.0  0.04889  0.40372  0.17171  1.0000
  H   H42       1.0  0.12497  0.01472  0.98449  1.0000
  C   C52       1.0  0.03393  0.35603  0.27364  1.0000
  C   C53       1.0  0.00343  0.14227  0.23462  1.0000
  H   H43       1.0  0.01500  0.14619  0.18734  1.0000
  C   C54       1.0  0.08968  0.45250  0.14370  1.0000
  H   H44       1.0  0.18207  0.27314  0.97253  1.0000
  C   C55       1.0  0.17279  0.21221  0.98277  1.0000
  C   C56       1.0  0.04087  0.30308  0.13909  1.0000
  C   C57       1.0  0.05234  0.07719  0.24331  1.0000
  Fe  Fe6       1.0  0.00046  0.33093  0.23123  1.0000
  H   H45       1.0  0.20555  0.28232  0.01333  1.0000
  C   C58       1.0  0.20484  0.18785  0.96953  1.0000
  H   H46       1.0  0.14539  0.06721  0.97654  1.0000
  H   H47       1.0  0.98745  0.25169  0.16350  1.0000
  C   C59       1.0  0.98986  0.15847  0.23567  1.0000
  S   S21       1.0  0.99418  0.09659  0.22856  1.0000
  H   H48       1.0  0.08723  0.33081  0.03873  1.0000
  H   H49       1.0  0.07389  0.28144  0.99203  1.0000
  H   H50       1.0  0.98240  0.16112  0.24927  1.0000
  H   H51       1.0  0.01960  0.29693  0.10510  1.0000
  C   C60       1.0  0.19281  0.24453  0.00287  1.0000
  H   H52       1.0  0.05462  0.00338  0.15332  1.0000
  C   C61       1.0  0.01988  0.41822  0.26254  1.0000
  C   C62       1.0  0.07974  0.32716  0.97774  1.0000
  H   H53       1.0  0.11912  0.31536  0.98670  1.0000
  C   C63       1.0  0.15877  0.45319  0.17580  1.0000
  H   H54       1.0  0.17226  0.03470  0.22692  1.0000
  C   C64       1.0  0.17709  0.19417  0.99286  1.0000
  H   H55       1.0  0.98712  0.11715  0.13476  1.0000
  H   H56       1.0  0.00320  0.14282  0.11550  1.0000
  C   C65       1.0  0.98241  0.27951  0.21722  1.0000
  C   C66       1.0  0.06396  0.39883  0.16905  1.0000
  C   C67       1.0  0.15684  0.42140  0.10599  1.0000
  H   H57       1.0  0.99282  0.19308  0.24572  1.0000
  Fe  Fe7       1.0  0.22046  0.45302  0.10964  1.0000
  C   C68       1.0  0.99479  0.16614  0.20187  1.0000
  Fe  Fe8       1.0  0.08579  0.23975  0.97290  1.0000
  H   H58       1.0  0.99107  0.25126  0.19593  1.0000
  H   H59       1.0  0.16207  0.46602  0.24096  1.0000
  C   C69       1.0  0.21191  0.97446  0.98642  1.0000
  H   H60       1.0  0.08241  0.23904  0.03791  1.0000
  C   C70       1.0  0.05755  0.07839  0.28136  1.0000
  C   C71       1.0  0.04385  0.09049  0.29151  1.0000
  S   S22       1.0  0.19272  0.97202  0.11448  1.0000
  C   C72       1.0  0.11690  0.32302  0.99815  1.0000
  C   C73       1.0  0.10275  0.38596  0.16309  1.0000
  C   C74       1.0  0.09594  0.40525  0.16248  1.0000
  C   C75       1.0  0.07640  0.41153  0.16599  1.0000
  P   P4        1.0  0.11235  0.42109  0.15994  1.0000
  C   C76       1.0  0.12298  0.41389  0.18070  1.0000
  C   C77       1.0  0.12975  0.42081  0.13883  1.0000
  C   C78       1.0  0.14282  0.43312  0.13477  1.0000
  C   C79       1.0  0.15639  0.43327  0.11850  1.0000
  C   C80       1.0  0.07434  0.29508  0.98326  1.0000
  C   C81       1.0  0.14357  0.40948  0.10964  1.0000
  C   C82       1.0  0.12999  0.40924  0.12595  1.0000
  C   C83       1.0  0.14260  0.40932  0.17958  1.0000
  C   C84       1.0  0.15042  0.40279  0.19587  1.0000
  C   C85       1.0  0.13874  0.40048  0.21333  1.0000
  C   C86       1.0  0.11922  0.40470  0.21451  1.0000
  C   C87       1.0  0.11136  0.41153  0.19830  1.0000
  C   C88       1.0  0.21316  0.98415  0.03358  1.0000
  C   C89       1.0  0.00716  0.28168  0.05595  1.0000
  H   H61       1.0  0.22751  0.01038  0.20264  1.0000
  C   C90       1.0  0.18348  0.14576  0.97116  1.0000
  C   C91       1.0  0.99458  0.00386  0.21527  1.0000
  H   H62       1.0  0.01823  0.32182  0.06522  1.0000
  H   H63       1.0  0.16745  0.42153  0.09343  1.0000
  H   H64       1.0  0.21141  0.21911  0.99740  1.0000
  H   H65       1.0  0.19525  0.02547  0.04920  1.0000
  H   H66       1.0  0.11774  0.38071  0.16136  1.0000
  C   C92       1.0  0.22028  0.41611  0.04504  1.0000
  H   H67       1.0  0.14265  0.44252  0.14426  1.0000
  C   C93       1.0  0.03099  0.31894  0.05518  1.0000
  H   H68       1.0  0.99448  0.01814  0.21690  1.0000
  C   C94       1.0  0.99865  0.28104  0.07469  1.0000
  H   H69       1.0  0.11967  0.40017  0.12828  1.0000
  H   H70       1.0  0.15197  0.41062  0.16625  1.0000
  H   H71       1.0  0.16556  0.39944  0.19488  1.0000
  H   H72       1.0  0.14478  0.39549  0.22596  1.0000
  H   H73       1.0  0.11008  0.40302  0.22803  1.0000
  H   H74       1.0  0.09617  0.41487  0.19951  1.0000
  C   C95       1.0  0.99604  0.42095  0.24361  1.0000
  C   C96       1.0  0.11166  0.34332  0.02721  1.0000
  H   H75       1.0  0.20655  0.03798  0.01591  1.0000
  C   C97       1.0  0.09900  0.33155  0.02735  1.0000
  H   H76       1.0  0.04792  0.30588  0.07626  1.0000
  C   C98       1.0  0.02207  0.20934  0.11970  1.0000
  C   C99       1.0  0.01930  0.20686  0.13921  1.0000
  C   C100      1.0  0.02340  0.22024  0.14786  1.0000
  C   C101      1.0  0.03015  0.23618  0.13704  1.0000
  C   C102      1.0  0.03308  0.23871  0.11739  1.0000
  C   C103      1.0  0.02888  0.22520  0.10886  1.0000
  P   P5        1.0  0.04256  0.25869  0.10289  1.0000
  C   C104      1.0  0.02876  0.26749  0.08443  1.0000
  C   C105      1.0  0.04181  0.27643  0.11674  1.0000
  C   C106      1.0  0.02930  0.29361  0.11484  1.0000
  H   H77       1.0  0.14124  0.33626  0.98668  1.0000
  C   C107      1.0  0.10049  0.44515  0.15791  1.0000
  C   C108      1.0  0.05364  0.28625  0.14079  1.0000
  C   C109      1.0  0.05422  0.27303  0.12958  1.0000
  C   C110      1.0  0.03718  0.26789  0.06556  1.0000
  C   C111      1.0  0.02641  0.27505  0.05140  1.0000
  H   H78       1.0  0.08860  0.99069  0.15261  1.0000
  C   C112      1.0  0.17170  0.45912  0.23031  1.0000
  C   C113      1.0  0.00930  0.27358  0.08887  1.0000
  C   C114      1.0  0.06691  0.25177  0.09270  1.0000
  C   C115      1.0  0.07408  0.23322  0.08993  1.0000
  C   C116      1.0  0.09276  0.22833  0.08139  1.0000
  C   C117      1.0  0.10441  0.24189  0.07549  1.0000
  C   C118      1.0  0.09736  0.26040  0.07802  1.0000
  C   C119      1.0  0.07870  0.26534  0.08659  1.0000
  H   H79       1.0  0.01860  0.19919  0.11287  1.0000
  H   H80       1.0  0.01381  0.19468  0.14762  1.0000
  H   H81       1.0  0.02117  0.21833  0.16300  1.0000
  H   H82       1.0  0.03284  0.24643  0.14415  1.0000
  H   H83       1.0  0.03080  0.22696  0.09376  1.0000
  C   C120      1.0  0.14994  0.09544  0.97371  1.0000
  C   C121      1.0  0.18205  0.45183  0.14710  1.0000
  C   C122      1.0  0.08554  0.01578  0.28503  1.0000
  H   H84       1.0  0.06284  0.28334  0.15107  1.0000
  H   H85       1.0  0.06409  0.25997  0.13119  1.0000
  H   H86       1.0  0.05195  0.26254  0.06165  1.0000
  H   H87       1.0  0.03289  0.27514  0.03686  1.0000
  H   H88       1.0  0.09556  0.35841  0.16695  1.0000
  H   H89       1.0  0.21649  0.17775  0.96443  1.0000
  H   H90       1.0  0.03991  0.31310  0.14820  1.0000
  H   H91       1.0  0.06535  0.22248  0.09417  1.0000
  H   H92       1.0  0.09815  0.21400  0.07922  1.0000
  H   H93       1.0  0.11885  0.23808  0.06878  1.0000
  H   H94       1.0  0.10636  0.27094  0.07326  1.0000
  H   H95       1.0  0.07345  0.27976  0.08838  1.0000
  H   H96       1.0  0.14214  0.99761  0.01015  1.0000
  H   H97       1.0  0.15396  0.97755  0.26392  1.0000
  H   H98       1.0  0.06874  0.27232  0.02960  1.0000
  H   H99       1.0  0.17859  0.99101  0.27235  1.0000
  H   H100      1.0  0.11196  0.45201  0.17984  1.0000
  H   H101      1.0  0.17319  0.97671  0.22600  1.0000
  C   C123      1.0  0.16677  0.01037  0.99888  1.0000
  H   H102      1.0  0.20920  0.02897  0.29194  1.0000
  C   C124      1.0  0.06391  0.31099  0.02917  1.0000
  H   H103      1.0  0.21503  0.99894  0.14397  1.0000
  H   H104      1.0  0.20470  0.05376  0.97142  1.0000
  C   C125      1.0  0.99165  0.29149  0.15126  1.0000
  C   C126      1.0  0.15558  0.97561  0.27839  1.0000
  C   C127      1.0  0.08389  0.26822  0.02731  1.0000
  C   C128      1.0  0.06941  0.29805  0.96555  1.0000
  H   H105      1.0  0.03416  0.07999  0.20393  1.0000
  C   C129      1.0  0.98539  0.30933  0.15647  1.0000
  Fe  Fe9       1.0  0.10164  0.97151  0.22421  1.0000
  Fe  Fe10      1.0  0.11839  0.45870  0.25225  1.0000
  H   H106      1.0  0.19635  0.16795  0.99398  1.0000
  S   S23       1.0  0.21454  0.46914  0.08152  1.0000
  H   H107      1.0  0.15808  0.12267  0.96838  1.0000
  C   C130      1.0  0.16974  0.44132  0.22824  1.0000
  C   C131      1.0  0.09560  0.28157  0.01906  1.0000
  H   H108      1.0  0.07690  0.29847  0.05345  1.0000
  H   H109      1.0  0.08747  0.06836  0.27426  1.0000
  H   H110      1.0  0.03229  0.30972  0.28976  1.0000
  H   H111      1.0  0.99877  0.28692  0.04498  1.0000
  H   H112      1.0  0.13672  0.35412  0.01236  1.0000
  C   C132      1.0  0.21014  0.98608  0.96907  1.0000
  H   H113      1.0  0.19241  0.13409  0.97822  1.0000
  C   C133      1.0  0.21822  0.01360  0.26911  1.0000
  C   C134      1.0  0.08651  0.01733  0.25197  1.0000
  C   C135      1.0  0.20680  0.26837  0.01018  1.0000
  C   C136      1.0  0.04567  0.98310  0.17724  1.0000
  C   C137      1.0  0.18604  0.46792  0.21874  1.0000
  C   C138      1.0  0.00120  0.39365  0.26767  1.0000
  C   C139      1.0  0.99353  0.07253  0.27913  1.0000
  C   C140      1.0  0.20807  0.02293  0.02075  1.0000
  H   H114      1.0  0.16982  0.44143  0.29140  1.0000
  C   C141      1.0  0.04702  0.32013  0.02302  1.0000
  Fe  Fe11      1.0  0.99155  0.33725  0.19155  1.0000
  H   H115      1.0  0.22203  0.01628  0.99397  1.0000
  C   C142      1.0  0.12280  0.25655  0.01955  1.0000
  C   C143      1.0  0.14366  0.45954  0.28673  1.0000
  H   H116      1.0  0.01759  0.33086  0.03119  1.0000
  C   C144      1.0  0.06712  0.04231  0.26761  1.0000
  H   H117      1.0  0.14381  0.40047  0.09977  1.0000
  H   H118      1.0  0.99123  0.17471  0.18898  1.0000
  C   C145      1.0  0.07662  0.07743  0.28210  1.0000
  C   C146      1.0  0.21176  0.40429  0.03787  1.0000
  C   C147      1.0  0.11105  0.24344  0.02811  1.0000
  C   C148      1.0  0.22917  0.34228  0.03808  1.0000
  H   H119      1.0  0.21423  0.42020  0.05849  1.0000
  H   H120      1.0  0.02906  0.09170  0.29129  1.0000
  C   C149      1.0  0.04151  0.07352  0.23145  1.0000
  H   H121      1.0  0.20451  0.00981  0.27055  1.0000
  C   C150      1.0  0.21037  0.23277  0.00106  1.0000
  C   C151      1.0  0.19743  0.01574  0.23337  1.0000
  C   C152      1.0  0.11513  0.27554  0.01504  1.0000
  C   C153      1.0  0.04772  0.30986  0.06140  1.0000
  H   H122      1.0  0.19111  0.30435  0.96935  1.0000
  C   C154      1.0  0.05407  0.41007  0.29115  1.0000
  H   H123      1.0  0.20556  0.43387  0.19225  1.0000
  S   S24       1.0  0.12788  0.97666  0.23206  1.0000
  Fe  Fe12      1.0  0.11946  0.20782  0.97091  1.0000
  C   C155      1.0  0.98297  0.29392  0.26491  1.0000
  H   H124      1.0  0.00233  0.27273  0.10329  1.0000
  P   P6        1.0  0.08531  0.30594  0.01265  1.0000
  H   H125      1.0  0.06929  0.04100  0.23824  1.0000
  C   C156      1.0  0.09235  0.00805  0.26877  1.0000
  C   C157      1.0  0.16614  0.15373  0.98092  1.0000
  H   H126      1.0  0.21492  0.33946  0.04078  1.0000
  C   C158      1.0  0.18201  0.43235  0.21450  1.0000
  H   H127      1.0  0.02460  0.99635  0.21223  1.0000
  H   H128      1.0  0.16752  0.18931  0.00531  1.0000
  C   C159      1.0  0.17994  0.98755  0.22823  1.0000
  H   H129      1.0  0.98197  0.08394  0.27658  1.0000
  C   C160      1.0  0.98969  0.15632  0.15490  1.0000
  C   C161      1.0  0.10152  0.32126  0.01280  1.0000
  H   H130      1.0  0.15993  0.22142  0.98743  1.0000
  C   C162      1.0  0.07191  0.41509  0.28757  1.0000
  C   C163      1.0  0.08187  0.08825  0.29289  1.0000
  C   C164      1.0  0.06581  0.09953  0.21766  1.0000
  H   H131      1.0  0.98482  0.17112  0.09896  1.0000
  C   C165      1.0  0.22084  0.02450  0.28132  1.0000
  H   H132      1.0  0.18917  0.02506  0.98477  1.0000
  H   H133      1.0  0.01870  0.31975  0.12503  1.0000
  H   H134      1.0  0.19964  0.99108  0.06058  1.0000
  C   C166      1.0  0.06406  0.30568  0.04847  1.0000
  C   C167      1.0  0.01208  0.07530  0.27243  1.0000
  H   H135      1.0  0.15867  0.43448  0.23730  1.0000
  C   C168      1.0  0.15462  0.16908  0.97191  1.0000
  H   H136      1.0  0.02657  0.97399  0.24245  1.0000
  C   C169      1.0  0.20430  0.99652  0.04594  1.0000
  C   C170      1.0  0.19102  0.26228  0.00749  1.0000
  C   C171      1.0  0.02971  0.36269  0.29068  1.0000
  C   C172      1.0  0.14870  0.00734  0.99887  1.0000
  C   C173      1.0  0.08752  0.40341  0.27946  1.0000
  C   C174      1.0  0.17524  0.02294  0.98438  1.0000
  C   C175      1.0  0.18471  0.21823  0.96629  1.0000
  C   C176      1.0  0.02331  0.04297  0.28539  1.0000
  C   C177      1.0  0.03490  0.33702  0.27339  1.0000
  H   H137      1.0  0.98806  0.27184  0.13482  1.0000
  C   C178      1.0  0.19859  0.45892  0.20496  1.0000
  C   C179      1.0  0.21934  0.39876  0.02038  1.0000
  C   C180      1.0  0.98557  0.17070  0.21933  1.0000
  C   C181      1.0  0.09159  0.24928  0.03192  1.0000
  C   C182      1.0  0.05168  0.39330  0.28657  1.0000
  C   C183      1.0  0.15573  0.28396  0.96300  1.0000
  H   H138      1.0  0.07525  0.10960  0.21229  1.0000
  C   C184      1.0  0.99156  0.40369  0.25333  1.0000
  H   H139      1.0  0.99310  0.26089  0.24060  1.0000
  C   C185      1.0  0.08532  0.38658  0.27508  1.0000
  C   C186      1.0  0.06749  0.38150  0.27866  1.0000
  C   C187      1.0  0.13905  0.01697  0.98440  1.0000
  H   H140      1.0  0.15672  0.00959  0.22247  1.0000
  C   C188      1.0  0.05485  0.09587  0.20600  1.0000
  H   H141      1.0  0.13780  0.25193  0.01575  1.0000
  H   H142      1.0  0.98369  0.28610  0.07829  1.0000
  H   H143      1.0  0.01467  0.08890  0.26463  1.0000
  C   C189      1.0  0.98558  0.12541  0.28712  1.0000
  H   H144      1.0  0.03801  0.33204  0.26014  1.0000
  H   H145      1.0  0.03454  0.03123  0.28767  1.0000
  C   C190      1.0  0.06466  0.09016  0.23622  1.0000
  H   H146      1.0  0.17424  0.00300  0.01016  1.0000
  C   C191      1.0  0.19328  0.18212  0.98640  1.0000
  C   C192      1.0  0.19636  0.44110  0.20286  1.0000
  C   C193      1.0  0.15443  0.07728  0.96949  1.0000
  H   H147      1.0  0.09737  0.37769  0.26850  1.0000
  H   H148      1.0  0.06615  0.36858  0.27483  1.0000
  H   H149      1.0  0.03204  0.06347  0.23656  1.0000
  C   C194      1.0  0.17514  0.47058  0.14050  1.0000
  H   H150      1.0  0.10123  0.40762  0.27617  1.0000
  H   H151      1.0  0.03115  0.42394  0.26535  1.0000
  P   P7        1.0  0.02837  0.38743  0.29052  1.0000
  H   H152      1.0  0.22231  0.36399  0.05489  1.0000
  H   H153      1.0  0.21727  0.45311  0.15823  1.0000
  H   H154      1.0  0.00631  0.13275  0.24734  1.0000
  H   H155      1.0  0.08342  0.33870  0.98231  1.0000
  H   H156      1.0  0.10205  0.99479  0.26923  1.0000
  C   C195      1.0  0.22772  0.00406  0.13630  1.0000
  C   C196      1.0  0.03173  0.32444  0.29013  1.0000
  C   C197      1.0  0.19784  0.98292  0.23316  1.0000
  C   C198      1.0  0.22704  0.01731  0.11989  1.0000
  H   H157      1.0  0.07359  0.42832  0.29057  1.0000
  H   H158      1.0  0.98736  0.18375  0.13724  1.0000
  C   C199      1.0  0.07296  0.03282  0.28449  1.0000
  H   H159      1.0  0.98090  0.39790  0.24937  1.0000
  C   C200      1.0  0.10314  0.45709  0.16922  1.0000
  H   H160      1.0  0.08795  0.44361  0.13449  1.0000
  H   H161      1.0  0.99755  0.38023  0.27492  1.0000
  C   C201      1.0  0.98289  0.28543  0.13889  1.0000
  H   H162      1.0  0.99577  0.28403  0.21099  1.0000
  C   C202      1.0  0.05906  0.99129  0.16347  1.0000
  H   H163      1.0  0.98723  0.20431  0.27585  1.0000
  H   H164      1.0  0.98815  0.32904  0.27858  1.0000
  H   H165      1.0  0.03093  0.98872  0.17709  1.0000
  C   C203      1.0  0.21707  0.01060  0.00842  1.0000
  C   C204      1.0  0.98112  0.26496  0.28733  1.0000
  H   H166      1.0  0.09659  0.08738  0.29345  1.0000
  H   H167      1.0  0.12975  0.14769  0.96369  1.0000
  C   C205      1.0  0.00036  0.26270  0.28754  1.0000
  H   H168      1.0  0.22409  0.97581  0.28196  1.0000
  C   C206      1.0  0.16029  0.45412  0.29435  1.0000
  H   H169      1.0  0.21942  0.46276  0.23062  1.0000
  C   C207      1.0  0.98086  0.22514  0.20686  1.0000
  C   C208      1.0  0.98093  0.26643  0.23382  1.0000
  C   C209      1.0  0.22431  0.25663  0.00854  1.0000
  S   S25       1.0  0.98059  0.23696  0.11255  1.0000
  H   H170      1.0  0.98243  0.22537  0.22096  1.0000
  C   C210      1.0  0.21987  0.99113  0.01478  1.0000
  C   C211      1.0  0.98372  0.24022  0.17437  1.0000
  C   C212      1.0  0.98574  0.23995  0.19271  1.0000
  C   C213      1.0  0.98983  0.05496  0.28875  1.0000
  Fe  Fe13      1.0  0.19903  0.34692  0.96405  1.0000
  C   C214      1.0  0.00470  0.04019  0.29185  1.0000
  H   H171      1.0  0.22580  0.04713  0.04370  1.0000
  H   H172      1.0  0.22010  0.99539  0.96247  1.0000
  C   C215      1.0  0.22740  0.29815  0.54796  1.0000
  C   C216      1.0  0.21835  0.37595  0.35038  1.0000
  H   H173      1.0  0.03463  0.24910  0.34778  1.0000
  H   H174      1.0  0.18219  0.45264  0.45877  1.0000
  Fe  Fe14      1.0  0.18544  0.33152  0.48218  1.0000
  C   C217      1.0  0.02966  0.22221  0.58440  1.0000
  S   S26       1.0  0.16127  0.31536  0.49303  1.0000
  Fe  Fe15      1.0  0.20558  0.35730  0.49568  1.0000
  S   S27       1.0  0.20008  0.37804  0.51586  1.0000
  H   H175      1.0  0.17116  0.35790  0.60359  1.0000
  C   C218      1.0  0.19086  0.42796  0.50111  1.0000
  S   S28       1.0  0.18543  0.36266  0.47529  1.0000
  S   S29       1.0  0.20351  0.32694  0.50407  1.0000
  Fe  Fe16      1.0  0.10374  0.26080  0.45394  1.0000
  S   S30       1.0  0.11699  0.23809  0.47469  1.0000
  S   S31       1.0  0.11555  0.28783  0.44328  1.0000
  Fe  Fe17      1.0  0.07658  0.23671  0.44776  1.0000
  S   S32       1.0  0.08829  0.21207  0.46832  1.0000
  S   S33       1.0  0.05051  0.23784  0.43441  1.0000
  Fe  Fe18      1.0  0.08757  0.23315  0.48674  1.0000
  S   S34       1.0  0.07718  0.22599  0.51826  1.0000
  Fe  Fe19      1.0  0.11688  0.21904  0.45481  1.0000
  S   S35       1.0  0.14433  0.20097  0.44418  1.0000
  S   S36       1.0  0.07398  0.25737  0.46729  1.0000
  S   S37       1.0  0.10532  0.24219  0.43306  1.0000
  H   H176      1.0  0.03947  0.22438  0.50825  1.0000
  C   C219      1.0  0.12271  0.42676  0.33975  1.0000
  H   H177      1.0  0.09451  0.15837  0.52279  1.0000
  S   S38       1.0  0.18055  0.12143  0.48515  1.0000
  H   H178      1.0  0.13245  0.35431  0.49859  1.0000
  C   C220      1.0  0.15981  0.19318  0.56251  1.0000
  C   C221      1.0  0.05003  0.14678  0.47249  1.0000
  H   H179      1.0  0.06161  0.10139  0.46537  1.0000
  C   C222      1.0  0.14349  0.00797  0.50639  1.0000
  H   H180      1.0  0.22705  0.14459  0.51619  1.0000
  C   C223      1.0  0.03849  0.14396  0.49010  1.0000
  Fe  Fe20      1.0  0.00277  0.20939  0.35421  1.0000
  S   S39       1.0  0.02944  0.21115  0.36509  1.0000
  C   C224      1.0  0.15898  0.40604  0.33278  1.0000
  S   S40       1.0  0.21869  0.01221  0.33166  1.0000
  S   S41       1.0  0.20655  0.46384  0.33613  1.0000
  C   C225      1.0  0.04411  0.11048  0.49007  1.0000
  S   S42       1.0  0.00557  0.20665  0.32375  1.0000
  C   C226      1.0  0.21571  0.05770  0.41655  1.0000
  C   C227      1.0  0.13745  0.36813  0.40399  1.0000
  S   S43       1.0  0.07712  0.30014  0.61657  1.0000
  C   C228      1.0  0.20134  0.41369  0.34671  1.0000
  S   S44       1.0  0.08841  0.27039  0.57919  1.0000
  C   C229      1.0  0.10623  0.16487  0.52329  1.0000
  H   H181      1.0  0.07131  0.19747  0.43231  1.0000
  C   C230      1.0  0.14362  0.30672  0.55940  1.0000
  H   H182      1.0  0.12819  0.42596  0.36725  1.0000
  H   H183      1.0  0.00719  0.25040  0.29586  1.0000
  H   H184      1.0  0.13017  0.33177  0.52803  1.0000
  C   C231      1.0  0.14404  0.34655  0.54211  1.0000
  H   H185      1.0  0.10457  0.19932  0.41874  1.0000
  H   H186      1.0  0.18860  0.40051  0.54475  1.0000
  H   H187      1.0  0.12996  0.17433  0.42958  1.0000
  C   C232      1.0  0.19936  0.38438  0.56922  1.0000
  C   C233      1.0  0.19627  0.38723  0.55063  1.0000
  C   C234      1.0  0.15850  0.34585  0.58620  1.0000
  C   C235      1.0  0.13484  0.16390  0.53486  1.0000
  H   H188      1.0  0.02675  0.12373  0.51250  1.0000
  H   H189      1.0  0.12215  0.14788  0.45470  1.0000
  H   H190      1.0  0.13475  0.21876  0.59563  1.0000
  S   S45       1.0  0.20433  0.02670  0.38180  1.0000
  H   H191      1.0  0.19310  0.05744  0.40220  1.0000
  C   C236      1.0  0.02595  0.27879  0.50751  1.0000
  H   H192      1.0  0.20266  0.20389  0.48813  1.0000
  C   C237      1.0  0.00783  0.18462  0.43370  1.0000
  C   C238      1.0  0.04508  0.23065  0.41475  1.0000
  C   C239      1.0  0.02608  0.23286  0.41279  1.0000
  C   C240      1.0  0.02099  0.22729  0.39765  1.0000
  C   C241      1.0  0.03485  0.21928  0.38420  1.0000
  C   C242      1.0  0.05385  0.21726  0.38605  1.0000
  C   C243      1.0  0.05894  0.22291  0.40114  1.0000
  H   H193      1.0  0.01519  0.23883  0.42315  1.0000
  H   H194      1.0  0.00633  0.22897  0.39652  1.0000
  H   H195      1.0  0.06475  0.21116  0.37576  1.0000
  H   H196      1.0  0.07361  0.22130  0.40219  1.0000
  C   C244      1.0  0.08092  0.23809  0.53511  1.0000
  C   C245      1.0  0.07390  0.23234  0.55417  1.0000
  C   C246      1.0  0.07582  0.24214  0.56790  1.0000
  C   C247      1.0  0.08495  0.25772  0.56268  1.0000
  C   C248      1.0  0.09225  0.26324  0.54366  1.0000
  C   C249      1.0  0.09022  0.25354  0.52994  1.0000
  H   H197      1.0  0.06676  0.22036  0.55831  1.0000
  H   H198      1.0  0.07032  0.23763  0.58248  1.0000
  H   H199      1.0  0.09948  0.27519  0.53948  1.0000
  H   H200      1.0  0.09571  0.25813  0.51534  1.0000
  C   C250      1.0  0.15418  0.17912  0.45620  1.0000
  C   C251      1.0  0.17245  0.17079  0.44903  1.0000
  C   C252      1.0  0.18070  0.15317  0.45786  1.0000
  C   C253      1.0  0.17072  0.14374  0.47395  1.0000
  C   C254      1.0  0.15247  0.15211  0.48121  1.0000
  C   C255      1.0  0.14422  0.16976  0.47237  1.0000
  H   H201      1.0  0.18020  0.17793  0.43647  1.0000
  H   H202      1.0  0.19464  0.14675  0.45204  1.0000
  H   H203      1.0  0.14464  0.14486  0.49364  1.0000
  H   H204      1.0  0.13007  0.17601  0.47782  1.0000
  C   C256      1.0  0.20320  0.37314  0.53959  1.0000
  H   H205      1.0  0.19190  0.36991  0.36640  1.0000
  C   C257      1.0  0.16174  0.97836  0.49917  1.0000
  Fe  Fe21      1.0  0.21135  0.35585  0.45409  1.0000
  C   C258      1.0  0.14636  0.27036  0.55218  1.0000
  S   S46       1.0  0.98694  0.18510  0.36453  1.0000
  C   C259      1.0  0.12885  0.29476  0.45707  1.0000
  C   C260      1.0  0.14126  0.30741  0.44862  1.0000
  C   C261      1.0  0.15159  0.31362  0.45940  1.0000
  C   C262      1.0  0.14923  0.30750  0.47876  1.0000
  C   C263      1.0  0.13674  0.29497  0.48721  1.0000
  C   C264      1.0  0.12680  0.28839  0.47639  1.0000
  H   H206      1.0  0.14287  0.31238  0.43368  1.0000
  H   H207      1.0  0.16118  0.32329  0.45281  1.0000
  H   H208      1.0  0.13466  0.29039  0.50222  1.0000
  H   H209      1.0  0.11713  0.27881  0.48306  1.0000
  C   C265      1.0  0.20964  0.43968  0.46508  1.0000
  C   C266      1.0  0.13766  0.35684  0.51031  1.0000
  H   H210      1.0  0.22533  0.03777  0.46650  1.0000
  S   S47       1.0  0.20964  0.32493  0.45942  1.0000
  H   H211      1.0  0.19305  0.19562  0.53118  1.0000
  C   C267      1.0  0.21638  0.35328  0.56590  1.0000
  C   C268      1.0  0.13373  0.42157  0.35383  1.0000
  H   H212      1.0  0.09689  0.19043  0.50517  1.0000
  H   H213      1.0  0.07346  0.35510  0.57088  1.0000
  C   C269      1.0  0.01605  0.39457  0.34527  1.0000
  C   C270      1.0  0.03526  0.17710  0.41050  1.0000
  C   C271      1.0  0.12983  0.42169  0.32218  1.0000
  C   C272      1.0  0.02595  0.29572  0.57707  1.0000
  P   P8        1.0  0.01400  0.27923  0.57117  1.0000
  H   H214      1.0  0.04725  0.26480  0.54566  1.0000
  H   H215      1.0  0.13084  0.01582  0.51336  1.0000
  C   C273      1.0  0.02537  0.38959  0.32810  1.0000
  H   H216      1.0  0.16845  0.15601  0.51289  1.0000
  C   C274      1.0  0.08225  0.18622  0.43683  1.0000
  C   C275      1.0  0.04417  0.29810  0.56778  1.0000
  C   C276      1.0  0.05355  0.31032  0.57295  1.0000
  C   C277      1.0  0.04486  0.32022  0.58743  1.0000
  C   C278      1.0  0.98582  0.14929  0.30562  1.0000
  C   C279      1.0  0.01811  0.27256  0.36001  1.0000
  C   C280      1.0  0.17426  0.00726  0.48656  1.0000
  H   H217      1.0  0.18964  0.23474  0.53529  1.0000
  C   C281      1.0  0.04129  0.21378  0.49959  1.0000
  C   C282      1.0  0.21155  0.29426  0.54293  1.0000
  H   H218      1.0  0.22247  0.39081  0.38592  1.0000
  C   C283      1.0  0.16261  0.46212  0.38920  1.0000
  C   C284      1.0  0.15203  0.41130  0.35041  1.0000
  C   C285      1.0  0.98394  0.35515  0.35191  1.0000
  H   H219      1.0  0.02345  0.39158  0.35703  1.0000
  H   H220      1.0  0.17760  0.46082  0.31140  1.0000
  H   H221      1.0  0.99731  0.29290  0.50760  1.0000
  H   H222      1.0  0.18547  0.38398  0.39863  1.0000
  C   C286      1.0  0.21256  0.43367  0.39933  1.0000
  C   C287      1.0  0.13674  0.18171  0.52420  1.0000
  Fe  Fe22      1.0  0.21102  0.10865  0.47575  1.0000
  H   H223      1.0  0.05149  0.29025  0.55690  1.0000
  H   H224      1.0  0.06785  0.31156  0.56612  1.0000
  C   C288      1.0  0.21347  0.15366  0.51820  1.0000
  H   H225      1.0  0.20370  0.43785  0.42784  1.0000
  C   C289      1.0  0.02822  0.25366  0.60039  1.0000
  H   H226      1.0  0.02033  0.32506  0.60854  1.0000
  Fe  Fe23      1.0  0.98784  0.18390  0.33408  1.0000
  H   H227      1.0  0.03212  0.20876  0.45813  1.0000
  H   H228      1.0  0.02677  0.27073  0.37064  1.0000
  C   C290      1.0  0.08533  0.34959  0.57807  1.0000
  H   H229      1.0  0.20850  0.06970  0.42293  1.0000
  C   C291      1.0  0.14948  0.35988  0.41685  1.0000
  Fe  Fe24      1.0  0.20549  0.98737  0.33134  1.0000
  P   P9        1.0  0.15583  0.19281  0.52578  1.0000
  H   H230      1.0  0.06895  0.35180  0.60550  1.0000
  C   C292      1.0  0.10317  0.34415  0.56788  1.0000
  H   H231      1.0  0.17619  0.35929  0.42472  1.0000
  C   C293      1.0  0.15247  0.36241  0.54010  1.0000
  H   H232      1.0  0.19413  0.39542  0.57748  1.0000
  H   H233      1.0  0.10879  0.43505  0.34229  1.0000
  H   H234      1.0  0.02560  0.32099  0.32019  1.0000
  H   H235      1.0  0.16011  0.44637  0.35016  1.0000
  H   H236      1.0  0.15868  0.36480  0.55116  1.0000
  C   C294      1.0  0.21745  0.22065  0.53962  1.0000
  H   H237      1.0  0.98941  0.40555  0.30326  1.0000
  H   H238      1.0  0.99433  0.31412  0.31015  1.0000
  H   H239      1.0  0.12546  0.29730  0.58524  1.0000
  C   C295      1.0  0.21828  0.40106  0.39514  1.0000
  C   C296      1.0  0.01596  0.39350  0.31274  1.0000
  C   C297      1.0  0.21175  0.17075  0.52417  1.0000
  H   H240      1.0  0.12794  0.26552  0.57873  1.0000
  S   S48       1.0  0.19915  0.98089  0.36300  1.0000
  H   H241      1.0  0.22408  0.98095  0.41101  1.0000
  H   H242      1.0  0.14723  0.35777  0.58480  1.0000
  H   H243      1.0  0.98260  0.36572  0.37721  1.0000
  H   H244      1.0  0.17307  0.39827  0.32965  1.0000
  C   C298      1.0  0.20973  0.36749  0.57687  1.0000
  H   H245      1.0  0.21402  0.21925  0.55473  1.0000
  H   H246      1.0  0.16546  0.44186  0.49071  1.0000
  H   H247      1.0  0.02758  0.26565  0.60687  1.0000
  S   S49       1.0  0.21610  0.37045  0.42347  1.0000
  C   C299      1.0  0.05813  0.13135  0.46353  1.0000
  H   H248      1.0  0.18877  0.97959  0.48174  1.0000
  C   C300      1.0  0.20787  0.42758  0.41872  1.0000
  Fe  Fe25      1.0  0.21491  0.00417  0.36305  1.0000
  C   C301      1.0  0.16674  0.36570  0.41483  1.0000
  C   C302      1.0  0.02686  0.34991  0.30752  1.0000
  C   C303      1.0  0.21309  0.19744  0.47772  1.0000
  C   C304      1.0  0.19776  0.27777  0.46380  1.0000
  C   C305      1.0  0.10106  0.18734  0.42918  1.0000
  H   H249      1.0  0.21792  0.41512  0.50779  1.0000
  H   H250      1.0  0.02386  0.35452  0.32089  1.0000
  C   C306      1.0  0.11866  0.33697  0.57709  1.0000
  H   H251      1.0  0.99011  0.40754  0.36048  1.0000
  C   C307      1.0  0.20902  0.24471  0.44875  1.0000
  C   C308      1.0  0.02686  0.31781  0.59689  1.0000
  C   C309      1.0  0.98059  0.34067  0.34423  1.0000
  H   H252      1.0  0.12330  0.20546  0.50614  1.0000
  C   C310      1.0  0.13886  0.21369  0.58240  1.0000
  C   C311      1.0  0.22857  0.38985  0.34018  1.0000
  H   H253      1.0  0.04182  0.09647  0.49685  1.0000
  C   C312      1.0  0.21037  0.18103  0.47285  1.0000
  C   C313      1.0  0.16148  0.44568  0.36457  1.0000
  C   C314      1.0  0.16474  0.42831  0.37657  1.0000
  C   C315      1.0  0.16720  0.42813  0.39489  1.0000
  P   P10       1.0  0.16691  0.40662  0.36798  1.0000
  C   C316      1.0  0.21299  0.35599  0.54743  1.0000
  C   C317      1.0  0.20707  0.05077  0.40468  1.0000
  P   P11       1.0  0.14182  0.33014  0.56399  1.0000
  C   C318      1.0  0.15989  0.38834  0.38708  1.0000
  C   C319      1.0  0.14260  0.38230  0.38916  1.0000
  H   H254      1.0  0.22743  0.09676  0.30577  1.0000
  C   C320      1.0  0.17178  0.98104  0.30200  1.0000
  C   C321      1.0  0.16024  0.46247  0.37095  1.0000
  C   C322      1.0  0.02286  0.25606  0.58284  1.0000
  H   H255      1.0  0.17040  0.41512  0.40434  1.0000
  C   C323      1.0  0.20374  0.22941  0.52868  1.0000
  C   C324      1.0  0.03629  0.27124  0.53751  1.0000
  H   H256      1.0  0.13308  0.38836  0.37936  1.0000
  C   C325      1.0  0.14937  0.20080  0.54804  1.0000
  H   H257      1.0  0.04144  0.17591  0.39609  1.0000
  C   C326      1.0  0.22243  0.00817  0.51641  1.0000
  C   C327      1.0  0.21672  0.07344  0.32451  1.0000
  C   C328      1.0  0.99728  0.40354  0.34721  1.0000
  C   C329      1.0  0.22457  0.02926  0.48032  1.0000
  C   C330      1.0  0.21590  0.24623  0.46458  1.0000
  C   C331      1.0  0.17614  0.98768  0.48848  1.0000
  H   H258      1.0  0.16268  0.19380  0.59072  1.0000
  H   H259      1.0  0.21823  0.34498  0.53915  1.0000
  C   C332      1.0  0.09803  0.34037  0.60680  1.0000
  C   C333      1.0  0.01859  0.27950  0.54615  1.0000
  H   H260      1.0  0.19113  0.25833  0.42850  1.0000
  C   C334      1.0  0.03996  0.27093  0.51830  1.0000
  H   H261      1.0  0.14680  0.25656  0.54915  1.0000
  C   C335      1.0  0.15629  0.28319  0.53944  1.0000
  C   C336      1.0  0.15527  0.30116  0.54324  1.0000
  C   C337      1.0  0.15955  0.33043  0.57749  1.0000
  C   C338      1.0  0.17192  0.34592  0.59699  1.0000
  C   C339      1.0  0.18638  0.33056  0.59931  1.0000
  C   C340      1.0  0.18751  0.31513  0.59077  1.0000
  C   C341      1.0  0.17410  0.31499  0.57999  1.0000
  H   H262      1.0  0.16445  0.27949  0.52639  1.0000
  H   H263      1.0  0.16317  0.31087  0.53326  1.0000
  H   H264      1.0  0.19676  0.33074  0.60766  1.0000
  H   H265      1.0  0.19872  0.30324  0.59263  1.0000
  H   H266      1.0  0.17501  0.30274  0.57385  1.0000
  C   C342      1.0  0.01587  0.18276  0.41523  1.0000
  C   C343      1.0  0.11980  0.15540  0.53416  1.0000
  C   C344      1.0  0.11092  0.15835  0.44951  1.0000
  H   H267      1.0  0.01276  0.18223  0.46169  1.0000
  S   S50       1.0  0.21539  0.36383  0.59966  1.0000
  H   H268      1.0  0.12414  0.36344  0.40553  1.0000
  H   H269      1.0  0.99901  0.29578  0.36985  1.0000
  H   H270      1.0  0.19824  0.30371  0.54498  1.0000
  C   C345      1.0  0.04670  0.17353  0.42412  1.0000
  C   C346      1.0  0.03881  0.17586  0.44262  1.0000
  C   C347      1.0  0.20950  0.00756  0.50522  1.0000
  P   P12       1.0  0.05327  0.17008  0.46061  1.0000
  C   C348      1.0  0.07762  0.17092  0.45056  1.0000
  C   C349      1.0  0.04735  0.18678  0.47641  1.0000
  C   C350      1.0  0.05473  0.18252  0.49310  1.0000
  C   C351      1.0  0.05156  0.19594  0.50471  1.0000
  H   H271      1.0  0.19869  0.99903  0.51092  1.0000
  C   C352      1.0  0.98912  0.28510  0.58005  1.0000
  C   C353      1.0  0.98778  0.40740  0.33202  1.0000
  C   C354      1.0  0.00451  0.28725  0.53521  1.0000
  H   H272      1.0  0.22407  0.34004  0.57178  1.0000
  H   H273      1.0  0.01429  0.25204  0.32445  1.0000
  C   C355      1.0  0.14790  0.41126  0.31874  1.0000
  C   C356      1.0  0.09210  0.15718  0.45718  1.0000
  C   C357      1.0  0.03432  0.23565  0.60981  1.0000
  C   C358      1.0  0.21311  0.27883  0.53425  1.0000
  H   H274      1.0  0.19798  0.17489  0.47942  1.0000
  C   C359      1.0  0.15313  0.37550  0.52346  1.0000
  S   S51       1.0  0.18913  0.99182  0.30717  1.0000
  H   H275      1.0  0.19899  0.13527  0.50959  1.0000
  H   H276      1.0  0.17174  0.18200  0.56085  1.0000
  H   H277      1.0  0.14676  0.38263  0.49555  1.0000
  H   H278      1.0  0.03144  0.15573  0.49696  1.0000
  H   H279      1.0  0.06166  0.16905  0.42008  1.0000
  C   C360      1.0  0.21044  0.42324  0.49683  1.0000
  H   H280      1.0  0.06340  0.16905  0.49683  1.0000
  H   H281      1.0  0.05766  0.19286  0.51733  1.0000
  C   C361      1.0  0.19767  0.14839  0.51449  1.0000
  H   H282      1.0  0.03997  0.38274  0.32676  1.0000
  C   C362      1.0  0.03410  0.21817  0.48292  1.0000
  C   C363      1.0  0.05529  0.11325  0.47235  1.0000
  H   H283      1.0  0.16834  0.44469  0.41518  1.0000
  H   H284      1.0  0.08898  0.14574  0.46842  1.0000
  C   C364      1.0  0.19660  0.25962  0.44057  1.0000
  C   C365      1.0  0.13415  0.29357  0.57240  1.0000
  C   C366      1.0  0.14579  0.37270  0.50857  1.0000
  C   C367      1.0  0.02253  0.26029  0.34717  1.0000
  H   H285      1.0  0.02886  0.27848  0.49262  1.0000
  H   H286      1.0  0.22151  0.00020  0.53050  1.0000
  H   H287      1.0  0.06773  0.03857  0.29725  1.0000
  H   H288      1.0  0.21622  0.26494  0.48347  1.0000
  C   C368      1.0  0.11586  0.33488  0.59666  1.0000
  H   H289      1.0  0.13424  0.98127  0.51639  1.0000
  C   C369      1.0  0.10763  0.18288  0.51325  1.0000
  P   P13       1.0  0.19305  0.01906  0.47283  1.0000
  C   C370      1.0  0.20858  0.40836  0.42636  1.0000
  C   C371      1.0  0.18353  0.04353  0.46554  1.0000
  C   C372      1.0  0.17756  0.04989  0.44817  1.0000
  C   C373      1.0  0.17023  0.06886  0.44282  1.0000
  C   C374      1.0  0.16880  0.08162  0.45474  1.0000
  C   C375      1.0  0.17447  0.07538  0.47213  1.0000
  C   C376      1.0  0.18178  0.05644  0.47753  1.0000
  H   H290      1.0  0.13865  0.43578  0.62015  1.0000
  C   C377      1.0  0.02342  0.24018  0.57501  1.0000
  C   C378      1.0  0.19110  0.39990  0.35731  1.0000
  C   C379      1.0  0.01746  0.30559  0.59181  1.0000
  C   C380      1.0  0.15785  0.01734  0.49568  1.0000
  H   H291      1.0  0.03855  0.11070  0.31000  1.0000
  C   C381      1.0  0.21040  0.01828  0.48711  1.0000
  C   C382      1.0  0.21403  0.39494  0.41461  1.0000
  H   H292      1.0  0.20102  0.27637  0.52956  1.0000
  C   C383      1.0  0.19130  0.00317  0.44241  1.0000
  C   C384      1.0  0.17819  0.17707  0.52328  1.0000
  C   C385      1.0  0.99704  0.40236  0.31485  1.0000
  S   S52       1.0  0.21311  0.45792  0.39081  1.0000
  H   H293      1.0  0.99062  0.29340  0.54141  1.0000
  H   H294      1.0  0.00179  0.02645  0.29888  1.0000
  C   C386      1.0  0.03566  0.12584  0.49890  1.0000
  H   H295      1.0  0.17888  0.04044  0.43848  1.0000
  H   H296      1.0  0.16602  0.07373  0.42923  1.0000
  H   H297      1.0  0.16348  0.09640  0.45049  1.0000
  H   H298      1.0  0.17347  0.08530  0.48134  1.0000
  H   H299      1.0  0.18620  0.05197  0.49105  1.0000
  H   H300      1.0  0.03028  0.21005  0.57816  1.0000
  H   H301      1.0  0.22494  0.36132  0.35184  1.0000
  C   C387      1.0  0.20316  0.00728  0.45304  1.0000
  H   H302      1.0  0.14507  0.15652  0.54361  1.0000
  H   H303      1.0  0.15607  0.03240  0.49461  1.0000
  C   C388      1.0  0.21826  0.98796  0.42294  1.0000
  C   C389      1.0  0.19088  0.27609  0.44816  1.0000
  C   C390      1.0  0.16600  0.44497  0.40118  1.0000
  H   H304      1.0  0.14545  0.34892  0.42834  1.0000
  S   S53       1.0  0.22751  0.11090  0.44636  1.0000
  Fe  Fe26      1.0  0.08026  0.27085  0.61065  1.0000
  C   C391      1.0  0.01922  0.18095  0.44740  1.0000
  H   H305      1.0  0.06657  0.13336  0.44965  1.0000
  H   H306      1.0  0.05369  0.26449  0.51179  1.0000
  H   H307      1.0  0.04208  0.41954  0.29703  1.0000
  H   H308      1.0  0.10473  0.34549  0.55288  1.0000
  H   H309      1.0  0.21664  0.44459  0.45115  1.0000
  C   C392      1.0  0.19006  0.44445  0.46942  1.0000
  C   C393      1.0  0.13560  0.27545  0.56879  1.0000
  C   C394      1.0  0.21753  0.42031  0.38752  1.0000
  H   H310      1.0  0.19317  0.29049  0.46976  1.0000
  C   C395      1.0  0.13316  0.21437  0.55125  1.0000
  C   C396      1.0  0.12811  0.22093  0.56828  1.0000
  S   S54       1.0  0.21943  0.07719  0.48243  1.0000
  C   C397      1.0  0.15859  0.21223  0.50668  1.0000
  C   C398      1.0  0.16208  0.20897  0.48820  1.0000
  C   C399      1.0  0.16402  0.22383  0.47319  1.0000
  C   C400      1.0  0.16225  0.24207  0.47652  1.0000
  C   C401      1.0  0.15934  0.24537  0.49484  1.0000
  C   C402      1.0  0.15766  0.23051  0.50990  1.0000
  C   C403      1.0  0.15980  0.97109  0.31592  1.0000
  H   H311      1.0  0.20520  0.40391  0.44134  1.0000
  C   C404      1.0  0.19419  0.18240  0.52668  1.0000
  H   H312      1.0  0.09005  0.00848  0.29805  1.0000
  C   C405      1.0  0.13664  0.34391  0.52702  1.0000
  C   C406      1.0  0.18018  0.16014  0.51670  1.0000
  C   C407      1.0  0.12275  0.19135  0.51376  1.0000
  H   H313      1.0  0.12445  0.21999  0.54055  1.0000
  H   H314      1.0  0.11573  0.23155  0.57062  1.0000
  H   H315      1.0  0.16292  0.19499  0.48537  1.0000
  H   H316      1.0  0.16611  0.22131  0.45895  1.0000
  H   H317      1.0  0.16258  0.25373  0.46493  1.0000
  H   H318      1.0  0.15808  0.25954  0.49732  1.0000
  H   H319      1.0  0.15544  0.23350  0.52390  1.0000
  H   H320      1.0  0.19488  0.42829  0.34497  1.0000
  H   H321      1.0  0.00374  0.30364  0.59975  1.0000
  H   H322      1.0  0.15975  0.38763  0.52199  1.0000
  C   C408      1.0  0.11537  0.17332  0.43538  1.0000
  C   C409      1.0  0.15462  0.19972  0.57958  1.0000
  C   C410      1.0  0.17195  0.37980  0.40000  1.0000
  Fe  Fe27      1.0  0.20015  0.38013  0.62313  1.0000
  H   H323      1.0  0.05226  0.32934  0.59174  1.0000
  C   C411      1.0  0.21631  0.03531  0.39601  1.0000
  H   H324      1.0  0.19715  0.23741  0.50102  1.0000
  C   C412      1.0  0.08278  0.34778  0.59753  1.0000
  H   H325      1.0  0.21312  0.23203  0.44271  1.0000
  H   H326      1.0  0.11862  0.14150  0.54211  1.0000
  C   C413      1.0  0.99078  0.28877  0.34602  1.0000
  C   C414      1.0  0.00822  0.28692  0.51597  1.0000
  C   C415      1.0  0.03712  0.20474  0.47136  1.0000
  C   C416      1.0  0.21056  0.26309  0.47173  1.0000
  H   H327      1.0  0.18102  0.28752  0.44198  1.0000
  C   C417      1.0  0.19962  0.38092  0.35878  1.0000
  C   C418      1.0  0.18065  0.43845  0.48740  1.0000
  C   C419      1.0  0.00231  0.28675  0.35948  1.0000
  C   C420      1.0  0.21997  0.42865  0.47860  1.0000
  H   H328      1.0  0.01900  0.24162  0.56167  1.0000
  C   C421      1.0  0.01106  0.26204  0.33391  1.0000
  C   C422      1.0  0.99521  0.27619  0.33331  1.0000
  H   H329      1.0  0.12737  0.32882  0.60420  1.0000
  H   H330      1.0  0.02682  0.23222  0.47850  1.0000
  C   C423      1.0  0.02783  0.33085  0.30721  1.0000
  C   C424      1.0  0.22268  0.00140  0.44853  1.0000
  H   H331      1.0  0.22122  0.42477  0.37259  1.0000
  C   C425      1.0  0.04917  0.10135  0.30223  1.0000
  C   C426      1.0  0.20811  0.23106  0.50919  1.0000
  H   H332      1.0  0.17620  0.00742  0.44567  1.0000
  H   H333      1.0  0.03845  0.23388  0.62335  1.0000
  H   H334      1.0  0.00715  0.18597  0.40448  1.0000
  C   C427      1.0  0.23015  0.99166  0.43363  1.0000
  H   H335      1.0  0.15346  0.40770  0.30496  1.0000
  S   S55       1.0  0.99592  0.15642  0.32229  1.0000
  H   H336      1.0  0.18972  0.99127  0.41870  1.0000
  H   H337      1.0  0.09602  0.33854  0.62191  1.0000
  H   H338      1.0  0.18361  0.42310  0.51502  1.0000
  H   H339      1.0  0.98398  0.34146  0.32923  1.0000
  H   H340      1.0  0.22602  0.31057  0.55406  1.0000
  C   C428      1.0  0.22016  0.05841  0.33898  1.0000
  H   H341      1.0  0.98706  0.31421  0.56652  1.0000
  H   H342      1.0  0.98621  0.25742  0.59623  1.0000
  H   H343      1.0  0.99278  0.18903  0.43731  1.0000
  H   H344      1.0  0.20948  0.04978  0.34526  1.0000
  C   C429      1.0  0.14540  0.98850  0.50811  1.0000
  H   H345      1.0  0.98620  0.27697  0.32324  1.0000
  H   H346      1.0  0.20345  0.07630  0.31949  1.0000
  H   H347      1.0  0.22406  0.17499  0.52671  1.0000
  H   H348      1.0  0.98974  0.36680  0.34281  1.0000
  C   C430      1.0  0.99346  0.13190  0.29985  1.0000
  C   C431      1.0  0.03514  0.21994  0.60178  1.0000
  C   C432      1.0  0.19885  0.99376  0.42730  1.0000
  H   H349      1.0  0.22170  0.15959  0.45584  1.0000
  H   H350      1.0  0.12152  0.42613  0.31107  1.0000
  C   C433      1.0  0.16473  0.46509  0.30568  1.0000
  C   C434      1.0  0.22358  0.17251  0.45937  1.0000
  C   C435      1.0  0.22002  0.40871  0.33824  1.0000
  S   S56       1.0  0.17133  0.39780  0.62484  1.0000
  H   H351      1.0  0.07219  0.10865  0.31128  1.0000
  C   C436      1.0  0.22901  0.20557  0.46898  1.0000
  C   C437      1.0  0.06815  0.10022  0.30294  1.0000
  C   C438      1.0  0.22642  0.22454  0.50039  1.0000
  H   H352      1.0  0.04001  0.20602  0.60905  1.0000
  Fe  Fe28      1.0  0.22796  0.32160  0.48096  1.0000
  H   H353      1.0  0.00545  0.12330  0.30543  1.0000
  H   H354      1.0  0.22786  0.41951  0.33021  1.0000
  C   C439      1.0  0.23024  0.08492  0.31679  1.0000
  H   H355      1.0  0.22977  0.08758  0.82741  1.0000
  S   S57       1.0  0.17420  0.40054  0.66819  1.0000
  Fe  Fe29      1.0  0.16534  0.38066  0.65358  1.0000
  S   S58       1.0  0.13741  0.37007  0.66374  1.0000
  H   H356      1.0  0.21131  0.19130  0.87928  1.0000
  H   H357      1.0  0.04242  0.16995  0.68576  1.0000
  S   S59       1.0  0.19356  0.36202  0.65134  1.0000
  C   C440      1.0  0.12180  0.23699  0.67981  1.0000
  H   H358      1.0  0.09796  0.18018  0.67812  1.0000
  Fe  Fe30      1.0  0.07667  0.25424  0.65286  1.0000
  S   S60       1.0  0.07372  0.28231  0.66099  1.0000
  S   S61       1.0  0.07702  0.22756  0.67493  1.0000
  H   H359      1.0  0.13754  0.44571  0.74835  1.0000
  P   P14       1.0  0.20664  0.12501  0.82496  1.0000
  H   H360      1.0  0.02173  0.23806  0.74469  1.0000
  C   C441      1.0  0.00657  0.15533  0.76645  1.0000
  C   C442      1.0  0.18233  0.97318  0.70165  1.0000
  C   C443      1.0  0.21181  0.40693  0.72438  1.0000
  Fe  Fe31      1.0  0.06613  0.20645  0.78532  1.0000
  S   S62       1.0  0.04385  0.20236  0.81096  1.0000
  S   S63       1.0  0.06229  0.23169  0.76206  1.0000
  Fe  Fe32      1.0  0.09240  0.17168  0.79983  1.0000
  S   S64       1.0  0.07202  0.16445  0.82609  1.0000
  S   S65       1.0  0.12258  0.15701  0.79351  1.0000
  Fe  Fe33      1.0  0.05005  0.17210  0.80745  1.0000
  S   S66       1.0  0.02671  0.15457  0.81390  1.0000
  Fe  Fe34      1.0  0.06737  0.19516  0.82783  1.0000
  S   S67       1.0  0.06218  0.20356  0.85685  1.0000
  S   S68       1.0  0.07094  0.17667  0.78087  1.0000
  S   S69       1.0  0.08908  0.20204  0.80243  1.0000
  Fe  Fe35      1.0  0.21615  0.04775  0.79765  1.0000
  H   H361      1.0  0.20870  0.03315  0.74077  1.0000
  H   H362      1.0  0.10508  0.17277  0.70987  1.0000
  Fe  Fe36      1.0  0.17442  0.05438  0.81376  1.0000
  S   S70       1.0  0.17810  0.03195  0.83892  1.0000
  S   S71       1.0  0.14428  0.06841  0.81230  1.0000
  Fe  Fe37      1.0  0.20317  0.04436  0.84032  1.0000
  S   S72       1.0  0.20280  0.05217  0.86893  1.0000
  Fe  Fe38      1.0  0.19710  0.01464  0.81860  1.0000
  H   H363      1.0  0.21715  0.44983  0.63156  1.0000
  S   S73       1.0  0.19831  0.06780  0.81599  1.0000
  S   S74       1.0  0.19177  0.03634  0.79329  1.0000
  H   H364      1.0  0.20123  0.41859  0.72829  1.0000
  C   C444      1.0  0.12447  0.29869  0.70913  1.0000
  Fe  Fe39      1.0  0.10870  0.23209  0.93478  1.0000
  S   S75       1.0  0.11357  0.22914  0.90377  1.0000
  S   S76       1.0  0.09278  0.21432  0.95877  1.0000
  C   C445      1.0  0.15705  0.97713  0.79287  1.0000
  S   S77       1.0  0.13562  0.22428  0.94650  1.0000
  S   S78       1.0  0.10018  0.25837  0.94792  1.0000
  C   C446      1.0  0.07752  0.42709  0.69302  1.0000
  C   C447      1.0  0.14330  0.29306  0.70113  1.0000
  C   C448      1.0  0.08504  0.29310  0.71755  1.0000
  H   H365      1.0  0.07459  0.39887  0.74360  1.0000
  C   C449      1.0  0.21990  0.05645  0.88061  1.0000
  H   H366      1.0  0.19469  0.99778  0.69776  1.0000
  H   H367      1.0  0.19919  0.07352  0.89787  1.0000
  C   C450      1.0  0.20688  0.10932  0.77504  1.0000
  C   C451      1.0  0.14830  0.32530  0.69465  1.0000
  P   P15       1.0  0.10913  0.28154  0.71819  1.0000
  S   S79       1.0  0.20670  0.37586  0.95971  1.0000
  C   C452      1.0  0.22469  0.46045  0.67840  1.0000
  C   C453      1.0  0.16857  0.98515  0.80086  1.0000
  C   C454      1.0  0.16027  0.46948  0.67974  1.0000
  H   H368      1.0  0.16597  0.00014  0.80065  1.0000
  C   C455      1.0  0.08839  0.41901  0.72282  1.0000
  C   C456      1.0  0.07712  0.20992  0.86978  1.0000
  C   C457      1.0  0.09526  0.21350  0.86180  1.0000
  C   C458      1.0  0.10625  0.21910  0.87248  1.0000
  C   C459      1.0  0.09932  0.22124  0.89125  1.0000
  C   C460      1.0  0.08130  0.21741  0.89929  1.0000
  C   C461      1.0  0.07031  0.21183  0.88861  1.0000
  H   H369      1.0  0.10068  0.21229  0.84732  1.0000
  H   H370      1.0  0.12013  0.22206  0.86606  1.0000
  H   H371      1.0  0.07567  0.21911  0.91363  1.0000
  H   H372      1.0  0.05629  0.20920  0.89495  1.0000
  C   C462      1.0  0.12824  0.13235  0.79843  1.0000
  C   C463      1.0  0.11478  0.12140  0.80820  1.0000
  C   C464      1.0  0.11985  0.10177  0.81224  1.0000
  C   C465      1.0  0.13845  0.09303  0.80693  1.0000
  C   C466      1.0  0.15188  0.10396  0.79709  1.0000
  C   C467      1.0  0.14674  0.12358  0.79273  1.0000
  H   H373      1.0  0.10050  0.12805  0.81266  1.0000
  H   H374      1.0  0.10936  0.09334  0.81969  1.0000
  H   H375      1.0  0.16612  0.09720  0.79265  1.0000
  H   H376      1.0  0.15712  0.13201  0.78499  1.0000
  C   C468      1.0  0.11459  0.26384  0.70336  1.0000
  C   C469      1.0  0.01769  0.15805  0.77865  1.0000
  C   C470      1.0  0.01285  0.15224  0.79795  1.0000
  H   H377      1.0  0.01066  0.15950  0.75153  1.0000
  H   H378      1.0  0.03015  0.16433  0.77313  1.0000
  C   C471      1.0  0.07245  0.22895  0.69915  1.0000
  C   C472      1.0  0.06767  0.24618  0.70545  1.0000
  C   C473      1.0  0.06436  0.24678  0.72472  1.0000
  C   C474      1.0  0.06594  0.23018  0.73797  1.0000
  C   C475      1.0  0.07046  0.21294  0.73175  1.0000
  C   C476      1.0  0.07368  0.21233  0.71245  1.0000
  H   H379      1.0  0.06645  0.25910  0.69555  1.0000
  H   H380      1.0  0.06060  0.26023  0.72933  1.0000
  H   H381      1.0  0.07122  0.20011  0.74184  1.0000
  H   H382      1.0  0.07707  0.19895  0.70777  1.0000
  C   C477      1.0  0.13360  0.35040  0.65567  1.0000
  H   H383      1.0  0.14555  0.98610  0.78668  1.0000
  C   C478      1.0  0.20313  0.21044  0.91893  1.0000
  C   C479      1.0  0.08965  0.42916  0.70448  1.0000
  C   C480      1.0  0.11256  0.32900  0.65482  1.0000
  C   C481      1.0  0.11579  0.34492  0.66058  1.0000
  S   S80       1.0  0.17762  0.44819  0.63116  1.0000
  C   C482      1.0  0.06006  0.30742  0.69957  1.0000
  H   H384      1.0  0.09883  0.32491  0.65869  1.0000
  H   H385      1.0  0.10447  0.35296  0.66897  1.0000
  H   H386      1.0  0.21100  0.39759  0.87948  1.0000
  H   H387      1.0  0.21063  0.29149  0.93713  1.0000
  H   H388      1.0  0.14878  0.27843  0.70031  1.0000
  C   C483      1.0  0.15511  0.30636  0.69381  1.0000
  H   H389      1.0  0.15731  0.33571  0.68856  1.0000
  C   C484      1.0  0.13210  0.43757  0.63431  1.0000
  H   H390      1.0  0.99310  0.13901  0.81976  1.0000
  C   C485      1.0  0.16583  0.45687  0.66697  1.0000
  H   H391      1.0  0.17564  0.22386  0.93117  1.0000
  H   H392      1.0  0.17030  0.97448  0.96167  1.0000
  H   H393      1.0  0.16613  0.44201  0.67190  1.0000
  H   H394      1.0  0.19430  0.08228  0.93736  1.0000
  H   H395      1.0  0.07827  0.43475  0.67880  1.0000
  H   H396      1.0  0.21004  0.07395  0.71925  1.0000
  S   S81       1.0  0.12411  0.29836  0.63623  1.0000
  H   H397      1.0  0.20991  0.06593  0.75361  1.0000
  H   H398      1.0  0.20257  0.24818  0.91071  1.0000
  C   C486      1.0  0.17506  0.46127  0.74421  1.0000
  H   H399      1.0  0.07535  0.34351  0.95082  1.0000
  H   H400      1.0  0.13835  0.28017  0.74059  1.0000
  H   H401      1.0  0.09994  0.15463  0.66040  1.0000
  H   H402      1.0  0.98834  0.41110  0.76659  1.0000
  H   H403      1.0  0.98874  0.19364  0.76012  1.0000
  C   C487      1.0  0.99512  0.20393  0.76382  1.0000
  H   H404      1.0  0.21233  0.33849  0.86848  1.0000
  C   C488      1.0  0.20274  0.15013  0.82378  1.0000
  H   H405      1.0  0.11037  0.09011  0.87942  1.0000
  S   S82       1.0  0.19822  0.98320  0.81958  1.0000
  H   H406      1.0  0.19753  0.08925  0.84748  1.0000
  C   C489      1.0  0.17803  0.99253  0.72553  1.0000
  C   C490      1.0  0.18922  0.15308  0.95233  1.0000
  C   C491      1.0  0.12672  0.42225  0.64740  1.0000
  H   H407      1.0  0.17017  0.01880  0.93405  1.0000
  C   C492      1.0  0.15089  0.10262  0.84653  1.0000
  C   C493      1.0  0.18593  0.98875  0.70746  1.0000
  C   C494      1.0  0.99020  0.14735  0.77344  1.0000
  H   H408      1.0  0.12389  0.22680  0.67066  1.0000
  C   C495      1.0  0.22202  0.26101  0.85644  1.0000
  C   C496      1.0  0.99907  0.19192  0.83826  1.0000
  H   H409      1.0  0.98855  0.19351  0.79329  1.0000
  H   H410      1.0  0.13806  0.09674  0.84980  1.0000
  Fe  Fe40      1.0  0.09695  0.28790  0.63684  1.0000
  H   H411      1.0  0.19681  0.10587  0.76810  1.0000
  H   H412      1.0  0.15626  0.07846  0.89036  1.0000
  C   C497      1.0  0.98435  0.18617  0.83295  1.0000
  H   H413      1.0  0.19332  0.44498  0.76315  1.0000
  H   H414      1.0  0.01296  0.18334  0.83699  1.0000
  C   C498      1.0  0.04767  0.31081  0.71598  1.0000
  C   C499      1.0  0.05405  0.30597  0.73311  1.0000
  C   C500      1.0  0.07273  0.29740  0.73388  1.0000
  C   C501      1.0  0.11222  0.27051  0.74182  1.0000
  C   C502      1.0  0.12787  0.27218  0.74900  1.0000
  C   C503      1.0  0.13010  0.26352  0.76728  1.0000
  C   C504      1.0  0.11677  0.25311  0.77849  1.0000
  C   C505      1.0  0.10121  0.25136  0.77143  1.0000
  C   C506      1.0  0.09895  0.26001  0.75321  1.0000
  H   H415      1.0  0.03317  0.31730  0.71536  1.0000
  H   H416      1.0  0.04449  0.30878  0.74582  1.0000
  H   H417      1.0  0.07739  0.29412  0.74726  1.0000
  H   H418      1.0  0.14214  0.26493  0.77277  1.0000
  H   H419      1.0  0.11843  0.24642  0.79266  1.0000
  H   H420      1.0  0.09080  0.24332  0.78005  1.0000
  H   H421      1.0  0.08680  0.25851  0.74798  1.0000
  H   H422      1.0  0.10863  0.24048  0.72564  1.0000
  C   C507      1.0  0.15067  0.12133  0.83788  1.0000
  C   C508      1.0  0.99500  0.20382  0.78270  1.0000
  C   C509      1.0  0.01752  0.27251  0.69034  1.0000
  C   C510      1.0  0.12358  0.25561  0.67225  1.0000
  C   C511      1.0  0.12567  0.03047  0.75201  1.0000
  C   C512      1.0  0.12587  0.03716  0.76825  1.0000
  C   C513      1.0  0.14297  0.03659  0.77381  1.0000
  C   C514      1.0  0.15985  0.02931  0.76317  1.0000
  C   C515      1.0  0.15980  0.02235  0.74700  1.0000
  C   C516      1.0  0.14257  0.02317  0.74135  1.0000
  P   P16       1.0  0.18164  0.01294  0.73322  1.0000
  C   C517      1.0  0.19963  0.12639  0.89255  1.0000
  C   C518      1.0  0.18466  0.11693  0.83533  1.0000
  H   H423      1.0  0.98924  0.42043  0.73231  1.0000
  H   H424      1.0  0.12112  0.28342  0.67764  1.0000
  C   C519      1.0  0.11996  0.26899  0.68392  1.0000
  H   H425      1.0  0.18177  0.17366  0.92866  1.0000
  C   C520      1.0  0.16855  0.04895  0.92944  1.0000
  C   C521      1.0  0.16639  0.31957  0.95849  1.0000
  C   C522      1.0  0.14496  0.32387  0.63929  1.0000
  H   H426      1.0  0.18209  0.18323  0.85107  1.0000
  H   H427      1.0  0.06411  0.15468  0.70812  1.0000
  C   C523      1.0  0.21467  0.23838  0.93601  1.0000
  C   C524      1.0  0.21936  0.45278  0.64459  1.0000
  H   H428      1.0  0.22758  0.44898  0.93986  1.0000
  C   C525      1.0  0.21111  0.39950  0.70854  1.0000
  H   H429      1.0  0.11239  0.03075  0.74779  1.0000
  H   H430      1.0  0.11279  0.04264  0.77663  1.0000
  H   H431      1.0  0.14314  0.04163  0.78650  1.0000
  H   H432      1.0  0.17288  0.02886  0.76776  1.0000
  H   H433      1.0  0.14218  0.01796  0.72885  1.0000
  H   H434      1.0  0.16812  0.07659  0.85643  1.0000
  H   H435      1.0  0.16515  0.42162  0.73943  1.0000
  C   C526      1.0  0.12717  0.31843  0.64409  1.0000
  C   C527      1.0  0.12971  0.45504  0.63967  1.0000
  H   H436      1.0  0.22222  0.44749  0.74033  1.0000
  H   H437      1.0  0.22683  0.30658  0.86300  1.0000
  C   C528      1.0  0.18271  0.06094  0.69378  1.0000
  C   C529      1.0  0.22496  0.11348  0.83843  1.0000
  H   H438      1.0  0.16947  0.30207  0.68718  1.0000
  H   H439      1.0  0.16714  0.14250  0.82408  1.0000
  C   C530      1.0  0.16665  0.98046  0.73763  1.0000
  C   C531      1.0  0.21399  0.11910  0.80175  1.0000
  C   C532      1.0  0.02853  0.25589  0.68551  1.0000
  C   C533      1.0  0.02506  0.23854  0.69605  1.0000
  C   C534      1.0  0.01049  0.23773  0.71160  1.0000
  C   C535      1.0  0.20407  0.18160  0.80614  1.0000
  P   P17       1.0  0.00576  0.21549  0.72554  1.0000
  C   C536      1.0  0.02462  0.19650  0.71994  1.0000
  C   C537      1.0  0.00416  0.21665  0.74989  1.0000
  C   C538      1.0  0.16437  0.06578  0.91701  1.0000
  S   S83       1.0  0.02738  0.31222  0.64884  1.0000
  C   C539      1.0  0.00382  0.21647  0.78783  1.0000
  C   C540      1.0  0.12207  0.45723  0.65814  1.0000
  H   H440      1.0  0.13971  0.03710  0.95891  1.0000
  C   C541      1.0  0.03702  0.18781  0.73249  1.0000
  C   C542      1.0  0.05112  0.17271  0.72828  1.0000
  C   C543      1.0  0.05310  0.16629  0.71143  1.0000
  C   C544      1.0  0.19870  0.46346  0.87101  1.0000
  C   C545      1.0  0.02663  0.18987  0.70310  1.0000
  C   C546      1.0  0.99083  0.97542  0.72467  1.0000
  C   C547      1.0  0.01320  0.22894  0.77404  1.0000
  H   H441      1.0  0.08816  0.29652  0.68745  1.0000
  C   C548      1.0  0.21184  0.03226  0.93343  1.0000
  H   H442      1.0  0.06757  0.46444  0.69815  1.0000
  H   H443      1.0  0.22777  0.03956  0.68135  1.0000
  C   C549      1.0  0.14815  0.33980  0.64496  1.0000
  H   H444      1.0  0.20507  0.44176  0.79548  1.0000
  H   H445      1.0  0.03996  0.25642  0.67371  1.0000
  H   H446      1.0  0.03404  0.22595  0.69211  1.0000
  H   H447      1.0  0.16563  0.07911  0.92000  1.0000
  C   C550      1.0  0.00464  0.30779  0.64885  1.0000
  C   C551      1.0  0.18892  0.03049  0.71361  1.0000
  H   H448      1.0  0.00387  0.21628  0.80244  1.0000
  H   H449      1.0  0.13757  0.13009  0.83478  1.0000
  H   H450      1.0  0.02030  0.28591  0.68217  1.0000
  H   H451      1.0  0.03596  0.19262  0.74554  1.0000
  H   H452      1.0  0.06053  0.16612  0.73810  1.0000
  H   H453      1.0  0.21713  0.01504  0.70732  1.0000
  C   C552      1.0  0.98376  0.29238  0.63815  1.0000
  H   H454      1.0  0.01718  0.19635  0.69327  1.0000
  H   H455      1.0  0.19434  0.99454  0.94649  1.0000
  C   C553      1.0  0.99952  0.25456  0.71641  1.0000
  C   C554      1.0  0.01358  0.22891  0.75513  1.0000
  C   C555      1.0  0.21039  0.01920  0.74907  1.0000
  S   S84       1.0  0.10140  0.25893  0.62984  1.0000
  C   C556      1.0  0.15512  0.41792  0.71541  1.0000
  C   C557      1.0  0.15406  0.42605  0.73106  1.0000
  S   S85       1.0  0.22384  0.37384  0.68411  1.0000
  C   C558      1.0  0.99675  0.14386  0.80489  1.0000
  H   H456      1.0  0.05542  0.41310  0.69071  1.0000
  C   C559      1.0  0.14090  0.42359  0.70454  1.0000
  H   H457      1.0  0.20604  0.06888  0.67270  1.0000
  H   H458      1.0  0.21411  0.44026  0.82614  1.0000
  C   C560      1.0  0.19026  0.11547  0.88559  1.0000
  C   C561      1.0  0.22591  0.10713  0.76699  1.0000
  S   S86       1.0  0.21206  0.39997  0.63500  1.0000
  H   H459      1.0  0.05351  0.39510  0.72307  1.0000
  C   C562      1.0  0.13858  0.43967  0.73601  1.0000
  H   H460      1.0  0.20973  0.26124  0.85046  1.0000
  C   C563      1.0  0.20769  0.25207  0.92174  1.0000
  C   C564      1.0  0.11911  0.42434  0.66589  1.0000
  H   H461      1.0  0.14031  0.33043  0.94812  1.0000
  H   H462      1.0  0.16692  0.40710  0.71173  1.0000
  H   H463      1.0  0.09759  0.42029  0.73194  1.0000
  C   C565      1.0  0.00296  0.27186  0.70574  1.0000
  H   H464      1.0  0.20428  0.43147  0.66166  1.0000
  H   H465      1.0  0.14189  0.41694  0.69264  1.0000
  C   C566      1.0  0.98113  0.19151  0.72523  1.0000
  C   C567      1.0  0.20654  0.27115  0.92201  1.0000
  C   C568      1.0  0.12437  0.44541  0.72512  1.0000
  C   C569      1.0  0.22709  0.33553  0.86239  1.0000
  H   H466      1.0  0.21474  0.12287  0.89190  1.0000
  H   H467      1.0  0.19822  0.10387  0.87889  1.0000
  H   H468      1.0  0.11553  0.41209  0.67587  1.0000
  C   C570      1.0  0.18367  0.21673  0.91997  1.0000
  C   C571      1.0  0.17427  0.21384  0.90655  1.0000
  C   C572      1.0  0.18421  0.20463  0.89194  1.0000
  C   C573      1.0  0.20362  0.19853  0.89058  1.0000
  C   C574      1.0  0.21309  0.20153  0.90392  1.0000
  H   H469      1.0  0.10330  0.32250  0.71602  1.0000
  C   C575      1.0  0.21389  0.06765  0.89464  1.0000
  H   H470      1.0  0.15917  0.21857  0.90763  1.0000
  H   H471      1.0  0.17676  0.20221  0.88176  1.0000
  H   H472      1.0  0.12743  0.25981  0.65725  1.0000
  H   H473      1.0  0.10891  0.12137  0.67500  1.0000
  H   H474      1.0  0.20683  0.47034  0.77140  1.0000
  C   C576      1.0  0.15901  0.06552  0.90008  1.0000
  C   C577      1.0  0.20074  0.20603  0.95933  1.0000
  C   C578      1.0  0.17066  0.11945  0.88731  1.0000
  C   C579      1.0  0.16032  0.13445  0.89600  1.0000
  C   C580      1.0  0.16994  0.14605  0.90195  1.0000
  P   P18       1.0  0.13503  0.13962  0.89816  1.0000
  C   C581      1.0  0.12847  0.15386  0.87679  1.0000
  C   C582      1.0  0.12638  0.11760  0.90230  1.0000
  C   C583      1.0  0.12505  0.10614  0.92007  1.0000
  C   C584      1.0  0.11825  0.08924  0.92318  1.0000
  C   C585      1.0  0.11288  0.08350  0.90857  1.0000
  C   C586      1.0  0.11446  0.09459  0.89079  1.0000
  C   C587      1.0  0.12124  0.11150  0.88764  1.0000
  C   C588      1.0  0.14212  0.16090  0.86230  1.0000
  C   C589      1.0  0.13716  0.17049  0.84519  1.0000
  C   C590      1.0  0.11853  0.17324  0.84251  1.0000
  C   C591      1.0  0.10480  0.16674  0.85705  1.0000
  C   C592      1.0  0.10972  0.15705  0.87409  1.0000
  C   C593      1.0  0.12531  0.15129  0.91808  1.0000
  C   C594      1.0  0.13235  0.14463  0.93490  1.0000
  H   H475      1.0  0.99159  0.18014  0.73043  1.0000
  H   H476      1.0  0.13460  0.46671  0.62966  1.0000
  C   C595      1.0  0.10306  0.17530  0.93290  1.0000
  C   C596      1.0  0.11083  0.16701  0.91709  1.0000
  C   C597      1.0  0.20093  0.11534  0.79231  1.0000
  C   C598      1.0  0.19953  0.00611  0.74786  1.0000
  C   C599      1.0  0.15769  0.04855  0.89542  1.0000
  H   H477      1.0  0.16361  0.11086  0.88186  1.0000
  H   H478      1.0  0.16237  0.15816  0.90807  1.0000
  H   H479      1.0  0.12920  0.11010  0.93160  1.0000
  H   H480      1.0  0.11716  0.08056  0.93694  1.0000
  H   H481      1.0  0.10763  0.07040  0.91098  1.0000
  C   C600      1.0  0.12439  0.15284  0.95069  1.0000
  H   H482      1.0  0.12238  0.11975  0.87370  1.0000
  H   H483      1.0  0.15657  0.15884  0.86410  1.0000
  H   H484      1.0  0.14770  0.17572  0.83391  1.0000
  H   H485      1.0  0.11467  0.18055  0.82923  1.0000
  H   H486      1.0  0.09025  0.16937  0.85522  1.0000
  H   H487      1.0  0.09887  0.15194  0.88511  1.0000
  H   H488      1.0  0.14407  0.13316  0.93581  1.0000
  C   C601      1.0  0.22077  0.46817  0.81938  1.0000
  C   C602      1.0  0.06988  0.31544  0.95381  1.0000
  H   H489      1.0  0.09198  0.18749  0.93202  1.0000
  H   H490      1.0  0.10552  0.17314  0.90425  1.0000
  C   C603      1.0  0.07358  0.13046  0.78095  1.0000
  C   C604      1.0  0.05955  0.12528  0.77404  1.0000
  C   C605      1.0  0.06242  0.12324  0.75530  1.0000
  C   C606      1.0  0.07932  0.12642  0.74344  1.0000
  C   C607      1.0  0.09331  0.13214  0.75018  1.0000
  C   C608      1.0  0.09036  0.13393  0.76907  1.0000
  P   P19       1.0  0.11515  0.13662  0.73504  1.0000
  C   C609      1.0  0.12213  0.15640  0.74099  1.0000
  C   C610      1.0  0.13332  0.11613  0.73800  1.0000
  C   C611      1.0  0.13251  0.10322  0.75489  1.0000
  C   C612      1.0  0.14687  0.08770  0.75724  1.0000
  C   C613      1.0  0.16225  0.08502  0.74288  1.0000
  C   C614      1.0  0.16331  0.09791  0.72613  1.0000
  C   C615      1.0  0.14893  0.11342  0.72368  1.0000
  C   C616      1.0  0.10862  0.17225  0.74451  1.0000
  C   C617      1.0  0.11382  0.18781  0.74877  1.0000
  C   C618      1.0  0.13257  0.18757  0.74973  1.0000
  C   C619      1.0  0.14613  0.17180  0.74638  1.0000
  C   C620      1.0  0.14096  0.15625  0.74204  1.0000
  C   C621      1.0  0.11114  0.14251  0.71105  1.0000
  C   C622      1.0  0.11212  0.12815  0.70094  1.0000
  C   C623      1.0  0.10816  0.13252  0.68272  1.0000
  C   C624      1.0  0.10309  0.15124  0.67448  1.0000
  C   C625      1.0  0.10203  0.16562  0.68443  1.0000
  C   C626      1.0  0.10608  0.16130  0.70260  1.0000
  H   H491      1.0  0.07126  0.13211  0.79549  1.0000
  H   H492      1.0  0.04642  0.12295  0.78322  1.0000
  H   H493      1.0  0.05147  0.11923  0.75000  1.0000
  H   H494      1.0  0.08124  0.12459  0.72906  1.0000
  H   H495      1.0  0.10096  0.13824  0.77458  1.0000
  H   H496      1.0  0.12100  0.10515  0.76643  1.0000
  H   H497      1.0  0.14620  0.07790  0.77038  1.0000
  H   H498      1.0  0.17345  0.07308  0.74486  1.0000
  H   H499      1.0  0.17544  0.09600  0.71514  1.0000
  H   H500      1.0  0.15014  0.12346  0.71074  1.0000
  H   H501      1.0  0.09405  0.17254  0.74390  1.0000
  H   H502      1.0  0.10326  0.19991  0.75168  1.0000
  H   H503      1.0  0.13650  0.19945  0.75347  1.0000
  H   H504      1.0  0.16058  0.17146  0.74755  1.0000
  H   H505      1.0  0.15166  0.14413  0.73977  1.0000
  H   H506      1.0  0.11569  0.11356  0.70723  1.0000
  C   C627      1.0  0.16751  0.12840  0.83201  1.0000
  H   H507      1.0  0.20014  0.40546  0.70031  1.0000
  C   C628      1.0  0.20169  0.98838  0.75932  1.0000
  P   P20       1.0  0.10690  0.44442  0.69542  1.0000
  C   C629      1.0  0.17661  0.04721  0.70860  1.0000
  C   C630      1.0  0.04089  0.17489  0.69884  1.0000
  C   C631      1.0  0.20926  0.45387  0.79852  1.0000
  C   C632      1.0  0.11673  0.23165  0.69912  1.0000
  H   H508      1.0  0.16194  0.34377  0.64117  1.0000
  H   H509      1.0  0.19681  0.15056  0.90546  1.0000
  C   C633      1.0  0.11309  0.24499  0.71086  1.0000
  C   C634      1.0  0.07871  0.29877  0.70033  1.0000
  C   C635      1.0  0.20111  0.05810  0.68394  1.0000
  H   H510      1.0  0.12437  0.34578  0.70293  1.0000
  H   H511      1.0  0.05517  0.31142  0.68623  1.0000
  C   C636      1.0  0.16692  0.03196  0.92478  1.0000
  H   H512      1.0  0.06621  0.31759  0.94002  1.0000
  H   H513      1.0  0.02076  0.23823  0.77795  1.0000
  Fe  Fe41      1.0  0.18250  0.41625  0.63922  1.0000
  H   H514      1.0  0.15117  0.18710  0.94563  1.0000
  C   C637      1.0  0.12967  0.33099  0.70280  1.0000
  P   P21       1.0  0.21485  0.21367  0.93694  1.0000
  H   H515      1.0  0.18629  0.11422  0.94499  1.0000
  C   C638      1.0  0.14406  0.30019  0.95588  1.0000
  C   C639      1.0  0.18950  0.14189  0.90037  1.0000
  H   H516      1.0  0.17325  0.07387  0.68998  1.0000
  C   C640      1.0  0.21448  0.98392  0.77176  1.0000
  C   C641      1.0  0.06451  0.41487  0.69974  1.0000
  Fe  Fe42      1.0  0.20316  0.38332  0.66344  1.0000
  C   C642      1.0  0.18457  0.09848  0.84492  1.0000
  H   H517      1.0  0.11493  0.21730  0.70494  1.0000
  C   C643      1.0  0.11776  0.31776  0.71002  1.0000
  H   H518      1.0  0.20857  0.43837  0.69149  1.0000
  C   C644      1.0  0.14944  0.31791  0.95355  1.0000
  C   C645      1.0  0.20807  0.16212  0.80699  1.0000
  C   C646      1.0  0.22673  0.07142  0.90447  1.0000
  H   H519      1.0  0.16237  0.04981  0.71614  1.0000
  C   C647      1.0  0.09618  0.46864  0.69632  1.0000
  C   C648      1.0  0.21194  0.04612  0.96026  1.0000
  S   S87       1.0  0.17224  0.34217  0.95622  1.0000
  H   H520      1.0  0.15633  0.31577  0.63101  1.0000
  H   H521      1.0  0.21957  0.38480  0.91089  1.0000
  C   C649      1.0  0.20737  0.02775  0.70359  1.0000
  C   C650      1.0  0.07503  0.33001  0.95991  1.0000
  H   H522      1.0  0.12883  0.40860  0.64332  1.0000
  C   C651      1.0  0.98101  0.42472  0.76093  1.0000
  C   C652      1.0  0.10968  0.16807  0.94974  1.0000
  H   H523      1.0  0.18622  0.11656  0.79846  1.0000
  C   C653      1.0  0.20896  0.45409  0.73603  1.0000
  S   S88       1.0  0.22275  0.02502  0.82210  1.0000
  C   C654      1.0  0.21442  0.44645  0.67844  1.0000
  C   C655      1.0  0.22310  0.06537  0.74390  1.0000
  C   C656      1.0  0.21340  0.04151  0.68882  1.0000
  H   H524      1.0  0.16043  0.98291  0.75168  1.0000
  C   C657      1.0  0.17751  0.16807  0.94327  1.0000
  H   H525      1.0  0.13088  0.29911  0.95229  1.0000
  C   C658      1.0  0.16157  0.03177  0.90780  1.0000
  C   C659      1.0  0.19472  0.18921  0.82201  1.0000
  C   C660      1.0  0.00205  0.29424  0.63944  1.0000
  C   C661      1.0  0.19248  0.45281  0.74917  1.0000
  C   C662      1.0  0.17087  0.46352  0.64784  1.0000
  C   C663      1.0  0.12562  0.43766  0.70906  1.0000
  C   C664      1.0  0.11661  0.44190  0.67141  1.0000
  C   C665      1.0  0.22571  0.24789  0.87233  1.0000
  H   H526      1.0  0.22548  0.46712  0.83245  1.0000
  C   C666      1.0  0.16780  0.09127  0.85021  1.0000
  H   H527      1.0  0.22196  0.08030  0.91497  1.0000
  S   S89       1.0  0.21083  0.14407  0.93940  1.0000
  C   C667      1.0  0.07534  0.40683  0.72951  1.0000
  C   C668      1.0  0.22456  0.38426  0.70344  1.0000
  C   C669      1.0  0.17054  0.07228  0.95645  1.0000
  H   H528      1.0  0.10367  0.17438  0.96206  1.0000
  C   C670      1.0  0.06345  0.40472  0.71796  1.0000
  H   H529      1.0  0.98723  0.17330  0.82730  1.0000
  C   C671      1.0  0.18189  0.08578  0.94754  1.0000
  H   H530      1.0  0.15414  0.04833  0.88200  1.0000
  H   H531      1.0  0.16088  0.01860  0.90397  1.0000
  P   P22       1.0  0.17663  0.04887  0.95089  1.0000
  C   C672      1.0  0.22321  0.06993  0.72445  1.0000
  H   H532      1.0  0.98911  0.98982  0.72665  1.0000
  H   H533      1.0  0.00756  0.21321  0.84891  1.0000
  H   H534      1.0  0.15638  0.46410  0.69445  1.0000
  H   H535      1.0  0.18920  0.14879  0.85272  1.0000
  Fe  Fe43      1.0  0.05402  0.29205  0.64013  1.0000
  H   H536      1.0  0.20475  0.02930  0.92328  1.0000
  C   C673      1.0  0.18945  0.17735  0.83879  1.0000
  C   C674      1.0  0.18324  0.97376  0.80931  1.0000
  H   H537      1.0  0.06522  0.28676  0.96095  1.0000
  H   H538      1.0  0.22251  0.44577  0.88148  1.0000
  C   C675      1.0  0.20194  0.04200  0.94785  1.0000
  S   S90       1.0  0.22591  0.40870  0.75544  1.0000
  C   C676      1.0  0.19344  0.15788  0.83967  1.0000
  C   C677      1.0  0.22605  0.39932  0.73521  1.0000
  C   C678      1.0  0.20812  0.46323  0.71755  1.0000
  H   H539      1.0  0.11241  0.45583  0.72929  1.0000
  C   C679      1.0  0.22310  0.01462  0.76158  1.0000
  H   H540      1.0  0.01415  0.28567  0.63259  1.0000
  C   C680      1.0  0.16025  0.17594  0.95296  1.0000
  H   H541      1.0  0.21510  0.15654  0.79447  1.0000
  C   C681      1.0  0.17734  0.10391  0.95177  1.0000
  H   H542      1.0  0.19146  0.20431  0.82126  1.0000
  C   C682      1.0  0.21230  0.27670  0.93651  1.0000
  H   H543      1.0  0.22810  0.19673  0.90248  1.0000
  C   C683      1.0  0.17407  0.47054  0.72591  1.0000
  S   S91       1.0  0.05565  0.26360  0.63303  1.0000
  C   C684      1.0  0.21450  0.45295  0.81576  1.0000
  H   H544      1.0  0.99432  0.28479  0.70932  1.0000
  H   H545      1.0  0.99061  0.32922  0.66517  1.0000
  C   C685      1.0  0.22506  0.99705  0.77300  1.0000
  C   C686      1.0  0.98876  0.31873  0.65782  1.0000
  C   C687      1.0  0.21204  0.44244  0.66158  1.0000
  H   H546      1.0  0.22412  0.13680  0.85234  1.0000
  H   H547      1.0  0.20052  0.28169  0.91134  1.0000
  H   H548      1.0  0.98189  0.28237  0.63023  1.0000
  H   H549      1.0  0.98826  0.25430  0.72841  1.0000
  H   H550      1.0  0.20807  0.19080  0.79310  1.0000
  H   H551      1.0  0.19312  0.97818  0.75925  1.0000
  H   H552      1.0  0.16236  0.46053  0.75450  1.0000
  H   H553      1.0  0.21628  0.23794  0.87862  1.0000
  C   C688      1.0  0.22922  0.46706  0.64442  1.0000
  H   H554      1.0  0.19007  0.45256  0.87535  1.0000
  C   C689      1.0  0.19532  0.98589  0.96008  1.0000
  C   C690      1.0  0.98152  0.42998  0.74163  1.0000
  C   C691      1.0  0.98410  0.21021  0.72158  1.0000
  C   C692      1.0  0.98539  0.14156  0.79273  1.0000
  C   C693      1.0  0.22567  0.39405  0.88095  1.0000
  S   S92       1.0  0.22738  0.33375  0.95035  1.0000
  C   C694      1.0  0.99600  0.20876  0.84500  1.0000
  S   S93       1.0  0.22850  0.08912  0.95648  1.0000
  C   C695      1.0  0.21714  0.45968  0.87448  1.0000
  P   P23       1.0  0.22929  0.46412  0.70019  1.0000
  H   H555      1.0  0.18098  0.23227  0.95871  1.0000
  C   C696      1.0  0.22042  0.24411  0.95053  1.0000
  C   C697      1.0  0.21929  0.26319  0.95073  1.0000
  C   C698      1.0  0.21022  0.47006  0.78495  1.0000
  H   H556      1.0  0.22312  0.26758  0.96229  1.0000
  H   H557      1.0  0.22543  0.23381  0.96189  1.0000
  Fe  Fe44      1.0  0.12592  0.24872  0.96169  1.0000
  H   H558      1.0  0.12098  0.47078  0.66198  1.0000
  C   C699      1.0  0.19661  0.95643  0.16952  1.0000
  C   C700      1.0  0.15760  0.77513  0.96993  1.0000
  H   H559      1.0  0.12264  0.83486  0.14808  1.0000
  H   H560      1.0  0.14765  0.52484  0.19729  1.0000
  C   C701      1.0  0.05388  0.93222  0.23445  1.0000
  C   C702      1.0  0.00188  0.74882  0.26348  1.0000
  S   S94       1.0  0.12526  0.95651  0.28694  1.0000
  S   S95       1.0  0.11916  0.48751  0.23531  1.0000
  H   H561      1.0  0.20767  0.95259  0.17786  1.0000
  Fe  Fe45      1.0  0.08773  0.49080  0.24130  1.0000
  S   S96       1.0  0.06934  0.51790  0.24886  1.0000
  C   C703      1.0  0.15007  0.85210  0.10839  1.0000
  C   C704      1.0  0.14347  0.96586  0.29232  1.0000
  H   H562      1.0  0.14732  0.88730  0.22772  1.0000
  C   C705      1.0  0.10336  0.56096  0.21151  1.0000
  H   H563      1.0  0.16894  0.94695  0.09990  1.0000
  Fe  Fe46      1.0  0.11166  0.92868  0.23453  1.0000
  S   S97       1.0  0.11730  0.94876  0.20760  1.0000
  S   S98       1.0  0.10642  0.89856  0.23736  1.0000
  Fe  Fe47      1.0  0.12195  0.95479  0.25745  1.0000
  Fe  Fe48      1.0  0.14269  0.95230  0.21783  1.0000
  S   S99       1.0  0.17285  0.95025  0.20282  1.0000
  S   S100      1.0  0.09452  0.95114  0.25072  1.0000
  S   S101      1.0  0.13830  0.93071  0.24376  1.0000
  Fe  Fe49      1.0  0.08739  0.61407  0.27213  1.0000
  C   C706      1.0  0.99575  0.80464  0.16876  1.0000
  S   S102      1.0  0.10192  0.58566  0.26425  1.0000
  Fe  Fe50      1.0  0.08855  0.65618  0.25927  1.0000
  C   C707      1.0  0.17336  0.93514  0.11035  1.0000
  S   S103      1.0  0.09747  0.67817  0.23442  1.0000
  Fe  Fe51      1.0  0.22329  0.96213  0.10355  1.0000
  C   C708      1.0  0.18551  0.90591  0.13827  1.0000
  H   H564      1.0  0.06874  0.73794  0.28319  1.0000
  S   S104      1.0  0.10926  0.63177  0.27070  1.0000
  S   S105      1.0  0.06780  0.63820  0.25827  1.0000
  Fe  Fe52      1.0  0.21117  0.82882  0.04352  1.0000
  S   S106      1.0  0.20565  0.80790  0.06994  1.0000
  S   S107      1.0  0.21644  0.85882  0.04117  1.0000
  Fe  Fe53      1.0  0.19966  0.80406  0.01964  1.0000
  S   S108      1.0  0.19259  0.78216  0.04460  1.0000
  S   S109      1.0  0.20048  0.80020  0.98982  1.0000
  Fe  Fe54      1.0  0.17944  0.80654  0.05965  1.0000
  S   S110      1.0  0.14944  0.81252  0.07476  1.0000
  Fe  Fe55      1.0  0.21952  0.78543  0.05221  1.0000
  C   C709      1.0  0.17577  0.74511  0.10921  1.0000
  S   S111      1.0  0.18438  0.82819  0.03386  1.0000
  C   C710      1.0  0.10257  0.71131  0.28990  1.0000
  Fe  Fe56      1.0  0.06759  0.82720  0.19155  1.0000
  S   S112      1.0  0.08895  0.80357  0.20303  1.0000
  S   S113      1.0  0.06639  0.85864  0.19126  1.0000
  Fe  Fe57      1.0  0.05175  0.80099  0.17308  1.0000
  S   S114      1.0  0.07296  0.77602  0.18246  1.0000
  S   S115      1.0  0.03378  0.79444  0.15424  1.0000
  Fe  Fe58      1.0  0.06611  0.78591  0.20994  1.0000
  S   S116      1.0  0.06107  0.76405  0.23631  1.0000
  Fe  Fe59      1.0  0.09413  0.79536  0.17467  1.0000
  S   S117      1.0  0.12458  0.78695  0.16183  1.0000
  S   S118      1.0  0.04374  0.81036  0.20110  1.0000
  S   S119      1.0  0.07389  0.81953  0.16272  1.0000
  C   C711      1.0  0.18428  0.78939  0.98302  1.0000
  C   C712      1.0  0.16760  0.78567  0.99493  1.0000
  C   C713      1.0  0.15435  0.77851  0.98840  1.0000
  H   H565      1.0  0.16469  0.78876  0.00898  1.0000
  H   H566      1.0  0.14131  0.77601  0.99755  1.0000
  C   C714      1.0  0.14301  0.80594  0.09909  1.0000
  C   C715      1.0  0.15636  0.79720  0.11045  1.0000
  C   C716      1.0  0.15056  0.79179  0.12979  1.0000
  C   C717      1.0  0.13145  0.79498  0.13778  1.0000
  C   C718      1.0  0.11816  0.80405  0.12645  1.0000
  C   C719      1.0  0.12395  0.80951  0.10715  1.0000
  H   H567      1.0  0.17109  0.79450  0.10432  1.0000
  H   H568      1.0  0.16084  0.78502  0.13860  1.0000
  H   H569      1.0  0.10340  0.80656  0.13245  1.0000
  H   H570      1.0  0.11357  0.81634  0.09841  1.0000
  H   H571      1.0  0.13017  0.88522  0.16455  1.0000
  H   H572      1.0  0.13070  0.86817  0.19669  1.0000
  H   H573      1.0  0.12824  0.83437  0.20455  1.0000
  H   H574      1.0  0.14031  0.84229  0.11157  1.0000
  H   H575      1.0  0.17007  0.83568  0.08988  1.0000
  C   C720      1.0  0.08653  0.70190  0.23458  1.0000
  C   C721      1.0  0.09242  0.71596  0.21987  1.0000
  C   C722      1.0  0.08464  0.73502  0.22014  1.0000
  C   C723      1.0  0.07077  0.74019  0.23506  1.0000
  C   C724      1.0  0.06468  0.72609  0.24957  1.0000
  C   C725      1.0  0.07255  0.70708  0.24939  1.0000
  H   H576      1.0  0.10326  0.71214  0.20838  1.0000
  H   H577      1.0  0.08969  0.74570  0.20900  1.0000
  H   H578      1.0  0.05387  0.72987  0.26103  1.0000
  H   H579      1.0  0.06783  0.69645  0.26075  1.0000
  H   H580      1.0  0.98429  0.73390  0.14556  1.0000
  H   H581      1.0  0.22358  0.86857  0.12966  1.0000
  C   C726      1.0  0.10732  0.69310  0.28574  1.0000
  H   H582      1.0  0.17246  0.95496  0.99299  1.0000
  H   H583      1.0  0.02011  0.92221  0.22793  1.0000
  C   C727      1.0  0.03737  0.93407  0.18146  1.0000
  H   H584      1.0  0.17346  0.91722  0.17628  1.0000
  H   H585      1.0  0.21383  0.74136  0.05361  1.0000
  H   H586      1.0  0.21356  0.70752  0.05502  1.0000
  C   C728      1.0  0.07865  0.86924  0.20351  1.0000
  C   C729      1.0  0.08703  0.85913  0.21870  1.0000
  C   C730      1.0  0.09561  0.86832  0.22869  1.0000
  C   C731      1.0  0.09620  0.88767  0.22353  1.0000
  C   C732      1.0  0.08836  0.89767  0.20795  1.0000
  C   C733      1.0  0.07941  0.88856  0.19821  1.0000
  H   H587      1.0  0.08653  0.84430  0.22302  1.0000
  H   H588      1.0  0.10165  0.86039  0.24068  1.0000
  H   H589      1.0  0.08887  0.91248  0.20364  1.0000
  H   H590      1.0  0.07290  0.89657  0.18658  1.0000
  C   C734      1.0  0.20840  0.53631  0.17852  1.0000
  H   H591      1.0  0.05676  0.93207  0.27966  1.0000
  H   H592      1.0  0.19233  0.69424  0.02695  1.0000
  H   H593      1.0  0.18132  0.47737  0.12688  1.0000
  H   H594      1.0  0.04187  0.91567  0.16128  1.0000
  C   C735      1.0  0.99236  0.75696  0.20472  1.0000
  C   C736      1.0  0.17577  0.86996  0.19052  1.0000
  C   C737      1.0  0.18727  0.70414  0.09707  1.0000
  C   C738      1.0  0.17782  0.95666  0.17829  1.0000
  H   H595      1.0  0.21262  0.90427  0.11984  1.0000
  H   H596      1.0  0.16230  0.85701  0.21744  1.0000
  C   C739      1.0  0.07857  0.53657  0.25330  1.0000
  C   C740      1.0  0.06647  0.55356  0.25600  1.0000
  C   C741      1.0  0.07327  0.56866  0.25968  1.0000
  C   C742      1.0  0.09227  0.56686  0.26079  1.0000
  C   C743      1.0  0.10428  0.54972  0.25855  1.0000
  C   C744      1.0  0.09752  0.53470  0.25472  1.0000
  H   H597      1.0  0.05176  0.55507  0.25512  1.0000
  H   H598      1.0  0.06386  0.58173  0.26146  1.0000
  H   H599      1.0  0.11892  0.54802  0.25971  1.0000
  H   H600      1.0  0.10694  0.52166  0.25299  1.0000
  H   H601      1.0  0.21497  0.54557  0.14868  1.0000
  H   H602      1.0  0.12481  0.81775  0.18001  1.0000
  C   C745      1.0  0.02456  0.90425  0.20758  1.0000
  C   C746      1.0  0.04095  0.95426  0.26238  1.0000
  C   C747      1.0  0.16667  0.91500  0.14032  1.0000
  C   C748      1.0  0.19601  0.70809  0.02206  1.0000
  C   C749      1.0  0.15993  0.48049  0.15139  1.0000
  C   C750      1.0  0.18305  0.96358  0.98625  1.0000
  C   C751      1.0  0.18007  0.92719  0.27317  1.0000
  H   H603      1.0  0.15447  0.49492  0.14602  1.0000
  C   C752      1.0  0.17063  0.90394  0.18478  1.0000
  C   C753      1.0  0.21170  0.50698  0.14125  1.0000
  C   C754      1.0  0.11167  0.75512  0.13996  1.0000
  C   C755      1.0  0.11163  0.74167  0.15628  1.0000
  C   C756      1.0  0.12479  0.72509  0.15661  1.0000
  C   C757      1.0  0.13831  0.72214  0.14073  1.0000
  C   C758      1.0  0.13853  0.73566  0.12425  1.0000
  C   C759      1.0  0.12516  0.75224  0.12405  1.0000
  P   P24       1.0  0.15801  0.73362  0.10505  1.0000
  H   H604      1.0  0.20969  0.68172  0.08983  1.0000
  C   C760      1.0  0.14996  0.74434  0.08317  1.0000
  C   C761      1.0  0.15026  0.76342  0.07602  1.0000
  C   C762      1.0  0.14450  0.77160  0.05889  1.0000
  C   C763      1.0  0.13814  0.76089  0.04886  1.0000
  C   C764      1.0  0.13737  0.74198  0.05604  1.0000
  C   C765      1.0  0.14326  0.73371  0.07311  1.0000
  C   C766      1.0  0.00931  0.79350  0.15765  1.0000
  C   C767      1.0  0.99482  0.96683  0.21180  1.0000
  C   C768      1.0  0.98770  0.70942  0.19666  1.0000
  H   H605      1.0  0.03618  0.96298  0.27310  1.0000
  C   C769      1.0  0.98663  0.77474  0.20972  1.0000
  H   H606      1.0  0.16764  0.93427  0.28120  1.0000
  C   C770      1.0  0.18907  0.75199  0.09427  1.0000
  C   C771      1.0  0.98594  0.62961  0.29465  1.0000
  C   C772      1.0  0.09474  0.47602  0.16651  1.0000
  H   H607      1.0  0.10173  0.76819  0.13992  1.0000
  H   H608      1.0  0.10153  0.74423  0.16876  1.0000
  H   H609      1.0  0.12485  0.71484  0.16940  1.0000
  H   H610      1.0  0.14905  0.70972  0.14161  1.0000
  H   H611      1.0  0.12557  0.76334  0.11191  1.0000
  H   H612      1.0  0.05113  0.77019  0.27903  1.0000
  H   H613      1.0  0.14493  0.78633  0.05339  1.0000
  H   H614      1.0  0.13374  0.76730  0.03556  1.0000
  H   H615      1.0  0.13228  0.73374  0.04829  1.0000
  H   H616      1.0  0.14256  0.71906  0.07831  1.0000
  H   H617      1.0  0.21571  0.96134  0.14344  1.0000
  H   H618      1.0  0.20392  0.93040  0.22848  1.0000
  H   H619      1.0  0.09082  0.57064  0.21603  1.0000
  H   H620      1.0  0.18474  0.67617  0.26444  1.0000
  C   C773      1.0  0.22898  0.87482  0.16653  1.0000
  H   H621      1.0  0.22198  0.52751  0.17936  1.0000
  C   C774      1.0  0.09538  0.92406  0.14646  1.0000
  H   H622      1.0  0.07724  0.49782  0.15063  1.0000
  H   H623      1.0  0.15329  0.91724  0.20710  1.0000
  H   H624      1.0  0.14642  0.93729  0.12850  1.0000
  C   C775      1.0  0.98500  0.73668  0.97354  1.0000
  P   P25       1.0  0.19323  0.60867  0.29233  1.0000
  C   C776      1.0  0.08390  0.96859  0.17616  1.0000
  C   C777      1.0  0.16357  0.96175  0.16742  1.0000
  C   C778      1.0  0.16314  0.66287  0.25991  1.0000
  C   C779      1.0  0.12033  0.91248  0.11539  1.0000
  C   C780      1.0  0.18868  0.49674  0.17541  1.0000
  H   H625      1.0  0.14354  0.64607  0.25757  1.0000
  C   C781      1.0  0.15630  0.69568  0.10784  1.0000
  H   H626      1.0  0.14903  0.96203  0.17410  1.0000
  H   H627      1.0  0.99369  0.66381  0.24789  1.0000
  H   H628      1.0  0.07995  0.51592  0.28914  1.0000
  H   H629      1.0  0.09625  0.95223  0.13144  1.0000
  C   C782      1.0  0.16388  0.67709  0.10573  1.0000
  C   C783      1.0  0.08366  0.48313  0.15264  1.0000
  C   C784      1.0  0.10136  0.93741  0.13123  1.0000
  C   C785      1.0  0.18702  0.96620  0.13905  1.0000
  C   C786      1.0  0.16704  0.84818  0.09622  1.0000
  C   C787      1.0  0.12806  0.84182  0.19035  1.0000
  C   C788      1.0  0.17295  0.55819  0.17606  1.0000
  H   H630      1.0  0.98418  0.71453  0.11725  1.0000
  H   H631      1.0  0.15865  0.89346  0.28145  1.0000
  C   C789      1.0  0.18119  0.50986  0.16117  1.0000
  C   C790      1.0  0.11498  0.89902  0.13096  1.0000
  H   H632      1.0  0.15924  0.56670  0.17488  1.0000
  H   H633      1.0  0.17918  0.49255  0.18811  1.0000
  H   H634      1.0  0.11658  0.52116  0.19264  1.0000
  H   H635      1.0  0.15647  0.54001  0.28369  1.0000
  H   H636      1.0  0.12143  0.57484  0.22072  1.0000
  C   C791      1.0  0.22959  0.96434  0.27428  1.0000
  C   C792      1.0  0.17622  0.87641  0.10038  1.0000
  S   S120      1.0  0.13380  0.48564  0.18277  1.0000
  H   H637      1.0  0.08809  0.54362  0.20244  1.0000
  C   C793      1.0  0.20378  0.76232  0.11575  1.0000
  C   C794      1.0  0.20640  0.90155  0.27065  1.0000
  H   H638      1.0  0.10528  0.74048  0.27927  1.0000
  H   H639      1.0  0.06068  0.85620  0.13971  1.0000
  C   C795      1.0  0.98865  0.71534  0.27971  1.0000
  C   C796      1.0  0.02475  0.92106  0.21330  1.0000
  H   H640      1.0  0.21297  0.76609  0.08604  1.0000
  C   C797      1.0  0.14695  0.56919  0.28602  1.0000
  H   H641      1.0  0.99467  0.79674  0.21975  1.0000
  C   C798      1.0  0.13546  0.53518  0.20115  1.0000
  H   H642      1.0  0.16665  0.74185  0.13935  1.0000
  H   H643      1.0  0.07532  0.94886  0.20055  1.0000
  H   H644      1.0  0.00714  0.76174  0.25713  1.0000
  H   H645      1.0  0.21011  0.56133  0.25052  1.0000
  C   C799      1.0  0.19063  0.91068  0.28155  1.0000
  H   H646      1.0  0.20903  0.92069  0.15508  1.0000
  H   H647      1.0  0.14765  0.82381  0.97371  1.0000
  C   C800      1.0  0.17674  0.74683  0.12750  1.0000
  C   C801      1.0  0.04191  0.94950  0.23068  1.0000
  C   C802      1.0  0.16795  0.70935  0.10357  1.0000
  H   H648      1.0  0.01357  0.77371  0.13892  1.0000
  S   S121      1.0  0.22509  0.52048  0.08188  1.0000
  C   C803      1.0  0.15934  0.90402  0.20240  1.0000
  C   C804      1.0  0.20447  0.54648  0.16124  1.0000
  C   C805      1.0  0.18944  0.74141  0.02279  1.0000
  C   C806      1.0  0.18466  0.72356  0.02910  1.0000
  H   H649      1.0  0.05909  0.92346  0.22386  1.0000
  H   H650      1.0  0.21456  0.76908  0.11813  1.0000
  C   C807      1.0  0.08113  0.47137  0.14122  1.0000
  C   C808      1.0  0.21921  0.90853  0.15938  1.0000
  H   H651      1.0  0.09260  0.85841  0.08401  1.0000
  C   C809      1.0  0.20575  0.74380  0.00965  1.0000
  C   C810      1.0  0.17697  0.54849  0.19358  1.0000
  H   H652      1.0  0.01999  0.89251  0.21772  1.0000
  H   H653      1.0  0.15912  0.61701  0.27556  1.0000
  H   H654      1.0  0.15716  0.97051  0.13944  1.0000
  H   H655      1.0  0.12427  0.89905  0.28288  1.0000
  C   C811      1.0  0.00324  0.78221  0.14774  1.0000
  S   S122      1.0  0.22714  0.80668  0.02663  1.0000
  H   H656      1.0  0.19944  0.82320  0.12209  1.0000
  C   C812      1.0  0.03560  0.96053  0.24481  1.0000
  H   H657      1.0  0.17564  0.61574  0.20233  1.0000
  H   H658      1.0  0.22760  0.91262  0.06411  1.0000
  C   C813      1.0  0.12473  0.84227  0.15844  1.0000
  H   H659      1.0  0.15655  0.89275  0.11890  1.0000
  H   H660      1.0  0.18047  0.75346  0.02799  1.0000
  H   H661      1.0  0.17215  0.72171  0.03940  1.0000
  H   H662      1.0  0.22954  0.55709  0.99931  1.0000
  H   H663      1.0  0.08667  0.86482  0.15039  1.0000
  C   C814      1.0  0.20290  0.76065  0.09758  1.0000
  H   H664      1.0  0.22008  0.56646  0.19001  1.0000
  C   C815      1.0  0.13328  0.58204  0.29499  1.0000
  H   H665      1.0  0.11854  0.48023  0.28490  1.0000
  H   H666      1.0  0.19857  0.95525  0.00901  1.0000
  C   C816      1.0  0.17829  0.88692  0.17835  1.0000
  H   H667      1.0  0.12945  0.90823  0.10299  1.0000
  C   C817      1.0  0.15613  0.88714  0.21406  1.0000
  H   H668      1.0  0.19808  0.52916  0.20783  1.0000
  H   H669      1.0  0.17636  0.94670  0.24776  1.0000
  H   H670      1.0  0.16783  0.86083  0.15861  1.0000
  H   H671      1.0  0.18346  0.56471  0.14650  1.0000
  C   C818      1.0  0.16486  0.62982  0.27322  1.0000
  C   C819      1.0  0.20781  0.59705  0.27389  1.0000
  C   C820      1.0  0.14952  0.89863  0.29342  1.0000
  H   H672      1.0  0.21465  0.88870  0.27669  1.0000
  H   H673      1.0  0.17050  0.83316  0.14401  1.0000
  H   H674      1.0  0.22470  0.61654  0.11421  1.0000
  H   H675      1.0  0.18885  0.75063  0.08008  1.0000
  H   H676      1.0  0.15619  0.67556  0.25213  1.0000
  C   C821      1.0  0.10832  0.72632  0.27630  1.0000
  P   P26       1.0  0.03403  0.95676  0.20829  1.0000
  H   H677      1.0  0.22040  0.51047  0.12772  1.0000
  C   C822      1.0  0.21408  0.57316  0.25429  1.0000
  C   C823      1.0  0.20249  0.58211  0.26846  1.0000
  H   H678      1.0  0.15654  0.91086  0.15253  1.0000
  H   H679      1.0  0.15498  0.77203  0.08363  1.0000
  H   H680      1.0  0.02414  0.73832  0.27960  1.0000
  H   H681      1.0  0.22725  0.86478  0.96796  1.0000
  C   C824      1.0  0.03698  0.91728  0.17577  1.0000
  H   H682      1.0  0.19125  0.75681  0.14483  1.0000
  H   H683      1.0  0.06821  0.91251  0.25486  1.0000
  C   C825      1.0  0.20119  0.96124  0.14999  1.0000
  H   H684      1.0  0.22087  0.69840  0.00339  1.0000
  H   H685      1.0  0.18948  0.57725  0.27522  1.0000
  C   C826      1.0  0.02985  0.69429  0.24886  1.0000
  C   C827      1.0  0.03075  0.67590  0.24650  1.0000
  C   C828      1.0  0.02862  0.67230  0.22939  1.0000
  C   C829      1.0  0.02495  0.68719  0.21483  1.0000
  C   C830      1.0  0.02342  0.70584  0.21726  1.0000
  C   C831      1.0  0.02622  0.70926  0.23434  1.0000
  P   P27       1.0  0.01886  0.72486  0.19810  1.0000
  C   C832      1.0  0.04021  0.72681  0.18120  1.0000
  C   C833      1.0  0.00111  0.72053  0.18672  1.0000
  C   C834      1.0  0.99974  0.72934  0.16822  1.0000
  H   H686      1.0  0.06374  0.85227  0.10676  1.0000
  C   C835      1.0  0.18103  0.63005  0.28029  1.0000
  C   C836      1.0  0.03155  0.93598  0.20036  1.0000
  H   H687      1.0  0.11816  0.86844  0.09402  1.0000
  C   C837      1.0  0.04195  0.74379  0.16884  1.0000
  C   C838      1.0  0.05772  0.74517  0.15477  1.0000
  C   C839      1.0  0.07196  0.72962  0.15299  1.0000
  C   C840      1.0  0.07073  0.71285  0.16567  1.0000
  C   C841      1.0  0.05492  0.71142  0.17974  1.0000
  C   C842      1.0  0.01068  0.74717  0.20597  1.0000
  C   C843      1.0  0.02312  0.75552  0.21222  1.0000
  C   C844      1.0  0.01716  0.77312  0.21758  1.0000
  H   H688      1.0  0.00016  0.81354  0.17630  1.0000
  H   H689      1.0  0.98949  0.69761  0.24900  1.0000
  C   C845      1.0  0.01154  0.73557  0.27611  1.0000
  H   H690      1.0  0.03215  0.69685  0.26199  1.0000
  H   H691      1.0  0.03317  0.66444  0.25796  1.0000
  H   H692      1.0  0.02980  0.65794  0.22749  1.0000
  H   H693      1.0  0.02339  0.68417  0.20162  1.0000
  H   H694      1.0  0.02565  0.72333  0.23662  1.0000
  H   H695      1.0  0.00932  0.73863  0.16045  1.0000
  C   C846      1.0  0.21342  0.84510  0.12489  1.0000
  C   C847      1.0  0.99900  0.78281  0.21619  1.0000
  C   C848      1.0  0.18312  0.67205  0.09929  1.0000
  P   P28       1.0  0.12314  0.87423  0.13082  1.0000
  H   H696      1.0  0.03098  0.75596  0.16991  1.0000
  H   H697      1.0  0.05879  0.75838  0.14527  1.0000
  H   H698      1.0  0.08402  0.73065  0.14188  1.0000
  H   H699      1.0  0.08201  0.70093  0.16459  1.0000
  H   H700      1.0  0.05433  0.69829  0.18934  1.0000
  H   H701      1.0  0.03751  0.74855  0.21278  1.0000
  H   H702      1.0  0.02676  0.77934  0.22260  1.0000
  H   H703      1.0  0.15813  0.57406  0.27541  1.0000
  H   H704      1.0  0.22580  0.84111  0.11482  1.0000
  C   C849      1.0  0.12577  0.86148  0.15396  1.0000
  C   C850      1.0  0.14754  0.59698  0.24113  1.0000
  C   C851      1.0  0.15728  0.61012  0.22872  1.0000
  C   C852      1.0  0.16834  0.60541  0.21209  1.0000
  C   C853      1.0  0.16940  0.58765  0.20772  1.0000
  C   C854      1.0  0.15946  0.57439  0.22008  1.0000
  C   C855      1.0  0.14882  0.57912  0.23697  1.0000
  P   P29       1.0  0.15967  0.55169  0.21436  1.0000
  C   C856      1.0  0.13707  0.55009  0.20945  1.0000
  C   C857      1.0  0.17927  0.66319  0.26680  1.0000
  H   H705      1.0  0.21291  0.58899  0.98815  1.0000
  H   H706      1.0  0.20181  0.93001  0.09552  1.0000
  C   C858      1.0  0.21738  0.72827  0.00269  1.0000
  C   C859      1.0  0.10190  0.90495  0.14619  1.0000
  C   C860      1.0  0.16578  0.53396  0.23401  1.0000
  C   C861      1.0  0.18018  0.53554  0.24308  1.0000
  C   C862      1.0  0.18525  0.52176  0.25811  1.0000
  C   C863      1.0  0.17586  0.50642  0.26430  1.0000
  C   C864      1.0  0.16145  0.50484  0.25544  1.0000
  C   C865      1.0  0.15634  0.51855  0.24043  1.0000
  H   H707      1.0  0.13842  0.60077  0.25374  1.0000
  H   H708      1.0  0.15589  0.62409  0.23182  1.0000
  H   H709      1.0  0.14085  0.56925  0.24664  1.0000
  C   C866      1.0  0.19594  0.86611  0.14617  1.0000
  P   P30       1.0  0.19371  0.88704  0.15597  1.0000
  C   C867      1.0  0.20783  0.48861  0.17272  1.0000
  H   H710      1.0  0.07272  0.47693  0.13031  1.0000
  C   C868      1.0  0.19195  0.92572  0.10794  1.0000
  H   H711      1.0  0.18748  0.54739  0.23846  1.0000
  H   H712      1.0  0.19631  0.52294  0.26517  1.0000
  H   H713      1.0  0.17959  0.49583  0.27610  1.0000
  H   H714      1.0  0.15409  0.49302  0.26031  1.0000
  H   H715      1.0  0.14492  0.51702  0.23411  1.0000
  H   H716      1.0  0.98784  0.70317  0.21119  1.0000
  C   C869      1.0  0.03078  0.90231  0.18886  1.0000
  C   C870      1.0  0.21220  0.71047  0.00875  1.0000
  C   C871      1.0  0.16453  0.87009  0.20821  1.0000
  H   H717      1.0  0.17773  0.58456  0.19457  1.0000
  C   C872      1.0  0.21212  0.86063  0.13341  1.0000
  C   C873      1.0  0.18668  0.55725  0.15999  1.0000
  H   H718      1.0  0.15479  0.66665  0.10886  1.0000
  H   H719      1.0  0.20104  0.64734  0.28159  1.0000
  H   H720      1.0  0.09709  0.48530  0.17499  1.0000
  H   H721      1.0  0.99456  0.95255  0.21065  1.0000
  C   C874      1.0  0.15916  0.88045  0.11244  1.0000
  H   H722      1.0  0.18902  0.65775  0.09738  1.0000
  H   H723      1.0  0.98258  0.75127  0.19939  1.0000
  C   C875      1.0  0.19804  0.91119  0.12186  1.0000
  H   H724      1.0  0.21401  0.89720  0.04455  1.0000
  H   H725      1.0  0.19662  0.71435  0.09329  1.0000
  C   C876      1.0  0.98550  0.72672  0.15968  1.0000
  H   H726      1.0  0.21916  0.56072  0.07736  1.0000
  C   C877      1.0  0.11673  0.69006  0.26797  1.0000
  C   C878      1.0  0.12170  0.70515  0.25426  1.0000
  C   C879      1.0  0.11762  0.72326  0.25847  1.0000
  C   C880      1.0  0.16818  0.96657  0.14782  1.0000
  C   C881      1.0  0.18498  0.93430  0.25418  1.0000
  C   C882      1.0  0.12952  0.86083  0.18589  1.0000
  C   C883      1.0  0.00497  0.71879  0.28416  1.0000
  C   C884      1.0  0.21127  0.90872  0.25159  1.0000
  C   C885      1.0  0.12595  0.83250  0.17656  1.0000
  H   H727      1.0  0.16627  0.51556  0.16320  1.0000
  C   C886      1.0  0.22217  0.88868  0.05479  1.0000
  C   C887      1.0  0.05251  0.93687  0.26609  1.0000
  H   H728      1.0  0.22318  0.90145  0.24311  1.0000
  H   H729      1.0  0.18735  0.48172  0.22056  1.0000
  C   C888      1.0  0.18225  0.84064  0.14132  1.0000
  H   H730      1.0  0.21480  0.96920  0.03879  1.0000
  H   H731      1.0  0.11947  0.67609  0.26460  1.0000
  H   H732      1.0  0.12817  0.70287  0.24022  1.0000
  H   H733      1.0  0.12118  0.73501  0.24775  1.0000
  C   C889      1.0  0.11365  0.93161  0.11561  1.0000
  C   C890      1.0  0.19794  0.96364  0.99522  1.0000
  C   C891      1.0  0.12089  0.56319  0.21427  1.0000
  C   C892      1.0  0.16072  0.92977  0.12651  1.0000
  C   C893      1.0  0.13141  0.47593  0.29066  1.0000
  H   H734      1.0  0.18658  0.52412  0.13260  1.0000
  C   C894      1.0  0.22610  0.71186  0.05679  1.0000
  S   S123      1.0  0.07561  0.66289  0.28766  1.0000
  C   C895      1.0  0.19259  0.51467  0.14396  1.0000
  H   H735      1.0  0.09669  0.89476  0.15788  1.0000
  Fe  Fe60      1.0  0.11732  0.47461  0.21102  1.0000
  C   C896      1.0  0.19479  0.68556  0.09502  1.0000
  H   H736      1.0  0.21281  0.58993  0.21111  1.0000
  C   C897      1.0  0.15600  0.64620  0.26304  1.0000
  C   C898      1.0  0.19856  0.83502  0.12895  1.0000
  H   H737      1.0  0.99975  0.73474  0.97442  1.0000
  C   C899      1.0  0.18835  0.64681  0.27673  1.0000
  C   C900      1.0  0.21582  0.89032  0.16037  1.0000
  S   S124      1.0  0.08557  0.47980  0.21575  1.0000
  H   H738      1.0  0.22635  0.86068  0.16791  1.0000
  H   H739      1.0  0.20905  0.75781  0.00487  1.0000
  Fe  Fe61      1.0  0.05558  0.64379  0.28757  1.0000
  C   C901      1.0  0.14566  0.86867  0.11602  1.0000
  C   C902      1.0  0.10180  0.54575  0.20386  1.0000
  H   H740      1.0  0.22278  0.68418  0.97621  1.0000
  C   C903      1.0  0.19472  0.53726  0.19466  1.0000
  C   C904      1.0  0.19074  0.75535  0.13073  1.0000
  H   H741      1.0  0.11796  0.94194  0.10362  1.0000
  C   C905      1.0  0.20051  0.92504  0.24334  1.0000
  H   H742      1.0  0.03111  0.88906  0.18458  1.0000
  H   H743      1.0  0.19310  0.85739  0.08247  1.0000
  C   C906      1.0  0.18002  0.86042  0.09203  1.0000
  H   H744      1.0  0.08558  0.92847  0.15846  1.0000
  C   C907      1.0  0.12875  0.87057  0.16769  1.0000
  C   C908      1.0  0.11787  0.53301  0.19848  1.0000
  C   C909      1.0  0.13004  0.90177  0.29416  1.0000
  H   H745      1.0  0.18656  0.88562  0.09744  1.0000
  H   H746      1.0  0.04251  0.94535  0.17112  1.0000
  C   C910      1.0  0.98390  0.78217  0.14875  1.0000
  C   C911      1.0  0.98547  0.74544  0.25905  1.0000
  C   C912      1.0  0.05900  0.92588  0.25211  1.0000
  H   H747      1.0  0.14129  0.69945  0.11243  1.0000
  H   H748      1.0  0.18258  0.85661  0.18648  1.0000
  C   C913      1.0  0.18084  0.85627  0.14969  1.0000
  C   C914      1.0  0.07337  0.85864  0.12982  1.0000
  C   C915      1.0  0.07505  0.85654  0.11123  1.0000
  C   C916      1.0  0.09131  0.85997  0.09845  1.0000
  C   C917      1.0  0.10593  0.86537  0.10429  1.0000
  C   C918      1.0  0.10473  0.86658  0.12317  1.0000
  C   C919      1.0  0.08818  0.86351  0.13583  1.0000
  H   H749      1.0  0.98875  0.68036  0.12989  1.0000
  H   H750      1.0  0.98379  0.70222  0.28607  1.0000
  C   C920      1.0  0.21935  0.49411  0.15559  1.0000
  H   H751      1.0  0.20474  0.96841  0.23466  1.0000
  C   C921      1.0  0.22520  0.86899  0.05662  1.0000
  H   H752      1.0  0.22706  0.83051  0.97419  1.0000
  C   C922      1.0  0.15192  0.47198  0.16920  1.0000
  C   C923      1.0  0.18789  0.78526  0.96482  1.0000
  C   C924      1.0  0.22926  0.47980  0.20413  1.0000
  C   C925      1.0  0.22621  0.73107  0.05602  1.0000
  H   H753      1.0  0.01258  0.70831  0.29371  1.0000
  H   H754      1.0  0.09874  0.96320  0.17583  1.0000
  C   C926      1.0  0.22815  0.58610  0.98599  1.0000
  H   H755      1.0  0.01636  0.62590  0.28814  1.0000
  C   C927      1.0  0.05709  0.76449  0.29167  1.0000
  C   C928      1.0  0.22437  0.60359  0.26422  1.0000
  C   C929      1.0  0.22530  0.58967  0.20036  1.0000
  C   C930      1.0  0.22987  0.89747  0.06587  1.0000
  C   C931      1.0  0.07057  0.96058  0.19021  1.0000
  H   H756      1.0  0.98525  0.61670  0.29035  1.0000
  C   C932      1.0  0.14600  0.55008  0.29060  1.0000
  C   C933      1.0  0.00356  0.63479  0.29338  1.0000
  C   C934      1.0  0.06716  0.74619  0.29404  1.0000
  H   H757      1.0  0.13377  0.59691  0.29137  1.0000
  H   H758      1.0  0.20542  0.74471  0.96666  1.0000
  C   C935      1.0  0.22939  0.57645  0.18849  1.0000
  H   H759      1.0  0.22839  0.61552  0.26779  1.0000
  C   C936      1.0  0.05133  0.96791  0.19097  1.0000
  C   C937      1.0  0.22830  0.47293  0.22342  1.0000
  H   H760      1.0  0.23016  0.93632  0.99442  1.0000
  H   H761      1.0  0.09802  0.50888  0.35133  1.0000
  Fe  Fe62      1.0  0.21297  0.51403  0.34012  1.0000
  H   H762      1.0  0.05020  0.71523  0.30817  1.0000
  S   S125      1.0  0.20749  0.50721  0.31379  1.0000
  S   S126      1.0  0.18985  0.49977  0.35819  1.0000
  H   H763      1.0  0.14782  0.59144  0.60166  1.0000
  C   C938      1.0  0.22499  0.59527  0.47493  1.0000
  C   C939      1.0  0.09814  0.54117  0.37083  1.0000
  C   C940      1.0  0.11784  0.55655  0.31360  1.0000
  C   C941      1.0  0.19168  0.93091  0.31635  1.0000
  Fe  Fe63      1.0  0.00856  0.73862  0.57888  1.0000
  S   S127      1.0  0.21250  0.64745  0.37227  1.0000
  S   S128      1.0  0.03612  0.73945  0.55865  1.0000
  S   S129      1.0  0.00520  0.72641  0.60950  1.0000
  S   S130      1.0  0.10822  0.63217  0.32506  1.0000
  Fe  Fe64      1.0  0.17542  0.65375  0.41697  1.0000
  C   C942      1.0  0.20736  0.61392  0.30703  1.0000
  S   S131      1.0  0.15592  0.65485  0.44503  1.0000
  Fe  Fe65      1.0  0.18144  0.65908  0.37421  1.0000
  C   C943      1.0  0.06584  0.79954  0.61476  1.0000
  S   S132      1.0  0.17043  0.66865  0.34647  1.0000
  Fe  Fe66      1.0  0.20323  0.62498  0.39587  1.0000
  S   S133      1.0  0.98944  0.72179  0.57249  1.0000
  C   C944      1.0  0.21851  0.88370  0.53818  1.0000
  S   S134      1.0  0.17233  0.63579  0.39695  1.0000
  S   S135      1.0  0.18168  0.67830  0.39430  1.0000
  Fe  Fe67      1.0  0.17828  0.71701  0.55847  1.0000
  S   S136      1.0  0.19193  0.69572  0.54016  1.0000
  S   S137      1.0  0.19117  0.74106  0.56232  1.0000
  Fe  Fe68      1.0  0.14102  0.70223  0.56749  1.0000
  S   S138      1.0  0.15170  0.67985  0.54950  1.0000
  S   S139      1.0  0.11320  0.70484  0.58762  1.0000
  Fe  Fe69      1.0  0.17763  0.67508  0.56242  1.0000
  S   S140      1.0  0.19595  0.64674  0.56792  1.0000
  Fe  Fe70      1.0  0.16511  0.70210  0.52853  1.0000
  S   S141      1.0  0.16983  0.70769  0.49672  1.0000
  S   S142      1.0  0.16627  0.69582  0.58186  1.0000
  S   S143      1.0  0.15212  0.72505  0.54546  1.0000
  C   C945      1.0  0.19090  0.62659  0.58416  1.0000
  C   C946      1.0  0.17710  0.62698  0.60038  1.0000
  C   C947      1.0  0.20067  0.74152  0.44506  1.0000
  C   C948      1.0  0.19815  0.74424  0.51085  1.0000
  H   H764      1.0  0.13198  0.65954  0.30321  1.0000
  C   C949      1.0  0.20195  0.60949  0.58069  1.0000
  H   H765      1.0  0.16858  0.64020  0.60319  1.0000
  H   H766      1.0  0.06552  0.77070  0.54124  1.0000
  H   H767      1.0  0.21267  0.60907  0.56828  1.0000
  C   C950      1.0  0.16535  0.69295  0.48273  1.0000
  C   C951      1.0  0.17323  0.69536  0.46361  1.0000
  C   C952      1.0  0.17052  0.68368  0.45203  1.0000
  C   C953      1.0  0.15947  0.66974  0.45935  1.0000
  C   C954      1.0  0.15116  0.66760  0.47839  1.0000
  C   C955      1.0  0.15431  0.67897  0.49012  1.0000
  H   H768      1.0  0.18176  0.70607  0.45773  1.0000
  H   H769      1.0  0.17692  0.68555  0.43739  1.0000
  H   H770      1.0  0.14231  0.65710  0.48411  1.0000
  H   H771      1.0  0.14802  0.67713  0.50477  1.0000
  S   S144      1.0  0.98572  0.76375  0.58234  1.0000
  C   C956      1.0  0.22423  0.73562  0.37789  1.0000
  C   C957      1.0  0.12526  0.64304  0.33050  1.0000
  C   C958      1.0  0.12970  0.63798  0.34861  1.0000
  C   C959      1.0  0.14352  0.64563  0.35362  1.0000
  C   C960      1.0  0.15305  0.65856  0.34058  1.0000
  C   C961      1.0  0.14868  0.66361  0.32238  1.0000
  C   C962      1.0  0.13491  0.65584  0.31732  1.0000
  H   H772      1.0  0.12245  0.62799  0.35888  1.0000
  H   H773      1.0  0.14672  0.64158  0.36763  1.0000
  H   H774      1.0  0.15603  0.67354  0.31215  1.0000
  C   C963      1.0  0.19932  0.59285  0.59308  1.0000
  C   C964      1.0  0.13672  0.70867  0.33517  1.0000
  C   C965      1.0  0.19574  0.62405  0.49950  1.0000
  C   C966      1.0  0.21993  0.83075  0.50874  1.0000
  H   H775      1.0  0.19132  0.93836  0.30219  1.0000
  C   C967      1.0  0.20614  0.59267  0.47953  1.0000
  C   C968      1.0  0.05760  0.73071  0.56688  1.0000
  C   C969      1.0  0.05833  0.72677  0.58600  1.0000
  C   C970      1.0  0.07558  0.71934  0.59215  1.0000
  C   C971      1.0  0.09217  0.71565  0.57924  1.0000
  C   C972      1.0  0.09154  0.72001  0.56010  1.0000
  C   C973      1.0  0.07429  0.72756  0.55395  1.0000
  H   H776      1.0  0.04560  0.72929  0.59603  1.0000
  H   H777      1.0  0.07601  0.71626  0.60695  1.0000
  H   H778      1.0  0.10427  0.71733  0.55004  1.0000
  H   H779      1.0  0.07383  0.73072  0.53912  1.0000
  C   C974      1.0  0.10973  0.54010  0.35333  1.0000
  C   C975      1.0  0.14005  0.61633  0.48306  1.0000
  H   H780      1.0  0.21171  0.69506  0.60201  1.0000
  P   P31       1.0  0.19134  0.60074  0.49999  1.0000
  C   C976      1.0  0.07068  0.67717  0.58967  1.0000
  C   C977      1.0  0.16700  0.60183  0.49828  1.0000
  C   C978      1.0  0.07985  0.56648  0.33581  1.0000
  C   C979      1.0  0.03227  0.67955  0.48603  1.0000
  C   C980      1.0  0.22399  0.76094  0.42926  1.0000
  C   C981      1.0  0.12510  0.65448  0.61428  1.0000
  H   H781      1.0  0.16324  0.96326  0.50052  1.0000
  H   H782      1.0  0.15776  0.47575  0.36160  1.0000
  C   C982      1.0  0.21206  0.55754  0.35599  1.0000
  Fe  Fe71      1.0  0.21204  0.47369  0.36093  1.0000
  C   C983      1.0  0.20649  0.58826  0.36558  1.0000
  C   C984      1.0  0.20664  0.57714  0.35226  1.0000
  H   H783      1.0  0.20249  0.60335  0.36240  1.0000
  C   C985      1.0  0.19855  0.58564  0.46706  1.0000
  H   H784      1.0  0.07958  0.74464  0.33620  1.0000
  P   P32       1.0  0.11423  0.61497  0.58866  1.0000
  H   H785      1.0  0.13166  0.57590  0.51249  1.0000
  C   C986      1.0  0.12477  0.52734  0.38646  1.0000
  C   C987      1.0  0.13629  0.52584  0.36915  1.0000
  C   C988      1.0  0.12882  0.53208  0.35265  1.0000
  H   H786      1.0  0.19570  0.73116  0.45667  1.0000
  C   C989      1.0  0.98336  0.72099  0.51337  1.0000
  C   C990      1.0  0.12010  0.61697  0.62421  1.0000
  C   C991      1.0  0.14816  0.59297  0.33047  1.0000
  P   P33       1.0  0.18237  0.90039  0.30544  1.0000
  C   C992      1.0  0.21238  0.76963  0.41610  1.0000
  H   H787      1.0  0.13064  0.52251  0.39922  1.0000
  H   H788      1.0  0.15105  0.51977  0.36846  1.0000
  H   H789      1.0  0.13803  0.53049  0.33948  1.0000
  H   H790      1.0  0.09428  0.67677  0.33360  1.0000
  H   H791      1.0  0.16226  0.47510  0.39394  1.0000
  C   C993      1.0  0.20451  0.65111  0.62366  1.0000
  H   H792      1.0  0.15029  0.91388  0.33359  1.0000
  C   C994      1.0  0.00048  0.68375  0.50379  1.0000
  H   H793      1.0  0.10565  0.70173  0.37577  1.0000
  H   H794      1.0  0.12649  0.62827  0.51933  1.0000
  C   C995      1.0  0.15713  0.90286  0.30761  1.0000
  H   H795      1.0  0.13285  0.73840  0.58394  1.0000
  H   H796      1.0  0.16424  0.61035  0.62573  1.0000
  H   H797      1.0  0.17526  0.54975  0.33063  1.0000
  P   P34       1.0  0.07272  0.77891  0.60383  1.0000
  C   C996      1.0  0.06059  0.78261  0.58422  1.0000
  H   H798      1.0  0.07356  0.65315  0.34393  1.0000
  H   H799      1.0  0.13114  0.52891  0.30780  1.0000
  C   C997      1.0  0.11801  0.90910  0.30910  1.0000
  H   H800      1.0  0.16113  0.96949  0.33044  1.0000
  H   H801      1.0  0.16400  0.57527  0.51675  1.0000
  C   C998      1.0  0.04207  0.79261  0.58536  1.0000
  C   C999      1.0  0.03215  0.79466  0.57073  1.0000
  C   C1000     1.0  0.04068  0.78692  0.55476  1.0000
  C   C1001     1.0  0.21075  0.77269  0.49710  1.0000
  C   C1002     1.0  0.15826  0.61627  0.48574  1.0000
  C   C1003     1.0  0.09788  0.77425  0.59587  1.0000
  C   C1004     1.0  0.10879  0.78844  0.59280  1.0000
  C   C1005     1.0  0.12825  0.78456  0.58658  1.0000
  C   C1006     1.0  0.13693  0.76654  0.58338  1.0000
  C   C1007     1.0  0.12616  0.75238  0.58645  1.0000
  C   C1008     1.0  0.10676  0.75620  0.59265  1.0000
  H   H802      1.0  0.03282  0.78797  0.54366  1.0000
  S   S145      1.0  0.20564  0.64108  0.41767  1.0000
  S   S146      1.0  0.21553  0.54472  0.33747  1.0000
  Fe  Fe72      1.0  0.21200  0.66482  0.39408  1.0000
  C   C1009     1.0  0.05026  0.67080  0.33217  1.0000
  H   H803      1.0  0.17826  0.57878  0.56839  1.0000
  C   C1010     1.0  0.20014  0.62825  0.31765  1.0000
  H   H804      1.0  0.11987  0.65333  0.58724  1.0000
  H   H805      1.0  0.03507  0.79839  0.59778  1.0000
  H   H806      1.0  0.01770  0.80190  0.57194  1.0000
  H   H807      1.0  0.19672  0.63255  0.46948  1.0000
  H   H808      1.0  0.09404  0.58115  0.34962  1.0000
  C   C1011     1.0  0.10508  0.71196  0.32880  1.0000
  H   H809      1.0  0.10240  0.80247  0.59518  1.0000
  H   H810      1.0  0.13663  0.79553  0.58421  1.0000
  H   H811      1.0  0.15200  0.76352  0.57850  1.0000
  H   H812      1.0  0.22940  0.55070  0.53924  1.0000
  H   H813      1.0  0.11610  0.91932  0.33467  1.0000
  H   H814      1.0  0.11633  0.60191  0.49058  1.0000
  H   H815      1.0  0.10715  0.54879  0.59400  1.0000
  C   C1012     1.0  0.12544  0.91316  0.32337  1.0000
  C   C1013     1.0  0.08950  0.49542  0.33237  1.0000
  H   H816      1.0  0.99159  0.76749  0.52459  1.0000
  C   C1014     1.0  0.22709  0.72126  0.56512  1.0000
  C   C1015     1.0  0.04379  0.68831  0.32210  1.0000
  C   C1016     1.0  0.05748  0.61794  0.60623  1.0000
  H   H817      1.0  0.99177  0.65833  0.52072  1.0000
  H   H818      1.0  0.20270  0.58382  0.33893  1.0000
  H   H819      1.0  0.18598  0.63603  0.31745  1.0000
  H   H820      1.0  0.08113  0.48541  0.31055  1.0000
  C   C1017     1.0  0.12785  0.62208  0.56595  1.0000
  C   C1018     1.0  0.12162  0.62144  0.54949  1.0000
  C   C1019     1.0  0.05916  0.77719  0.55339  1.0000
  C   C1020     1.0  0.15523  0.63430  0.54711  1.0000
  C   C1021     1.0  0.14513  0.62785  0.56459  1.0000
  H   H821      1.0  0.08354  0.70825  0.35340  1.0000
  H   H822      1.0  0.06151  0.77679  0.33204  1.0000
  C   C1022     1.0  0.02002  0.65282  0.50587  1.0000
  C   C1023     1.0  0.12121  0.64545  0.60111  1.0000
  C   C1024     1.0  0.18387  0.58789  0.53848  1.0000
  H   H823      1.0  0.18647  0.77053  0.40666  1.0000
  Fe  Fe73      1.0  0.98421  0.71146  0.60341  1.0000
  C   C1025     1.0  0.14836  0.63476  0.53081  1.0000
  P   P35       1.0  0.09988  0.54797  0.33206  1.0000
  H   H824      1.0  0.12998  0.71484  0.30760  1.0000
  C   C1026     1.0  0.07701  0.61279  0.60485  1.0000
  C   C1027     1.0  0.99970  0.72153  0.52006  1.0000
  H   H825      1.0  0.02224  0.67548  0.62201  1.0000
  C   C1028     1.0  0.01523  0.69121  0.49116  1.0000
  C   C1029     1.0  0.19329  0.87605  0.31068  1.0000
  C   C1030     1.0  0.06422  0.81748  0.60362  1.0000
  C   C1031     1.0  0.98953  0.75465  0.52103  1.0000
  C   C1032     1.0  0.11876  0.57579  0.30871  1.0000
  H   H826      1.0  0.15077  0.62768  0.57699  1.0000
  C   C1033     1.0  0.22028  0.74553  0.48156  1.0000
  C   C1034     1.0  0.09354  0.52814  0.32558  1.0000
  H   H827      1.0  0.20986  0.78960  0.53584  1.0000
  C   C1035     1.0  0.14574  0.96355  0.31108  1.0000
  H   H828      1.0  0.20294  0.67511  0.49788  1.0000
  H   H829      1.0  0.15168  0.70824  0.33022  1.0000
  H   H830      1.0  0.21259  0.76778  0.56630  1.0000
  Fe  Fe74      1.0  0.18618  0.49087  0.33214  1.0000
  C   C1036     1.0  0.18585  0.59304  0.60937  1.0000
  C   C1037     1.0  0.09835  0.70853  0.34815  1.0000
  H   H831      1.0  0.05577  0.65083  0.56678  1.0000
  H   H832      1.0  0.16823  0.63930  0.54632  1.0000
  H   H833      1.0  0.13496  0.59987  0.33748  1.0000
  S   S147      1.0  0.98562  0.68013  0.61259  1.0000
  C   C1038     1.0  0.10568  0.53493  0.38731  1.0000
  C   C1039     1.0  0.22195  0.75443  0.56619  1.0000
  C   C1040     1.0  0.08860  0.52985  0.30793  1.0000
  Fe  Fe75      1.0  0.22839  0.48087  0.31916  1.0000
  H   H834      1.0  0.01355  0.70605  0.48527  1.0000
  H   H835      1.0  0.21147  0.78710  0.49729  1.0000
  C   C1041     1.0  0.14492  0.91006  0.32267  1.0000
  H   H836      1.0  0.15752  0.55710  0.60914  1.0000
  C   C1042     1.0  0.18780  0.91258  0.32185  1.0000
  H   H837      1.0  0.12611  0.49933  0.30518  1.0000
  H   H838      1.0  0.18449  0.83151  0.31623  1.0000
  C   C1043     1.0  0.03468  0.66037  0.49339  1.0000
  C   C1044     1.0  0.03668  0.68321  0.59406  1.0000
  H   H839      1.0  0.05468  0.69038  0.56772  1.0000
  H   H840      1.0  0.98093  0.69890  0.54937  1.0000
  C   C1045     1.0  0.18800  0.90362  0.34053  1.0000
  C   C1046     1.0  0.19219  0.91281  0.35342  1.0000
  C   C1047     1.0  0.19602  0.93106  0.34784  1.0000
  C   C1048     1.0  0.19586  0.94002  0.32933  1.0000
  C   C1049     1.0  0.20027  0.64817  0.51520  1.0000
  C   C1050     1.0  0.15242  0.48145  0.30968  1.0000
  C   C1051     1.0  0.22101  0.76424  0.48207  1.0000
  C   C1052     1.0  0.06570  0.75890  0.62043  1.0000
  H   H841      1.0  0.22162  0.55362  0.39981  1.0000
  C   C1053     1.0  0.19760  0.62984  0.51583  1.0000
  S   S148      1.0  0.07359  0.61832  0.30136  1.0000
  C   C1054     1.0  0.21117  0.63271  0.32871  1.0000
  C   C1055     1.0  0.13149  0.54379  0.30427  1.0000
  C   C1056     1.0  0.15988  0.60352  0.31692  1.0000
  C   C1057     1.0  0.12434  0.71228  0.32240  1.0000
  H   H842      1.0  0.20515  0.88430  0.54768  1.0000
  H   H843      1.0  0.16557  0.62733  0.47759  1.0000
  C   C1058     1.0  0.09396  0.51077  0.33778  1.0000
  H   H844      1.0  0.15597  0.64026  0.51728  1.0000
  C   C1059     1.0  0.21942  0.85290  0.32096  1.0000
  H   H845      1.0  0.18495  0.88950  0.34518  1.0000
  H   H846      1.0  0.19268  0.90573  0.36772  1.0000
  H   H847      1.0  0.19936  0.93814  0.35784  1.0000
  H   H848      1.0  0.19874  0.95419  0.32507  1.0000
  H   H849      1.0  0.18895  0.73669  0.52183  1.0000
  C   C1060     1.0  0.22924  0.62253  0.32976  1.0000
  C   C1061     1.0  0.20148  0.66072  0.49828  1.0000
  H   H850      1.0  0.20729  0.55495  0.56885  1.0000
  C   C1062     1.0  0.13574  0.48675  0.30217  1.0000
  H   H851      1.0  0.03470  0.63576  0.59368  1.0000
  H   H852      1.0  0.17113  0.59823  0.53856  1.0000
  H   H853      1.0  0.18399  0.58379  0.46996  1.0000
  C   C1063     1.0  0.12143  0.58985  0.59403  1.0000
  C   C1064     1.0  0.22822  0.58452  0.44554  1.0000
  H   H854      1.0  0.06716  0.60675  0.35439  1.0000
  C   C1065     1.0  0.07367  0.69811  0.32052  1.0000
  C   C1066     1.0  0.04919  0.59564  0.34155  1.0000
  Fe  Fe76      1.0  0.98101  0.75042  0.61286  1.0000
  C   C1067     1.0  0.06906  0.77488  0.56810  1.0000
  H   H855      1.0  0.00981  0.70889  0.52304  1.0000
  C   C1068     1.0  0.19769  0.63662  0.48243  1.0000
  C   C1069     1.0  0.20060  0.65480  0.48186  1.0000
  C   C1070     1.0  0.13170  0.62806  0.53199  1.0000
  C   C1071     1.0  0.22531  0.60334  0.30856  1.0000
  C   C1072     1.0  0.20835  0.73574  0.49581  1.0000
  C   C1073     1.0  0.21834  0.74649  0.44358  1.0000
  C   C1074     1.0  0.21500  0.73857  0.56469  1.0000
  H   H856      1.0  0.20119  0.65276  0.52787  1.0000
  H   H857      1.0  0.19681  0.62049  0.52917  1.0000
  H   H858      1.0  0.10882  0.61616  0.55014  1.0000
  H   H859      1.0  0.08307  0.76667  0.56693  1.0000
  H   H860      1.0  0.02186  0.63794  0.51156  1.0000
  C   C1075     1.0  0.14433  0.56286  0.60420  1.0000
  H   H861      1.0  0.13364  0.62750  0.47310  1.0000
  H   H862      1.0  0.04364  0.68543  0.47636  1.0000
  H   H863      1.0  0.04138  0.66012  0.33616  1.0000
  H   H864      1.0  0.04790  0.65137  0.48940  1.0000
  C   C1076     1.0  0.21769  0.80084  0.52925  1.0000
  H   H865      1.0  0.22994  0.71040  0.43621  1.0000
  C   C1077     1.0  0.15734  0.58710  0.50771  1.0000
  H   H866      1.0  0.21110  0.71158  0.37949  1.0000
  H   H867      1.0  0.14455  0.56552  0.34588  1.0000
  P   P36       1.0  0.08913  0.71533  0.31245  1.0000
  C   C1078     1.0  0.13038  0.60189  0.49283  1.0000
  C   C1079     1.0  0.21129  0.87161  0.31564  1.0000
  H   H868      1.0  0.02376  0.68844  0.58843  1.0000
  C   C1080     1.0  0.05408  0.68413  0.58238  1.0000
  H   H869      1.0  0.21377  0.74539  0.37083  1.0000
  H   H870      1.0  0.13976  0.70140  0.36416  1.0000
  C   C1081     1.0  0.11592  0.55818  0.59571  1.0000
  H   H871      1.0  0.19899  0.63947  0.62131  1.0000
  H   H872      1.0  0.20798  0.57975  0.59011  1.0000
  H   H873      1.0  0.03496  0.58174  0.32734  1.0000
  H   H874      1.0  0.20549  0.64395  0.33666  1.0000
  C   C1082     1.0  0.13290  0.55080  0.60217  1.0000
  H   H875      1.0  0.05609  0.84730  0.60330  1.0000
  C   C1083     1.0  0.06988  0.66990  0.60875  1.0000
  C   C1084     1.0  0.18264  0.57526  0.31314  1.0000
  H   H876      1.0  0.03752  0.60713  0.34334  1.0000
  H   H877      1.0  0.09718  0.58306  0.58629  1.0000
  H   H878      1.0  0.22091  0.53398  0.37655  1.0000
  H   H879      1.0  0.08325  0.54673  0.37179  1.0000
  H   H880      1.0  0.20347  0.57697  0.44015  1.0000
  H   H881      1.0  0.08418  0.67789  0.58060  1.0000
  H   H882      1.0  0.04730  0.78975  0.30348  1.0000
  C   C1085     1.0  0.05542  0.70193  0.31625  1.0000
  C   C1086     1.0  0.11079  0.70487  0.36087  1.0000
  C   C1087     1.0  0.21226  0.57990  0.38264  1.0000
  C   C1088     1.0  0.20422  0.56344  0.55567  1.0000
  C   C1089     1.0  0.20455  0.66732  0.61001  1.0000
  C   C1090     1.0  0.06302  0.56681  0.32962  1.0000
  H   H883      1.0  0.21885  0.88262  0.31592  1.0000
  H   H884      1.0  0.11792  0.60253  0.62845  1.0000
  H   H885      1.0  0.13645  0.95603  0.32196  1.0000
  C   C1091     1.0  0.19640  0.58578  0.52165  1.0000
  H   H886      1.0  0.15568  0.61859  0.31387  1.0000
  H   H887      1.0  0.04823  0.61155  0.61810  1.0000
  S   S149      1.0  0.21515  0.59362  0.39849  1.0000
  H   H888      1.0  0.98851  0.67532  0.31086  1.0000
  C   C1092     1.0  0.06308  0.76821  0.32145  1.0000
  H   H889      1.0  0.21596  0.82398  0.32564  1.0000
  C   C1093     1.0  0.00282  0.73833  0.52371  1.0000
  C   C1094     1.0  0.21878  0.68143  0.62896  1.0000
  C   C1095     1.0  0.08111  0.58090  0.34498  1.0000
  H   H890      1.0  0.01525  0.73857  0.52925  1.0000
  H   H891      1.0  0.22266  0.57020  0.50929  1.0000
  C   C1096     1.0  0.21668  0.56110  0.53898  1.0000
  C   C1097     1.0  0.18375  0.86145  0.31074  1.0000
  C   C1098     1.0  0.00296  0.66444  0.51105  1.0000
  C   C1099     1.0  0.13871  0.58232  0.60003  1.0000
  C   C1100     1.0  0.20956  0.58166  0.45011  1.0000
  C   C1101     1.0  0.04984  0.63153  0.59243  1.0000
  C   C1102     1.0  0.13902  0.58729  0.50517  1.0000
  C   C1103     1.0  0.00454  0.65130  0.29923  1.0000
  H   H892      1.0  0.21677  0.78067  0.40494  1.0000
  C   C1104     1.0  0.08444  0.49731  0.31485  1.0000
  H   H893      1.0  0.12694  0.66906  0.61043  1.0000
  H   H894      1.0  0.19922  0.66802  0.59727  1.0000
  C   C1105     1.0  0.21680  0.54906  0.37347  1.0000
  H   H895      1.0  0.00679  0.78347  0.62078  1.0000
  H   H896      1.0  0.09669  0.53594  0.40075  1.0000
  C   C1106     1.0  0.15355  0.57358  0.33521  1.0000
  C   C1107     1.0  0.06586  0.59541  0.34780  1.0000
  S   S150      1.0  0.15737  0.49560  0.32395  1.0000
  C   C1108     1.0  0.07550  0.73879  0.31002  1.0000
  H   H897      1.0  0.10296  0.91211  0.30936  1.0000
  H   H898      1.0  0.06762  0.81908  0.58851  1.0000
  C   C1109     1.0  0.17077  0.56471  0.32652  1.0000
  C   C1110     1.0  0.19521  0.76398  0.41712  1.0000
  C   C1111     1.0  0.05773  0.83350  0.61192  1.0000
  C   C1112     1.0  0.20978  0.83846  0.32114  1.0000
  C   C1113     1.0  0.18782  0.57683  0.55541  1.0000
  C   C1114     1.0  0.22267  0.71645  0.38280  1.0000
  H   H899      1.0  0.21359  0.84264  0.49947  1.0000
  C   C1115     1.0  0.03585  0.67599  0.61314  1.0000
  C   C1116     1.0  0.17471  0.61015  0.61315  1.0000
  H   H900      1.0  0.16983  0.86442  0.30716  1.0000
  H   H901      1.0  0.20642  0.72179  0.49514  1.0000
  H   H902      1.0  0.19143  0.76908  0.52333  1.0000
  H   H903      1.0  0.20174  0.66447  0.46868  1.0000
  C   C1117     1.0  0.08907  0.62120  0.58961  1.0000
  H   H904      1.0  0.02988  0.69105  0.31848  1.0000
  H   H905      1.0  0.09014  0.64284  0.56481  1.0000
  C   C1118     1.0  0.06836  0.66688  0.33648  1.0000
  Fe  Fe77      1.0  0.09458  0.63718  0.29915  1.0000
  C   C1119     1.0  0.08128  0.63522  0.57606  1.0000
  C   C1120     1.0  0.19202  0.84272  0.31591  1.0000
  C   C1121     1.0  0.20978  0.81627  0.51721  1.0000
  H   H906      1.0  0.08271  0.60240  0.61579  1.0000
  H   H907      1.0  0.09866  0.74506  0.59482  1.0000
  C   C1122     1.0  0.11025  0.57764  0.59151  1.0000
  C   C1123     1.0  0.18928  0.75001  0.43170  1.0000
  H   H908      1.0  0.10838  0.58611  0.31532  1.0000
  C   C1124     1.0  0.06174  0.64002  0.57727  1.0000
  H   H909      1.0  0.19577  0.81699  0.51443  1.0000
  C   C1125     1.0  0.07332  0.74993  0.32377  1.0000
  H   H910      1.0  0.17581  0.74581  0.43275  1.0000
  C   C1126     1.0  0.08008  0.68040  0.33061  1.0000
  C   C1127     1.0  0.11932  0.62643  0.60579  1.0000
  C   C1128     1.0  0.19943  0.76264  0.51160  1.0000
  H   H911      1.0  0.08288  0.66465  0.61411  1.0000
  C   C1129     1.0  0.12999  0.70480  0.35437  1.0000
  H   H912      1.0  0.22504  0.90831  0.54497  1.0000
  S   S151      1.0  0.18324  0.57115  0.62364  1.0000
  H   H913      1.0  0.06155  0.55604  0.32243  1.0000
  H   H914      1.0  0.03833  0.76204  0.61255  1.0000
  C   C1130     1.0  0.17707  0.59470  0.30787  1.0000
  C   C1131     1.0  0.21166  0.68250  0.61265  1.0000
  C   C1132     1.0  0.98783  0.66268  0.30606  1.0000
  C   C1133     1.0  0.04778  0.58136  0.33247  1.0000
  C   C1134     1.0  0.21281  0.57222  0.52201  1.0000
  H   H915      1.0  0.22190  0.70894  0.56406  1.0000
  Fe  Fe78      1.0  0.22787  0.96256  0.36050  1.0000
  C   C1135     1.0  0.21719  0.56022  0.38662  1.0000
  H   H916      1.0  0.98747  0.69531  0.47024  1.0000
  C   C1136     1.0  0.05243  0.67011  0.62076  1.0000
  C   C1137     1.0  0.05503  0.77551  0.30538  1.0000
  H   H917      1.0  0.13726  0.53573  0.60559  1.0000
  C   C1138     1.0  0.04788  0.75428  0.62184  1.0000
  H   H918      1.0  0.19641  0.56827  0.30747  1.0000
  C   C1139     1.0  0.22463  0.86922  0.52769  1.0000
  H   H919      1.0  0.21580  0.85881  0.52929  1.0000
  S   S152      1.0  0.02620  0.65826  0.29862  1.0000
  H   H920      1.0  0.09021  0.48198  0.34166  1.0000
  H   H921      1.0  0.22935  0.77241  0.47070  1.0000
  C   C1140     1.0  0.08390  0.51453  0.30270  1.0000
  C   C1141     1.0  0.22995  0.57758  0.62687  1.0000
  H   H922      1.0  0.17429  0.48820  0.62693  1.0000
  H   H923      1.0  0.08839  0.54305  0.29822  1.0000
  H   H924      1.0  0.22967  0.94376  0.29952  1.0000
  C   C1142     1.0  0.22970  0.89724  0.53666  1.0000
  H   H925      1.0  0.10348  0.68124  0.29608  1.0000
  Fe  Fe79      1.0  0.00087  0.59243  0.72165  1.0000
  H   H926      1.0  0.99960  0.67242  0.69918  1.0000
  S   S153      1.0  0.02707  0.57346  0.70975  1.0000
  S   S154      1.0  0.99941  0.62152  0.72708  1.0000
  H   H927      1.0  0.05045  0.81267  0.65760  1.0000
  S   S155      1.0  0.00354  0.69285  0.85631  1.0000
  C   C1143     1.0  0.07746  0.74868  0.63307  1.0000
  S   S156      1.0  0.01775  0.72824  0.82612  1.0000
  H   H928      1.0  0.04673  0.61014  0.82766  1.0000
  Fe  Fe80      1.0  0.99934  0.70699  0.82714  1.0000
  H   H929      1.0  0.03409  0.78806  0.73942  1.0000
  Fe  Fe81      1.0  0.02000  0.71566  0.85600  1.0000
  S   S157      1.0  0.04918  0.71009  0.86429  1.0000
  H   H930      1.0  0.07468  0.69169  0.63331  1.0000
  S   S158      1.0  0.01013  0.86959  0.68745  1.0000
  C   C1144     1.0  0.10745  0.48203  0.69559  1.0000
  S   S159      1.0  0.01387  0.82736  0.71153  1.0000
  C   C1145     1.0  0.19591  0.80577  0.85998  1.0000
  Fe  Fe82      1.0  0.02121  0.85488  0.71370  1.0000
  S   S160      1.0  0.05138  0.85301  0.71822  1.0000
  Fe  Fe83      1.0  0.00074  0.84256  0.68667  1.0000
  S   S161      1.0  0.00791  0.82932  0.66009  1.0000
  Fe  Fe84      1.0  0.17287  0.56395  0.69435  1.0000
  S   S162      1.0  0.18293  0.54391  0.67393  1.0000
  S   S163      1.0  0.18679  0.56784  0.71778  1.0000
  Fe  Fe85      1.0  0.13398  0.57601  0.68234  1.0000
  S   S164      1.0  0.14085  0.55698  0.66090  1.0000
  S   S165      1.0  0.10767  0.59779  0.68787  1.0000
  Fe  Fe86      1.0  0.15453  0.53532  0.68246  1.0000
  S   S166      1.0  0.15173  0.50441  0.69005  1.0000
  Fe  Fe87      1.0  0.16871  0.56689  0.65368  1.0000
  C   C1146     1.0  0.22876  0.62696  0.67256  1.0000
  S   S167      1.0  0.14522  0.55362  0.70466  1.0000
  S   S168      1.0  0.16099  0.58762  0.67327  1.0000
  Fe  Fe88      1.0  0.14519  0.92040  0.77409  1.0000
  S   S169      1.0  0.17076  0.89849  0.76835  1.0000
  S   S170      1.0  0.14459  0.94841  0.78323  1.0000
  Fe  Fe89      1.0  0.12052  0.90157  0.75651  1.0000
  S   S171      1.0  0.14472  0.87907  0.74871  1.0000
  S   S172      1.0  0.09034  0.90579  0.75107  1.0000
  Fe  Fe90      1.0  0.15078  0.87761  0.77752  1.0000
  S   S173      1.0  0.15791  0.84725  0.79140  1.0000
  Fe  Fe91      1.0  0.16283  0.90148  0.74018  1.0000
  S   S174      1.0  0.18399  0.90539  0.71323  1.0000
  S   S175      1.0  0.12565  0.89915  0.78594  1.0000
  S   S176      1.0  0.13806  0.92431  0.74529  1.0000
  Fe  Fe92      1.0  0.11653  0.76267  0.90285  1.0000
  S   S177      1.0  0.13969  0.76846  0.87843  1.0000
  S   S178      1.0  0.08626  0.76267  0.89945  1.0000
  Fe  Fe93      1.0  0.14067  0.76712  0.93112  1.0000
  S   S179      1.0  0.16515  0.77317  0.90856  1.0000
  H   H931      1.0  0.21569  0.81617  0.95253  1.0000
  Fe  Fe94      1.0  0.14343  0.79130  0.89227  1.0000
  S   S180      1.0  0.14524  0.82151  0.87924  1.0000
  Fe  Fe95      1.0  0.15919  0.74974  0.89696  1.0000
  S   S181      1.0  0.18138  0.72594  0.88743  1.0000
  S   S182      1.0  0.11926  0.78687  0.91564  1.0000
  S   S183      1.0  0.13580  0.74231  0.92061  1.0000
  C   C1147     1.0  0.15288  0.84050  0.81584  1.0000
  C   C1148     1.0  0.14873  0.85372  0.82773  1.0000
  C   C1149     1.0  0.14601  0.84772  0.84722  1.0000
  C   C1150     1.0  0.14727  0.82855  0.85485  1.0000
  C   C1151     1.0  0.15111  0.81536  0.84295  1.0000
  C   C1152     1.0  0.15388  0.82135  0.82349  1.0000
  H   H932      1.0  0.14790  0.86851  0.82192  1.0000
  H   H933      1.0  0.14308  0.85795  0.85641  1.0000
  H   H934      1.0  0.15214  0.80058  0.84873  1.0000
  H   H935      1.0  0.15665  0.81109  0.81437  1.0000
  H   H936      1.0  0.99022  0.47817  0.72424  1.0000
  C   C1153     1.0  0.17499  0.94627  0.80117  1.0000
  H   H937      1.0  0.01351  0.79494  0.69411  1.0000
  H   H938      1.0  0.17738  0.93127  0.80161  1.0000
  C   C1154     1.0  0.18642  0.95428  0.80934  1.0000
  H   H939      1.0  0.98780  0.64369  0.63644  1.0000
  C   C1155     1.0  0.03122  0.67606  0.65839  1.0000
  C   C1156     1.0  0.20442  0.79389  0.84709  1.0000
  H   H940      1.0  0.17734  0.77549  0.94415  1.0000
  C   C1157     1.0  0.01946  0.76992  0.68196  1.0000
  C   C1158     1.0  0.15965  0.48891  0.67357  1.0000
  C   C1159     1.0  0.16487  0.49556  0.65447  1.0000
  H   H941      1.0  0.20766  0.77899  0.85209  1.0000
  H   H942      1.0  0.98356  0.90027  0.76013  1.0000
  H   H943      1.0  0.16450  0.51045  0.64951  1.0000
  H   H944      1.0  0.09931  0.64756  0.68646  1.0000
  H   H945      1.0  0.21549  0.88476  0.93998  1.0000
  C   C1160     1.0  0.20829  0.89799  0.71387  1.0000
  C   C1161     1.0  0.21468  0.88992  0.73070  1.0000
  C   C1162     1.0  0.00053  0.69737  0.67833  1.0000
  H   H946      1.0  0.05347  0.49755  0.69930  1.0000
  H   H947      1.0  0.02059  0.88729  0.81144  1.0000
  H   H948      1.0  0.20474  0.88805  0.74355  1.0000
  H   H949      1.0  0.03205  0.77369  0.67270  1.0000
  C   C1163     1.0  0.00899  0.78191  0.69407  1.0000
  H   H950      1.0  0.10826  0.51098  0.69550  1.0000
  C   C1164     1.0  0.20531  0.72825  0.88120  1.0000
  Fe  Fe96      1.0  0.99157  0.74615  0.83820  1.0000
  H   H951      1.0  0.07137  0.64256  0.67626  1.0000
  H   H952      1.0  0.16849  0.60821  0.71492  1.0000
  H   H953      1.0  0.20057  0.75791  0.88116  1.0000
  H   H954      1.0  0.21669  0.90672  0.68419  1.0000
  C   C1165     1.0  0.99886  0.67285  0.79607  1.0000
  H   H955      1.0  0.12483  0.61862  0.65148  1.0000
  C   C1166     1.0  0.21039  0.56960  0.71809  1.0000
  C   C1167     1.0  0.98459  0.73944  0.74633  1.0000
  H   H956      1.0  0.20452  0.57145  0.74742  1.0000
  C   C1168     1.0  0.06204  0.86815  0.72695  1.0000
  C   C1169     1.0  0.08033  0.86183  0.73107  1.0000
  C   C1170     1.0  0.08928  0.87320  0.73826  1.0000
  C   C1171     1.0  0.07997  0.89102  0.74156  1.0000
  C   C1172     1.0  0.06169  0.89736  0.73738  1.0000
  C   C1173     1.0  0.05285  0.88609  0.72993  1.0000
  H   H957      1.0  0.08768  0.84807  0.72862  1.0000
  H   H958      1.0  0.10337  0.86819  0.74125  1.0000
  H   H959      1.0  0.05442  0.91117  0.73976  1.0000
  H   H960      1.0  0.03900  0.89132  0.72638  1.0000
  C   C1174     1.0  0.05928  0.72504  0.87389  1.0000
  C   C1175     1.0  0.04969  0.74273  0.87732  1.0000
  C   C1176     1.0  0.05817  0.75397  0.88520  1.0000
  C   C1177     1.0  0.07651  0.74794  0.88925  1.0000
  C   C1178     1.0  0.08626  0.73043  0.88543  1.0000
  C   C1179     1.0  0.07758  0.71898  0.87802  1.0000
  H   H961      1.0  0.03580  0.74773  0.87388  1.0000
  H   H962      1.0  0.05049  0.76744  0.88820  1.0000
  H   H963      1.0  0.10032  0.72554  0.88855  1.0000
  H   H964      1.0  0.08507  0.70528  0.87553  1.0000
  C   C1180     1.0  0.00928  0.70535  0.66077  1.0000
  H   H965      1.0  0.04449  0.58503  0.66400  1.0000
  C   C1181     1.0  0.21433  0.52710  0.78173  1.0000
  H   H966      1.0  0.17714  0.48408  0.85917  1.0000
  C   C1182     1.0  0.05471  0.81393  0.64255  1.0000
  H   H967      1.0  0.20085  0.78786  0.95561  1.0000
  P   P37       1.0  0.19900  0.83170  0.91912  1.0000
  C   C1183     1.0  0.99816  0.81160  0.65417  1.0000
  C   C1184     1.0  0.04937  0.58043  0.70441  1.0000
  C   C1185     1.0  0.05161  0.59843  0.70569  1.0000
  C   C1186     1.0  0.06958  0.60353  0.70083  1.0000
  C   C1187     1.0  0.08545  0.59066  0.69474  1.0000
  C   C1188     1.0  0.08326  0.57259  0.69375  1.0000
  C   C1189     1.0  0.06526  0.56757  0.69846  1.0000
  H   H968      1.0  0.03949  0.60845  0.71026  1.0000
  H   H969      1.0  0.07115  0.61746  0.70185  1.0000
  H   H970      1.0  0.09537  0.56258  0.68906  1.0000
  H   H971      1.0  0.06358  0.55369  0.69738  1.0000
  H   H972      1.0  0.05650  0.81051  0.72817  1.0000
  H   H973      1.0  0.98511  0.87083  0.78383  1.0000
  H   H974      1.0  0.99924  0.53527  0.71336  1.0000
  H   H975      1.0  0.07613  0.59419  0.65556  1.0000
  C   C1190     1.0  0.03790  0.79500  0.74923  1.0000
  H   H976      1.0  0.02720  0.65384  0.68233  1.0000
  C   C1191     1.0  0.99111  0.65950  0.81026  1.0000
  C   C1192     1.0  0.04878  0.72637  0.94776  1.0000
  H   H977      1.0  0.99815  0.92390  0.71667  1.0000
  C   C1193     1.0  0.99666  0.74900  0.69282  1.0000
  H   H978      1.0  0.19960  0.60882  0.69517  1.0000
  C   C1194     1.0  0.07990  0.50634  0.69759  1.0000
  H   H979      1.0  0.22910  0.67479  0.94510  1.0000
  C   C1195     1.0  0.98206  0.80516  0.66499  1.0000
  C   C1196     1.0  0.19780  0.54058  0.78275  1.0000
  C   C1197     1.0  0.19700  0.50985  0.75864  1.0000
  H   H980      1.0  0.11476  0.67504  0.67061  1.0000
  C   C1198     1.0  0.19787  0.84701  0.89674  1.0000
  S   S184      1.0  0.99413  0.86305  0.73306  1.0000
  C   C1199     1.0  0.02244  0.66823  0.67616  1.0000
  H   H981      1.0  0.04952  0.71755  0.65812  1.0000
  C   C1200     1.0  0.02470  0.69481  0.65089  1.0000
  C   C1201     1.0  0.19868  0.51834  0.73975  1.0000
  C   C1202     1.0  0.18375  0.52044  0.73012  1.0000
  C   C1203     1.0  0.16704  0.51421  0.73925  1.0000
  C   C1204     1.0  0.16505  0.50623  0.75820  1.0000
  C   C1205     1.0  0.17989  0.50421  0.76793  1.0000
  C   C1206     1.0  0.19143  0.48119  0.86188  1.0000
  C   C1207     1.0  0.98605  0.80658  0.79985  1.0000
  C   C1208     1.0  0.12390  0.62609  0.63738  1.0000
  C   C1209     1.0  0.10258  0.67268  0.66597  1.0000
  C   C1210     1.0  0.06535  0.62387  0.65014  1.0000
  C   C1211     1.0  0.06365  0.60489  0.65496  1.0000
  H   H982      1.0  0.21553  0.97062  0.78120  1.0000
  H   H983      1.0  0.00700  0.75022  0.89421  1.0000
  C   C1212     1.0  0.21819  0.57617  0.64430  1.0000
  H   H984      1.0  0.01592  0.60947  0.66291  1.0000
  H   H985      1.0  0.00139  0.65110  0.75876  1.0000
  H   H986      1.0  0.18499  0.52723  0.71561  1.0000
  H   H987      1.0  0.15560  0.51577  0.73162  1.0000
  H   H988      1.0  0.15196  0.50170  0.76536  1.0000
  H   H989      1.0  0.17798  0.49825  0.78268  1.0000
  H   H990      1.0  0.19209  0.79997  0.87466  1.0000
  C   C1213     1.0  0.02248  0.80617  0.84064  1.0000
  C   C1214     1.0  0.03669  0.79563  0.85022  1.0000
  C   C1215     1.0  0.05554  0.79526  0.84184  1.0000
  C   C1216     1.0  0.06023  0.80513  0.82371  1.0000
  C   C1217     1.0  0.04603  0.81581  0.81404  1.0000
  C   C1218     1.0  0.02713  0.81640  0.82273  1.0000
  P   P38       1.0  0.05156  0.82759  0.79015  1.0000
  C   C1219     1.0  0.03716  0.85064  0.78773  1.0000
  C   C1220     1.0  0.07595  0.83081  0.78444  1.0000
  C   C1221     1.0  0.08115  0.84714  0.78727  1.0000
  C   C1222     1.0  0.09990  0.84978  0.78235  1.0000
  C   C1223     1.0  0.11366  0.83620  0.77456  1.0000
  C   C1224     1.0  0.10866  0.81994  0.77165  1.0000
  C   C1225     1.0  0.08993  0.81718  0.77670  1.0000
  C   C1226     1.0  0.03116  0.85910  0.77071  1.0000
  C   C1227     1.0  0.02150  0.87758  0.76841  1.0000
  C   C1228     1.0  0.01773  0.88776  0.78304  1.0000
  C   C1229     1.0  0.02331  0.87933  0.80016  1.0000
  C   C1230     1.0  0.03296  0.86083  0.80253  1.0000
  C   C1231     1.0  0.04666  0.81420  0.77440  1.0000
  C   C1232     1.0  0.03407  0.80138  0.78066  1.0000
  C   C1233     1.0  0.02980  0.79179  0.76813  1.0000
  H   H991      1.0  0.99232  0.73608  0.69226  1.0000
  C   C1234     1.0  0.05056  0.80756  0.74292  1.0000
  C   C1235     1.0  0.05496  0.81707  0.75544  1.0000
  H   H992      1.0  0.00784  0.80614  0.84693  1.0000
  H   H993      1.0  0.03309  0.78762  0.86407  1.0000
  H   H994      1.0  0.06648  0.78701  0.84934  1.0000
  H   H995      1.0  0.07486  0.80428  0.81726  1.0000
  H   H996      1.0  0.01595  0.82433  0.81539  1.0000
  H   H997      1.0  0.07082  0.85812  0.79290  1.0000
  H   H998      1.0  0.10371  0.86263  0.78415  1.0000
  H   H999      1.0  0.12813  0.83847  0.77058  1.0000
  H   H1000     1.0  0.11931  0.80956  0.76533  1.0000
  H   H1001     1.0  0.08627  0.80462  0.77420  1.0000
  H   H1002     1.0  0.03431  0.85175  0.75897  1.0000
  H   H1003     1.0  0.01729  0.88405  0.75508  1.0000
  C   C1236     1.0  0.22254  0.50314  0.69742  1.0000
  H   H1004     1.0  0.22397  0.85650  0.85321  1.0000
  H   H1005     1.0  0.03774  0.85472  0.81569  1.0000
  H   H1006     1.0  0.02734  0.79872  0.79511  1.0000
  H   H1007     1.0  0.01985  0.78217  0.77301  1.0000
  C   C1237     1.0  0.01453  0.71321  0.91339  1.0000
  C   C1238     1.0  0.15505  0.63749  0.67630  1.0000
  H   H1008     1.0  0.06438  0.82717  0.75014  1.0000
  H   H1009     1.0  0.17357  0.64614  0.65098  1.0000
  C   C1239     1.0  0.98547  0.78743  0.80643  1.0000
  S   S185      1.0  0.99450  0.73454  0.86821  1.0000
  C   C1240     1.0  0.11984  0.59815  0.73418  1.0000
  C   C1241     1.0  0.12985  0.59400  0.74898  1.0000
  C   C1242     1.0  0.12055  0.59706  0.76683  1.0000
  C   C1243     1.0  0.10121  0.60408  0.76992  1.0000
  C   C1244     1.0  0.09105  0.60827  0.75509  1.0000
  C   C1245     1.0  0.10058  0.60535  0.73718  1.0000
  P   P39       1.0  0.06583  0.61622  0.75896  1.0000
  C   C1246     1.0  0.05368  0.59706  0.75994  1.0000
  C   C1247     1.0  0.05786  0.62535  0.78063  1.0000
  C   C1248     1.0  0.05590  0.61292  0.79778  1.0000
  C   C1249     1.0  0.04856  0.61979  0.81450  1.0000
  C   C1250     1.0  0.04317  0.63910  0.81423  1.0000
  C   C1251     1.0  0.04526  0.65156  0.79727  1.0000
  C   C1252     1.0  0.05254  0.64477  0.78052  1.0000
  C   C1253     1.0  0.03526  0.59723  0.77000  1.0000
  C   C1254     1.0  0.02546  0.58291  0.77018  1.0000
  C   C1255     1.0  0.03380  0.56844  0.76013  1.0000
  C   C1256     1.0  0.05210  0.56811  0.75013  1.0000
  C   C1257     1.0  0.06202  0.58234  0.75000  1.0000
  C   C1258     1.0  0.05951  0.63472  0.74008  1.0000
  C   C1259     1.0  0.07193  0.64715  0.73093  1.0000
  C   C1260     1.0  0.06643  0.66223  0.71716  1.0000
  C   C1261     1.0  0.04854  0.66500  0.71248  1.0000
  C   C1262     1.0  0.03610  0.65275  0.72167  1.0000
  C   C1263     1.0  0.04153  0.63772  0.73543  1.0000
  H   H1010     1.0  0.12693  0.59548  0.72039  1.0000
  H   H1011     1.0  0.14477  0.58827  0.74661  1.0000
  H   H1012     1.0  0.12832  0.59381  0.77832  1.0000
  H   H1013     1.0  0.09431  0.60612  0.78388  1.0000
  H   H1014     1.0  0.09304  0.60830  0.72556  1.0000
  H   H1015     1.0  0.05966  0.59789  0.79818  1.0000
  H   H1016     1.0  0.01877  0.64295  0.65395  1.0000
  H   H1017     1.0  0.03713  0.64447  0.82710  1.0000
  H   H1018     1.0  0.04079  0.66653  0.79708  1.0000
  H   H1019     1.0  0.05355  0.65477  0.76759  1.0000
  H   H1020     1.0  0.02819  0.60866  0.77737  1.0000
  H   H1021     1.0  0.01117  0.58334  0.77777  1.0000
  H   H1022     1.0  0.02593  0.55772  0.75972  1.0000
  H   H1023     1.0  0.05835  0.55715  0.74193  1.0000
  H   H1024     1.0  0.07594  0.58196  0.74169  1.0000
  H   H1025     1.0  0.08568  0.64544  0.73468  1.0000
  H   H1026     1.0  0.07596  0.67191  0.71027  1.0000
  H   H1027     1.0  0.04425  0.67673  0.70190  1.0000
  H   H1028     1.0  0.02210  0.65495  0.71841  1.0000
  H   H1029     1.0  0.03150  0.62866  0.74261  1.0000
  C   C1264     1.0  0.16296  0.82489  0.92029  1.0000
  C   C1265     1.0  0.22250  0.85851  0.95820  1.0000
  C   C1266     1.0  0.00285  0.66944  0.77753  1.0000
  C   C1267     1.0  0.07998  0.68191  0.64485  1.0000
  C   C1268     1.0  0.16964  0.61677  0.70108  1.0000
  H   H1030     1.0  0.22439  0.69321  0.63090  1.0000
  H   H1031     1.0  0.00909  0.67950  0.76646  1.0000
  C   C1269     1.0  0.21391  0.76260  0.82042  1.0000
  C   C1270     1.0  0.18905  0.62790  0.67166  1.0000
  Fe  Fe97      1.0  0.98600  0.83682  0.72854  1.0000
  C   C1271     1.0  0.20449  0.72703  0.83582  1.0000
  C   C1272     1.0  0.19064  0.74305  0.83641  1.0000
  C   C1273     1.0  0.19525  0.76077  0.82858  1.0000
  C   C1274     1.0  0.13952  0.82097  0.94834  1.0000
  C   C1275     1.0  0.98396  0.78276  0.64412  1.0000
  H   H1032     1.0  0.02898  0.69197  0.89701  1.0000
  C   C1276     1.0  0.20906  0.86166  0.93027  1.0000
  H   H1033     1.0  0.07925  0.62760  0.64659  1.0000
  H   H1034     1.0  0.16816  0.94917  0.70939  1.0000
  C   C1277     1.0  0.20720  0.85169  0.77214  1.0000
  H   H1035     1.0  0.20100  0.71338  0.84250  1.0000
  H   H1036     1.0  0.17649  0.74171  0.84355  1.0000
  C   C1278     1.0  0.09567  0.68494  0.65089  1.0000
  H   H1037     1.0  0.18837  0.97024  0.68773  1.0000
  H   H1038     1.0  0.10255  0.69672  0.64368  1.0000
  C   C1279     1.0  0.98446  0.49291  0.72373  1.0000
  C   C1280     1.0  0.21889  0.71237  0.87801  1.0000
  H   H1039     1.0  0.19700  0.50891  0.84910  1.0000
  C   C1281     1.0  0.22297  0.72869  0.82726  1.0000
  H   H1040     1.0  0.03128  0.70121  0.63727  1.0000
  H   H1041     1.0  0.22093  0.56813  0.68905  1.0000
  H   H1042     1.0  0.00086  0.72618  0.76811  1.0000
  C   C1282     1.0  0.04488  0.75927  0.93379  1.0000
  C   C1283     1.0  0.21611  0.83107  0.94933  1.0000
  H   H1043     1.0  0.19789  0.73982  0.93733  1.0000
  H   H1044     1.0  0.12997  0.65171  0.64233  1.0000
  C   C1284     1.0  0.21224  0.85770  0.86465  1.0000
  P   P40       1.0  0.21207  0.62852  0.65731  1.0000
  C   C1285     1.0  0.15350  0.62693  0.69435  1.0000
  C   C1286     1.0  0.21518  0.57131  0.73497  1.0000
  H   H1045     1.0  0.98405  0.78750  0.71419  1.0000
  C   C1287     1.0  0.15177  0.82453  0.95870  1.0000
  C   C1288     1.0  0.98851  0.76112  0.91751  1.0000
  Fe  Fe98      1.0  0.98187  0.61240  0.75477  1.0000
  C   C1289     1.0  0.07165  0.73377  0.64657  1.0000
  H   H1046     1.0  0.14251  0.64511  0.67105  1.0000
  H   H1047     1.0  0.22575  0.83554  0.88359  1.0000
  C   C1290     1.0  0.98975  0.52512  0.71747  1.0000
  H   H1048     1.0  0.21298  0.56321  0.65040  1.0000
  H   H1049     1.0  0.21134  0.52362  0.73249  1.0000
  C   C1291     1.0  0.98697  0.73234  0.76487  1.0000
  C   C1292     1.0  0.05403  0.72906  0.64763  1.0000
  C   C1293     1.0  0.99613  0.93820  0.71918  1.0000
  H   H1050     1.0  0.22483  0.96930  0.68607  1.0000
  H   H1051     1.0  0.20802  0.82662  0.80737  1.0000
  C   C1294     1.0  0.21316  0.84576  0.88191  1.0000
  C   C1295     1.0  0.06854  0.49315  0.69830  1.0000
  C   C1296     1.0  0.98409  0.69420  0.92050  1.0000
  H   H1052     1.0  0.02645  0.72049  0.91008  1.0000
  C   C1297     1.0  0.21255  0.79251  0.78883  1.0000
  H   H1053     1.0  0.19531  0.85014  0.76646  1.0000
  H   H1054     1.0  0.13554  0.81869  0.92102  1.0000
  H   H1055     1.0  0.21677  0.94050  0.71045  1.0000
  H   H1056     1.0  0.98833  0.66168  0.82461  1.0000
  H   H1057     1.0  0.08078  0.72599  0.65629  1.0000
  C   C1298     1.0  0.99210  0.77773  0.70525  1.0000
  C   C1299     1.0  0.09935  0.50078  0.69620  1.0000
  C   C1300     1.0  0.99850  0.65332  0.77311  1.0000
  H   H1058     1.0  0.19518  0.88004  0.84866  1.0000
  H   H1059     1.0  0.07364  0.52087  0.69807  1.0000
  H   H1060     1.0  0.06200  0.78430  0.64330  1.0000
  C   C1301     1.0  0.02974  0.61348  0.65915  1.0000
  H   H1061     1.0  0.12590  0.81751  0.95526  1.0000
  C   C1302     1.0  0.17552  0.82811  0.93063  1.0000
  H   H1062     1.0  0.18940  0.47841  0.69837  1.0000
  C   C1303     1.0  0.19162  0.82508  0.85385  1.0000
  C   C1304     1.0  0.03140  0.63246  0.65428  1.0000
  C   C1305     1.0  0.99046  0.64012  0.78726  1.0000
  S   S186      1.0  0.98791  0.77781  0.82979  1.0000
  C   C1306     1.0  0.15078  0.74936  0.77313  1.0000
  C   C1307     1.0  0.16571  0.75831  0.77314  1.0000
  C   C1308     1.0  0.16519  0.76778  0.78773  1.0000
  C   C1309     1.0  0.14960  0.76859  0.80214  1.0000
  C   C1310     1.0  0.13423  0.76020  0.80189  1.0000
  C   C1311     1.0  0.13521  0.75005  0.78760  1.0000
  P   P41       1.0  0.11494  0.75985  0.82136  1.0000
  C   C1312     1.0  0.12188  0.73897  0.83763  1.0000
  C   C1313     1.0  0.11134  0.78080  0.83142  1.0000
  C   C1314     1.0  0.10524  0.78018  0.85070  1.0000
  C   C1315     1.0  0.10201  0.79655  0.85838  1.0000
  C   C1316     1.0  0.10466  0.81366  0.84683  1.0000
  C   C1317     1.0  0.11031  0.81447  0.82754  1.0000
  C   C1318     1.0  0.11363  0.79811  0.81985  1.0000
  C   C1319     1.0  0.11517  0.72229  0.83854  1.0000
  C   C1320     1.0  0.12119  0.70608  0.85084  1.0000
  C   C1321     1.0  0.13403  0.70637  0.86219  1.0000
  C   C1322     1.0  0.14112  0.72277  0.86098  1.0000
  C   C1323     1.0  0.13525  0.73893  0.84857  1.0000
  C   C1324     1.0  0.09256  0.75984  0.81513  1.0000
  C   C1325     1.0  0.08910  0.76699  0.79686  1.0000
  C   C1326     1.0  0.07149  0.76731  0.79241  1.0000
  C   C1327     1.0  0.05716  0.76075  0.80623  1.0000
  C   C1328     1.0  0.06040  0.75398  0.82452  1.0000
  C   C1329     1.0  0.07795  0.75370  0.82901  1.0000
  H   H1063     1.0  0.15140  0.74163  0.76204  1.0000
  H   H1064     1.0  0.17785  0.75764  0.76202  1.0000
  H   H1065     1.0  0.17698  0.77426  0.78802  1.0000
  H   H1066     1.0  0.14969  0.77557  0.81359  1.0000
  H   H1067     1.0  0.12408  0.74246  0.78775  1.0000
  H   H1068     1.0  0.10298  0.76708  0.85986  1.0000
  H   H1069     1.0  0.09763  0.79593  0.87336  1.0000
  H   H1070     1.0  0.10261  0.82623  0.85288  1.0000
  H   H1071     1.0  0.11251  0.82774  0.81861  1.0000
  H   H1072     1.0  0.11806  0.79899  0.80491  1.0000
  H   H1073     1.0  0.10530  0.72170  0.82982  1.0000
  H   H1074     1.0  0.11570  0.69336  0.85176  1.0000
  H   H1075     1.0  0.13851  0.69390  0.87193  1.0000
  H   H1076     1.0  0.15115  0.72295  0.86973  1.0000
  H   H1077     1.0  0.14115  0.75142  0.84743  1.0000
  H   H1078     1.0  0.09991  0.77241  0.78608  1.0000
  H   H1079     1.0  0.06891  0.77267  0.77825  1.0000
  H   H1080     1.0  0.04350  0.76095  0.80284  1.0000
  H   H1081     1.0  0.04928  0.74894  0.83527  1.0000
  H   H1082     1.0  0.08009  0.74874  0.84335  1.0000
  H   H1083     1.0  0.02830  0.73615  0.63618  1.0000
  C   C1330     1.0  0.19605  0.83256  0.83487  1.0000
  H   H1084     1.0  0.19269  0.92958  0.76829  1.0000
  H   H1085     1.0  0.19223  0.84749  0.83009  1.0000
  C   C1331     1.0  0.01339  0.75338  0.68150  1.0000
  P   P42       1.0  0.21634  0.50671  0.77115  1.0000
  P   P43       1.0  0.05113  0.66237  0.64568  1.0000
  C   C1332     1.0  0.04918  0.63781  0.65039  1.0000
  C   C1333     1.0  0.07138  0.66630  0.65352  1.0000
  C   C1334     1.0  0.07817  0.65429  0.66890  1.0000
  C   C1335     1.0  0.09390  0.65728  0.67490  1.0000
  C   C1336     1.0  0.00705  0.67882  0.68598  1.0000
  C   C1337     1.0  0.04585  0.59971  0.65965  1.0000
  C   C1338     1.0  0.02638  0.75892  0.93227  1.0000
  H   H1086     1.0  0.01173  0.50123  0.71440  1.0000
  C   C1339     1.0  0.21562  0.48579  0.78882  1.0000
  H   H1087     1.0  0.98840  0.81513  0.80902  1.0000
  H   H1088     1.0  0.17787  0.82038  0.76665  1.0000
  H   H1089     1.0  0.02492  0.71286  0.95091  1.0000
  C   C1340     1.0  0.03027  0.72596  0.94630  1.0000
  C   C1341     1.0  0.19680  0.55659  0.79043  1.0000
  H   H1090     1.0  0.09106  0.75234  0.63258  1.0000
  C   C1342     1.0  0.01604  0.69706  0.90579  1.0000
  H   H1091     1.0  0.05081  0.77201  0.92853  1.0000
  H   H1092     1.0  0.01927  0.80869  0.62957  1.0000
  C   C1343     1.0  0.19059  0.81029  0.76859  1.0000
  C   C1344     1.0  0.17274  0.63799  0.66495  1.0000
  C   C1345     1.0  0.22866  0.54581  0.79630  1.0000
  C   C1346     1.0  0.19604  0.87094  0.86207  1.0000
  C   C1347     1.0  0.17037  0.48292  0.64168  1.0000
  C   C1348     1.0  0.21135  0.73318  0.94138  1.0000
  H   H1093     1.0  0.18579  0.53902  0.77732  1.0000
  C   C1349     1.0  0.18177  0.86057  0.89410  1.0000
  S   S187      1.0  0.14004  0.76722  0.96195  1.0000
  H   H1094     1.0  0.16985  0.86201  0.90536  1.0000
  H   H1095     1.0  0.02545  0.93740  0.71942  1.0000
  H   H1096     1.0  0.21157  0.57169  0.80297  1.0000
  H   H1097     1.0  0.01068  0.90225  0.78101  1.0000
  P   P44       1.0  0.99589  0.74098  0.93450  1.0000
  C   C1350     1.0  0.99781  0.71985  0.92494  1.0000
  C   C1351     1.0  0.99675  0.50595  0.71812  1.0000
  H   H1098     1.0  0.19067  0.79584  0.91441  1.0000
  H   H1099     1.0  0.18437  0.77307  0.82943  1.0000
  H   H1100     1.0  0.00367  0.71953  0.65459  1.0000
  H   H1101     1.0  0.98815  0.70526  0.68566  1.0000
  C   C1352     1.0  0.20322  0.93484  0.73880  1.0000
  C   C1353     1.0  0.16014  0.95766  0.79296  1.0000
  C   C1354     1.0  0.21255  0.59164  0.65347  1.0000
  C   C1355     1.0  0.20163  0.80247  0.75347  1.0000
  H   H1102     1.0  0.15429  0.95592  0.74133  1.0000
  H   H1103     1.0  0.21066  0.76575  0.90920  1.0000
  H   H1104     1.0  0.19771  0.94533  0.81583  1.0000
  C   C1356     1.0  0.00079  0.68764  0.90923  1.0000
  H   H1105     1.0  0.05761  0.71373  0.95346  1.0000
  H   H1106     1.0  0.20320  0.59029  0.66681  1.0000
  H   H1107     1.0  0.18417  0.56712  0.79087  1.0000
  P   P45       1.0  0.21979  0.78570  0.81147  1.0000
  C   C1357     1.0  0.20460  0.82067  0.82198  1.0000
  S   S188      1.0  0.00380  0.69398  0.80056  1.0000
  H   H1108     1.0  0.19012  0.86825  0.79208  1.0000
  C   C1358     1.0  0.21582  0.86973  0.94247  1.0000
  C   C1359     1.0  0.20844  0.80120  0.82793  1.0000
  C   C1360     1.0  0.04213  0.73941  0.63532  1.0000
  C   C1361     1.0  0.18083  0.87236  0.87679  1.0000
  C   C1362     1.0  0.20567  0.79447  0.91336  1.0000
  C   C1363     1.0  0.22149  0.90041  0.69727  1.0000
  H   H1109     1.0  0.20343  0.87066  0.91851  1.0000
  H   H1110     1.0  0.22640  0.78318  0.74435  1.0000
  H   H1111     1.0  0.13978  0.62631  0.70299  1.0000
  C   C1364     1.0  0.21097  0.74566  0.87863  1.0000
  C   C1365     1.0  0.21748  0.94108  0.72471  1.0000
  H   H1112     1.0  0.18706  0.81139  0.79767  1.0000
  C   C1366     1.0  0.18732  0.61715  0.68978  1.0000
  C   C1367     1.0  0.20387  0.93437  0.75751  1.0000
  H   H1113     1.0  0.02139  0.74415  0.67205  1.0000
  C   C1368     1.0  0.21701  0.77732  0.91040  1.0000
  C   C1369     1.0  0.21901  0.93981  0.76225  1.0000
  H   H1114     1.0  0.16710  0.82477  0.90543  1.0000
  H   H1115     1.0  0.19174  0.93003  0.73522  1.0000
  H   H1116     1.0  0.04724  0.84405  0.63784  1.0000
  H   H1117     1.0  0.21460  0.69885  0.87998  1.0000
  C   C1370     1.0  0.98253  0.71024  0.92827  1.0000
  H   H1118     1.0  0.18419  0.83413  0.86376  1.0000
  C   C1371     1.0  0.22118  0.48462  0.80607  1.0000
  C   C1372     1.0  0.19595  0.80527  0.78621  1.0000
  C   C1373     1.0  0.98313  0.81483  0.78157  1.0000
  C   C1374     1.0  0.20925  0.84221  0.93360  1.0000
  H   H1119     1.0  0.00181  0.67542  0.90293  1.0000
  C   C1375     1.0  0.20431  0.86223  0.78636  1.0000
  H   H1120     1.0  0.16820  0.88254  0.87478  1.0000
  H   H1121     1.0  0.19753  0.80656  0.73978  1.0000
  C   C1376     1.0  0.01148  0.94584  0.72062  1.0000
  C   C1377     1.0  0.20263  0.49516  0.85621  1.0000
  H   H1122     1.0  0.07065  0.74324  0.94194  1.0000
  C   C1378     1.0  0.22434  0.56947  0.70211  1.0000
  C   C1379     1.0  0.05612  0.74299  0.94137  1.0000
  C   C1380     1.0  0.98556  0.76144  0.70436  1.0000
  C   C1381     1.0  0.21368  0.80948  0.91522  1.0000
  C   C1382     1.0  0.21888  0.66517  0.64263  1.0000
  C   C1383     1.0  0.14504  0.82138  0.92910  1.0000
  C   C1384     1.0  0.17457  0.77828  0.95826  1.0000
  C   C1385     1.0  0.21222  0.55920  0.79721  1.0000
  C   C1386     1.0  0.00694  0.80369  0.63814  1.0000
  C   C1387     1.0  0.22767  0.74639  0.81944  1.0000
  C   C1388     1.0  0.17085  0.96135  0.71378  1.0000
  H   H1123     1.0  0.20774  0.50235  0.69988  1.0000
  C   C1389     1.0  0.22259  0.83918  0.96163  1.0000
  C   C1390     1.0  0.12667  0.64474  0.63231  1.0000
  C   C1391     1.0  0.99648  0.76170  0.89857  1.0000
  H   H1124     1.0  0.21727  0.53326  0.69524  1.0000
  H   H1125     1.0  0.21693  0.87320  0.80423  1.0000
  Fe  Fe99      1.0  0.98240  0.87657  0.70663  1.0000
  H   H1126     1.0  0.12254  0.47804  0.69441  1.0000
  C   C1392     1.0  0.99990  0.78938  0.63311  1.0000
  C   C1393     1.0  0.21563  0.73583  0.95805  1.0000
  H   H1127     1.0  0.99682  0.73869  0.73536  1.0000
  H   H1128     1.0  0.21958  0.93899  0.77686  1.0000
  C   C1394     1.0  0.21791  0.78936  0.75606  1.0000
  C   C1395     1.0  0.07663  0.47436  0.69764  1.0000
  C   C1396     1.0  0.16306  0.96504  0.73175  1.0000
  C   C1397     1.0  0.99087  0.77703  0.88513  1.0000
  H   H1129     1.0  0.01813  0.77163  0.92597  1.0000
  H   H1130     1.0  0.98160  0.76175  0.79959  1.0000
  C   C1398     1.0  0.01900  0.74219  0.93833  1.0000
  C   C1399     1.0  0.98231  0.65428  0.64518  1.0000
  H   H1131     1.0  0.99667  0.77701  0.87043  1.0000
  C   C1400     1.0  0.05287  0.83171  0.63137  1.0000
  C   C1401     1.0  0.22536  0.84317  0.76531  1.0000
  C   C1402     1.0  0.16967  0.82815  0.94992  1.0000
  C   C1403     1.0  0.21961  0.86487  0.79331  1.0000
  H   H1132     1.0  0.17897  0.83032  0.95848  1.0000
  C   C1404     1.0  0.19049  0.47139  0.71257  1.0000
  C   C1405     1.0  0.22113  0.49141  0.85958  1.0000
  C   C1406     1.0  0.98212  0.77650  0.79460  1.0000
  C   C1407     1.0  0.22980  0.52997  0.78838  1.0000
  H   H1133     1.0  0.21048  0.64642  0.68939  1.0000
  C   C1408     1.0  0.22327  0.78427  0.77370  1.0000
  H   H1134     1.0  0.22283  0.96327  0.65504  1.0000
  C   C1409     1.0  0.98700  0.64324  0.80587  1.0000
  C   C1410     1.0  0.22859  0.47359  0.86869  1.0000
  C   C1411     1.0  0.22790  0.52074  0.69459  1.0000
  C   C1412     1.0  0.23003  0.74726  0.87222  1.0000
  H   H1135     1.0  0.23027  0.91624  0.82514  1.0000
  H   H1136     1.0  0.22601  0.49620  0.80929  1.0000
  C   C1413     1.0  0.06115  0.79788  0.63433  1.0000
  H   H1137     1.0  0.16055  0.47700  0.72198  1.0000
  C   C1414     1.0  0.21186  0.64981  0.64001  1.0000
  S   S189      1.0  0.98521  0.58250  0.75026  1.0000
  H   H1138     1.0  0.98327  0.82965  0.77668  1.0000
  H   H1139     1.0  0.22755  0.83505  0.75422  1.0000
  H   H1140     1.0  0.98100  0.63304  0.81698  1.0000
  C   C1415     1.0  0.00882  0.96443  0.72337  1.0000
  C   C1416     1.0  0.21892  0.60860  0.64535  1.0000
  C   C1417     1.0  0.22437  0.72194  0.92997  1.0000
  S   S190      1.0  0.98520  0.61922  0.78260  1.0000
  H   H1141     1.0  0.22111  0.71995  0.91699  1.0000
  H   H1142     1.0  0.02078  0.97035  0.72437  1.0000
  C   C1418     1.0  0.22387  0.63708  0.68744  1.0000
  H   H1143     1.0  0.22463  0.66463  0.65504  1.0000
  H   H1144     1.0  0.22945  0.50248  0.85497  1.0000
  H   H1145     1.0  0.22992  0.47118  0.90983  1.0000
  H   H1146     1.0  0.26740  0.39337  0.96572  1.0000
  H   H1147     1.0  0.33485  0.28577  0.01476  1.0000
  C   C1419     1.0  0.26361  0.03653  0.01042  1.0000
  H   H1148     1.0  0.24561  0.98583  0.15454  1.0000
  S   S191      1.0  0.46808  0.38390  0.18054  1.0000
  C   C1420     1.0  0.43998  0.43547  0.23246  1.0000
  S   S192      1.0  0.45541  0.04411  0.22015  1.0000
  S   S193      1.0  0.46259  0.09863  0.21977  1.0000
  C   C1421     1.0  0.29788  0.97456  0.26064  1.0000
  S   S194      1.0  0.45712  0.23402  0.04318  1.0000
  C   C1422     1.0  0.36446  0.45195  0.26452  1.0000
  P   P46       1.0  0.42577  0.45736  0.23781  1.0000
  S   S195      1.0  0.45325  0.23281  0.09826  1.0000
  C   C1423     1.0  0.26392  0.23246  0.98004  1.0000
  C   C1424     1.0  0.29849  0.00645  0.09255  1.0000
  Fe  Fe100     1.0  0.26218  0.45604  0.10013  1.0000
  H   H1149     1.0  0.46449  0.11055  0.14824  1.0000
  C   C1425     1.0  0.40163  0.11717  0.21800  1.0000
  H   H1150     1.0  0.47162  0.38848  0.22188  1.0000
  Fe  Fe101     1.0  0.36696  0.45601  0.20294  1.0000
  S   S196      1.0  0.38500  0.42668  0.20844  1.0000
  C   C1426     1.0  0.46001  0.06701  0.17353  1.0000
  S   S197      1.0  0.34153  0.99387  0.20191  1.0000
  C   C1427     1.0  0.30441  0.98116  0.07468  1.0000
  P   P47       1.0  0.43501  0.26691  0.19963  1.0000
  H   H1151     1.0  0.24260  0.03280  0.09638  1.0000
  Fe  Fe102     1.0  0.36975  0.99055  0.21115  1.0000
  S   S198      1.0  0.37862  0.01708  0.21637  1.0000
  H   H1152     1.0  0.42215  0.45408  0.27851  1.0000
  C   C1428     1.0  0.23335  0.35611  0.04604  1.0000
  C   C1429     1.0  0.43036  0.14420  0.12752  1.0000
  Fe  Fe103     1.0  0.37494  0.21317  0.99634  1.0000
  H   H1153     1.0  0.44031  0.06374  0.14196  1.0000
  S   S199      1.0  0.38953  0.20441  0.02212  1.0000
  C   C1430     1.0  0.43291  0.26228  0.16363  1.0000
  Fe  Fe104     1.0  0.24136  0.45124  0.06956  1.0000
  Fe  Fe105     1.0  0.24631  0.08581  0.97878  1.0000
  H   H1154     1.0  0.46541  0.21364  0.16651  1.0000
  H   H1155     1.0  0.32370  0.01403  0.09761  1.0000
  C   C1431     1.0  0.24182  0.00325  0.20311  1.0000
  S   S200      1.0  0.34340  0.22240  0.00086  1.0000
  C   C1432     1.0  0.27523  0.00194  0.97402  1.0000
  C   C1433     1.0  0.24706  0.99283  0.21994  1.0000
  S   S201      1.0  0.24808  0.29862  0.99152  1.0000
  C   C1434     1.0  0.27853  0.39016  0.97401  1.0000
  S   S202      1.0  0.24668  0.11706  0.97488  1.0000
  Fe  Fe106     1.0  0.46996  0.06689  0.22585  1.0000
  Fe  Fe107     1.0  0.35548  0.97217  0.18394  1.0000
  C   C1435     1.0  0.26566  0.35092  0.02970  1.0000
  C   C1436     1.0  0.23832  0.03911  0.03679  1.0000
  C   C1437     1.0  0.39573  0.12588  0.20108  1.0000
  C   C1438     1.0  0.46314  0.40164  0.22508  1.0000
  C   C1439     1.0  0.28150  0.27492  0.99470  1.0000
  C   C1440     1.0  0.27279  0.29291  0.98733  1.0000
  H   H1156     1.0  0.28092  0.41076  0.05559  1.0000
  C   C1441     1.0  0.35672  0.47066  0.11773  1.0000
  H   H1157     1.0  0.27012  0.97581  0.23280  1.0000
  H   H1158     1.0  0.27305  0.26499  0.00344  1.0000
  S   S203      1.0  0.24557  0.97967  0.09981  1.0000
  H   H1159     1.0  0.32839  0.45733  0.15404  1.0000
  C   C1442     1.0  0.46166  0.23339  0.24108  1.0000
  C   C1443     1.0  0.43562  0.29182  0.19282  1.0000
  H   H1160     1.0  0.31201  0.34466  0.05380  1.0000
  C   C1444     1.0  0.43109  0.13023  0.14342  1.0000
  H   H1161     1.0  0.44668  0.14673  0.28925  1.0000
  C   C1445     1.0  0.24591  0.17431  0.98678  1.0000
  H   H1162     1.0  0.31201  0.31053  0.96401  1.0000
  C   C1446     1.0  0.42197  0.10895  0.12752  1.0000
  C   C1447     1.0  0.26107  0.01009  0.03655  1.0000
  Fe  Fe108     1.0  0.34873  0.24506  0.97613  1.0000
  S   S204      1.0  0.23710  0.06951  0.00806  1.0000
  H   H1163     1.0  0.28327  0.01038  0.01253  1.0000
  C   C1448     1.0  0.24318  0.33262  0.02607  1.0000
  C   C1449     1.0  0.29382  0.45740  0.12943  1.0000
  C   C1450     1.0  0.23331  0.00691  0.25585  1.0000
  S   S205      1.0  0.33673  0.27604  0.97395  1.0000
  C   C1451     1.0  0.31465  0.46052  0.14999  1.0000
  C   C1452     1.0  0.24678  0.19977  0.00250  1.0000
  C   C1453     1.0  0.46455  0.41817  0.21210  1.0000
  H   H1164     1.0  0.45308  0.28871  0.07340  1.0000
  H   H1165     1.0  0.27950  0.42938  0.17770  1.0000
  H   H1166     1.0  0.31891  0.99198  0.25660  1.0000
  H   H1167     1.0  0.27081  0.04245  0.99691  1.0000
  C   C1454     1.0  0.47734  0.28044  0.12878  1.0000
  C   C1455     1.0  0.31213  0.28231  0.97930  1.0000
  C   C1456     1.0  0.32685  0.29950  0.01677  1.0000
  S   S206      1.0  0.33624  0.45775  0.21648  1.0000
  C   C1457     1.0  0.39818  0.26030  0.20343  1.0000
  H   H1168     1.0  0.45914  0.22139  0.25189  1.0000
  C   C1458     1.0  0.42459  0.09468  0.20196  1.0000
  C   C1459     1.0  0.34624  0.00217  0.27826  1.0000
  H   H1169     1.0  0.27704  0.99662  0.08320  1.0000
  C   C1460     1.0  0.23070  0.44782  0.16279  1.0000
  S   S207      1.0  0.45730  0.11741  0.26707  1.0000
  C   C1461     1.0  0.24528  0.18736  0.01969  1.0000
  C   C1462     1.0  0.26291  0.07165  0.05535  1.0000
  C   C1463     1.0  0.31733  0.33237  0.00433  1.0000
  H   H1170     1.0  0.32295  0.44426  0.12761  1.0000
  C   C1464     1.0  0.47001  0.12569  0.28056  1.0000
  C   C1465     1.0  0.29432  0.39892  0.96805  1.0000
  C   C1466     1.0  0.38880  0.26378  0.24121  1.0000
  C   C1467     1.0  0.43846  0.22537  0.03753  1.0000
  C   C1468     1.0  0.43036  0.21057  0.04910  1.0000
  C   C1469     1.0  0.41542  0.20442  0.04419  1.0000
  C   C1470     1.0  0.40859  0.21269  0.02745  1.0000
  C   C1471     1.0  0.41687  0.22734  0.01573  1.0000
  C   C1472     1.0  0.43163  0.23366  0.02078  1.0000
  H   H1171     1.0  0.43571  0.20376  0.06178  1.0000
  H   H1172     1.0  0.40921  0.19305  0.05337  1.0000
  H   H1173     1.0  0.41184  0.23387  0.00281  1.0000
  H   H1174     1.0  0.43784  0.24503  0.01163  1.0000
  C   C1473     1.0  0.43380  0.03690  0.21933  1.0000
  C   C1474     1.0  0.43454  0.01977  0.21343  1.0000
  C   C1475     1.0  0.41795  0.01338  0.21257  1.0000
  C   C1476     1.0  0.40023  0.02407  0.21754  1.0000
  C   C1477     1.0  0.39948  0.04126  0.22334  1.0000
  C   C1478     1.0  0.41606  0.04759  0.22430  1.0000
  H   H1175     1.0  0.44809  0.01132  0.20952  1.0000
  H   H1176     1.0  0.41891  0.00020  0.20799  1.0000
  H   H1177     1.0  0.38594  0.04974  0.22719  1.0000
  H   H1178     1.0  0.41509  0.06065  0.22905  1.0000
  S   S208      1.0  0.24787  0.43789  0.04288  1.0000
  C   C1479     1.0  0.46213  0.15508  0.15997  1.0000
  H   H1179     1.0  0.46438  0.13027  0.18148  1.0000
  H   H1180     1.0  0.44694  0.15803  0.16302  1.0000
  C   C1480     1.0  0.42704  0.11245  0.14353  1.0000
  C   C1481     1.0  0.29355  0.03182  0.11941  1.0000
  H   H1181     1.0  0.23918  0.04437  0.96751  1.0000
  H   H1182     1.0  0.34973  0.45126  0.26989  1.0000
  H   H1183     1.0  0.28131  0.20531  0.97773  1.0000
  C   C1482     1.0  0.44486  0.39541  0.18856  1.0000
  C   C1483     1.0  0.43811  0.41322  0.17877  1.0000
  C   C1484     1.0  0.41994  0.42303  0.18461  1.0000
  C   C1485     1.0  0.40822  0.41518  0.20041  1.0000
  C   C1486     1.0  0.41497  0.39737  0.21019  1.0000
  C   C1487     1.0  0.43314  0.38754  0.20434  1.0000
  H   H1184     1.0  0.44700  0.41945  0.16652  1.0000
  H   H1185     1.0  0.41492  0.43656  0.17676  1.0000
  H   H1186     1.0  0.40605  0.39110  0.22239  1.0000
  H   H1187     1.0  0.43808  0.37390  0.21206  1.0000
  S   S209      1.0  0.24625  0.43413  0.09753  1.0000
  S   S210      1.0  0.45882  0.18663  0.13291  1.0000
  H   H1188     1.0  0.27934  0.14381  0.98023  1.0000
  Fe  Fe109     1.0  0.47286  0.09809  0.24660  1.0000
  C   C1488     1.0  0.25650  0.07376  0.07402  1.0000
  C   C1489     1.0  0.44902  0.24076  0.22866  1.0000
  C   C1490     1.0  0.23857  0.02889  0.28039  1.0000
  H   H1189     1.0  0.42046  0.09459  0.23158  1.0000
  C   C1491     1.0  0.41173  0.26393  0.21237  1.0000
  Fe  Fe110     1.0  0.47300  0.20735  0.10980  1.0000
  H   H1190     1.0  0.41692  0.26873  0.23858  1.0000
  H   H1191     1.0  0.40139  0.25891  0.18884  1.0000
  C   C1492     1.0  0.32817  0.31478  0.00216  1.0000
  H   H1192     1.0  0.43527  0.13312  0.15554  1.0000
  C   C1493     1.0  0.44811  0.23477  0.14999  1.0000
  H   H1193     1.0  0.33863  0.03010  0.28454  1.0000
  C   C1494     1.0  0.27064  0.01835  0.01932  1.0000
  C   C1495     1.0  0.39433  0.05537  0.17652  1.0000
  H   H1194     1.0  0.47509  0.31044  0.12032  1.0000
  C   C1496     1.0  0.46193  0.15260  0.22301  1.0000
  C   C1497     1.0  0.45364  0.16264  0.20779  1.0000
  C   C1498     1.0  0.46279  0.17578  0.19468  1.0000
  H   H1195     1.0  0.26988  0.46592  0.25804  1.0000
  C   C1499     1.0  0.29336  0.36831  0.04103  1.0000
  C   C1500     1.0  0.23463  0.45345  0.17829  1.0000
  C   C1501     1.0  0.26138  0.00292  0.13209  1.0000
  C   C1502     1.0  0.24354  0.02329  0.10949  1.0000
  C   C1503     1.0  0.30258  0.01794  0.13229  1.0000
  C   C1504     1.0  0.30379  0.31931  0.03583  1.0000
  C   C1505     1.0  0.26172  0.42887  0.15826  1.0000
  C   C1506     1.0  0.34630  0.98307  0.28519  1.0000
  C   C1507     1.0  0.27327  0.97742  0.28795  1.0000
  H   H1196     1.0  0.27595  0.39471  0.03162  1.0000
  C   C1508     1.0  0.32371  0.97915  0.07433  1.0000
  H   H1197     1.0  0.36982  0.25540  0.20638  1.0000
  Fe  Fe111     1.0  0.34286  0.20451  0.97972  1.0000
  C   C1509     1.0  0.25147  0.36052  0.04182  1.0000
  H   H1198     1.0  0.25578  0.45048  0.19569  1.0000
  H   H1199     1.0  0.45489  0.14228  0.23306  1.0000
  H   H1200     1.0  0.44029  0.15998  0.20598  1.0000
  C   C1510     1.0  0.47742  0.24163  0.23971  1.0000
  H   H1201     1.0  0.38448  0.13791  0.20076  1.0000
  H   H1202     1.0  0.24523  0.19206  0.03257  1.0000
  C   C1511     1.0  0.27923  0.22018  0.97208  1.0000
  C   C1512     1.0  0.30797  0.36830  0.06756  1.0000
  C   C1513     1.0  0.30506  0.35900  0.05404  1.0000
  C   C1514     1.0  0.24415  0.43551  0.15290  1.0000
  H   H1203     1.0  0.36153  0.25845  0.23991  1.0000
  Fe  Fe112     1.0  0.46993  0.22852  0.07000  1.0000
  C   C1515     1.0  0.41853  0.07464  0.16337  1.0000
  C   C1516     1.0  0.45616  0.22712  0.16593  1.0000
  H   H1204     1.0  0.27184  0.32953  0.01211  1.0000
  H   H1205     1.0  0.45898  0.23065  0.19300  1.0000
  C   C1517     1.0  0.43909  0.41890  0.24572  1.0000
  H   H1206     1.0  0.44938  0.38914  0.25191  1.0000
  H   H1207     1.0  0.30333  0.00320  0.13220  1.0000
  H   H1208     1.0  0.33643  0.06586  0.28885  1.0000
  C   C1518     1.0  0.29656  0.16353  0.98228  1.0000
  C   C1519     1.0  0.26572  0.43424  0.17379  1.0000
  C   C1520     1.0  0.37213  0.46691  0.26687  1.0000
  H   H1209     1.0  0.42410  0.33212  0.21144  1.0000
  H   H1210     1.0  0.41863  0.45357  0.20171  1.0000
  C   C1521     1.0  0.43941  0.27738  0.05637  1.0000
  C   C1522     1.0  0.44009  0.28492  0.07191  1.0000
  C   C1523     1.0  0.42423  0.28699  0.08585  1.0000
  C   C1524     1.0  0.40766  0.28146  0.08429  1.0000
  C   C1525     1.0  0.40685  0.27387  0.06866  1.0000
  C   C1526     1.0  0.42291  0.27177  0.05479  1.0000
  P   P48       1.0  0.38664  0.26397  0.06784  1.0000
  C   C1527     1.0  0.38973  0.23976  0.07956  1.0000
  C   C1528     1.0  0.36561  0.27652  0.08024  1.0000
  C   C1529     1.0  0.35350  0.29073  0.07057  1.0000
  C   C1530     1.0  0.33721  0.30016  0.08035  1.0000
  C   C1531     1.0  0.33289  0.29554  0.09982  1.0000
  C   C1532     1.0  0.34484  0.28144  0.10955  1.0000
  C   C1533     1.0  0.36112  0.27195  0.09982  1.0000
  C   C1534     1.0  0.40719  0.23062  0.08439  1.0000
  C   C1535     1.0  0.40921  0.21225  0.09436  1.0000
  C   C1536     1.0  0.39394  0.20272  0.09928  1.0000
  C   C1537     1.0  0.37653  0.21165  0.09445  1.0000
  C   C1538     1.0  0.37438  0.23016  0.08478  1.0000
  C   C1539     1.0  0.38367  0.26614  0.04381  1.0000
  C   C1540     1.0  0.37691  0.25223  0.03807  1.0000
  C   C1541     1.0  0.37325  0.25478  0.01987  1.0000
  C   C1542     1.0  0.37652  0.27107  0.00715  1.0000
  C   C1543     1.0  0.38351  0.28488  0.01264  1.0000
  C   C1544     1.0  0.38707  0.28245  0.03088  1.0000
  H   H1211     1.0  0.45191  0.27511  0.04588  1.0000
  C   C1545     1.0  0.25516  0.00463  0.18664  1.0000
  H   H1212     1.0  0.42506  0.29242  0.09810  1.0000
  H   H1213     1.0  0.39577  0.28270  0.09552  1.0000
  H   H1214     1.0  0.42302  0.26508  0.04309  1.0000
  H   H1215     1.0  0.35648  0.29458  0.05551  1.0000
  H   H1216     1.0  0.32794  0.31106  0.07280  1.0000
  H   H1217     1.0  0.32027  0.30288  0.10739  1.0000
  H   H1218     1.0  0.34150  0.27786  0.12466  1.0000
  H   H1219     1.0  0.37024  0.26107  0.10758  1.0000
  H   H1220     1.0  0.41941  0.23746  0.08026  1.0000
  H   H1221     1.0  0.42279  0.20530  0.09794  1.0000
  H   H1222     1.0  0.39567  0.18836  0.10669  1.0000
  H   H1223     1.0  0.36474  0.20419  0.09809  1.0000
  H   H1224     1.0  0.36077  0.23694  0.08125  1.0000
  H   H1225     1.0  0.37468  0.23924  0.04737  1.0000
  H   H1226     1.0  0.36827  0.24385  0.01552  1.0000
  H   H1227     1.0  0.37374  0.27288  0.99303  1.0000
  H   H1228     1.0  0.38621  0.29743  0.00271  1.0000
  H   H1229     1.0  0.39229  0.29338  0.03496  1.0000
  C   C1546     1.0  0.28938  0.22140  0.03308  1.0000
  C   C1547     1.0  0.27874  0.22544  0.05012  1.0000
  C   C1548     1.0  0.25910  0.22882  0.05253  1.0000
  C   C1549     1.0  0.25009  0.22833  0.03785  1.0000
  C   C1550     1.0  0.26070  0.22477  0.02049  1.0000
  C   C1551     1.0  0.28044  0.22094  0.01837  1.0000
  P   P49       1.0  0.24913  0.22384  0.00153  1.0000
  S   S211      1.0  0.46781  0.27758  0.10978  1.0000
  C   C1552     1.0  0.26576  0.98378  0.21996  1.0000
  C   C1553     1.0  0.42105  0.12302  0.11166  1.0000
  C   C1554     1.0  0.27378  0.99566  0.18685  1.0000
  H   H1230     1.0  0.24404  0.14737  0.00435  1.0000
  C   C1555     1.0  0.47930  0.29844  0.13065  1.0000
  C   C1556     1.0  0.24491  0.99675  0.14228  1.0000
  C   C1557     1.0  0.37558  0.43834  0.25454  1.0000
  C   C1558     1.0  0.30349  0.30052  0.97247  1.0000
  H   H1231     1.0  0.45651  0.18327  0.18267  1.0000
  C   C1559     1.0  0.40681  0.26580  0.23134  1.0000
  H   H1232     1.0  0.30133  0.39411  0.07871  1.0000
  H   H1233     1.0  0.30463  0.21848  0.03123  1.0000
  H   H1234     1.0  0.28574  0.22578  0.06149  1.0000
  H   H1235     1.0  0.25085  0.23178  0.06581  1.0000
  H   H1236     1.0  0.25643  0.42241  0.00895  1.0000
  H   H1237     1.0  0.28910  0.21750  0.00546  1.0000
  C   C1560     1.0  0.25107  0.01156  0.25487  1.0000
  H   H1238     1.0  0.28415  0.99683  0.17412  1.0000
  C   C1561     1.0  0.24452  0.16203  0.00390  1.0000
  H   H1239     1.0  0.41727  0.12022  0.09928  1.0000
  C   C1562     1.0  0.46771  0.26489  0.21370  1.0000
  H   H1240     1.0  0.44972  0.05824  0.18080  1.0000
  H   H1241     1.0  0.25403  0.37170  0.04778  1.0000
  C   C1563     1.0  0.29805  0.99594  0.28132  1.0000
  C   C1564     1.0  0.25221  0.44639  0.18387  1.0000
  H   H1242     1.0  0.42217  0.29849  0.22010  1.0000
  H   H1243     1.0  0.45074  0.29034  0.16463  1.0000
  H   H1244     1.0  0.39509  0.12247  0.23080  1.0000
  H   H1245     1.0  0.35202  0.00673  0.26367  1.0000
  H   H1246     1.0  0.27446  0.99660  0.13685  1.0000
  C   C1565     1.0  0.41594  0.10150  0.21845  1.0000
  H   H1247     1.0  0.28258  0.01165  0.97753  1.0000
  C   C1566     1.0  0.44429  0.29928  0.17486  1.0000
  S   S212      1.0  0.38017  0.23711  0.97288  1.0000
  H   H1248     1.0  0.42391  0.27590  0.16245  1.0000
  H   H1249     1.0  0.43106  0.25859  0.13600  1.0000
  C   C1567     1.0  0.38017  0.25828  0.21335  1.0000
  H   H1250     1.0  0.38518  0.26516  0.25585  1.0000
  S   S213      1.0  0.24554  0.35459  0.97590  1.0000
  C   C1568     1.0  0.31155  0.45318  0.13499  1.0000
  H   H1251     1.0  0.23487  0.23070  0.04009  1.0000
  Fe  Fe113     1.0  0.23470  0.32773  0.97912  1.0000
  C   C1569     1.0  0.45251  0.23695  0.18085  1.0000
  H   H1252     1.0  0.39767  0.02973  0.16591  1.0000
  C   C1570     1.0  0.24411  0.16858  0.02036  1.0000
  H   H1253     1.0  0.25094  0.26176  0.97888  1.0000
  C   C1571     1.0  0.29925  0.38692  0.06815  1.0000
  H   H1254     1.0  0.43702  0.23402  0.22976  1.0000
  C   C1572     1.0  0.25362  0.02259  0.26703  1.0000
  P   P50       1.0  0.28909  0.35669  0.02352  1.0000
  C   C1573     1.0  0.31474  0.30177  0.03363  1.0000
  C   C1574     1.0  0.29107  0.37315  0.00176  1.0000
  C   C1575     1.0  0.27686  0.37742  0.99086  1.0000
  C   C1576     1.0  0.41971  0.04564  0.15223  1.0000
  C   C1577     1.0  0.23553  0.40539  0.01007  1.0000
  C   C1578     1.0  0.24506  0.02072  0.04544  1.0000
  C   C1579     1.0  0.42950  0.32297  0.20116  1.0000
  P   P51       1.0  0.42965  0.09417  0.16375  1.0000
  C   C1580     1.0  0.24402  0.41727  0.01718  1.0000
  H   H1255     1.0  0.38183  0.05259  0.18659  1.0000
  H   H1256     1.0  0.43408  0.15770  0.12742  1.0000
  H   H1257     1.0  0.24773  0.20248  0.97274  1.0000
  H   H1258     1.0  0.29246  0.03005  0.06147  1.0000
  H   H1259     1.0  0.28768  0.06184  0.10934  1.0000
  H   H1260     1.0  0.26423  0.37132  0.99555  1.0000
  H   H1261     1.0  0.42944  0.41897  0.25889  1.0000
  H   H1262     1.0  0.23984  0.32207  0.01971  1.0000
  C   C1581     1.0  0.39090  0.46829  0.25917  1.0000
  H   H1263     1.0  0.37747  0.46943  0.13471  1.0000
  H   H1264     1.0  0.31863  0.04549  0.15471  1.0000
  H   H1265     1.0  0.29353  0.97841  0.20382  1.0000
  H   H1266     1.0  0.24320  0.15899  0.03361  1.0000
  H   H1267     1.0  0.34550  0.98958  0.08236  1.0000
  H   H1268     1.0  0.23767  0.01467  0.05881  1.0000
  C   C1582     1.0  0.44345  0.46780  0.28283  1.0000
  C   C1583     1.0  0.45176  0.25681  0.21513  1.0000
  C   C1584     1.0  0.47936  0.15566  0.22518  1.0000
  H   H1269     1.0  0.31344  0.28978  0.04477  1.0000
  H   H1270     1.0  0.26747  0.02562  0.26660  1.0000
  C   C1585     1.0  0.33051  0.99098  0.08277  1.0000
  C   C1586     1.0  0.30851  0.39486  0.97892  1.0000
  S   S214      1.0  0.31821  0.18833  0.98594  1.0000
  C   C1587     1.0  0.31155  0.02286  0.14494  1.0000
  H   H1271     1.0  0.39920  0.12569  0.17169  1.0000
  H   H1272     1.0  0.27238  0.41991  0.15011  1.0000
  C   C1588     1.0  0.42837  0.30384  0.20598  1.0000
  H   H1273     1.0  0.45464  0.44772  0.20562  1.0000
  C   C1589     1.0  0.37549  0.26000  0.23224  1.0000
  H   H1274     1.0  0.47022  0.27715  0.20326  1.0000
  C   C1590     1.0  0.30276  0.05567  0.13215  1.0000
  C   C1591     1.0  0.46106  0.14033  0.29042  1.0000
  C   C1592     1.0  0.44520  0.31846  0.17003  1.0000
  H   H1275     1.0  0.41884  0.09539  0.12714  1.0000
  H   H1276     1.0  0.24078  0.03672  0.29034  1.0000
  C   C1593     1.0  0.26090  0.01647  0.11571  1.0000
  C   C1594     1.0  0.30693  0.38198  0.99571  1.0000
  C   C1595     1.0  0.41913  0.46820  0.20121  1.0000
  H   H1277     1.0  0.26315  0.00629  0.24519  1.0000
  C   C1596     1.0  0.24723  0.04693  0.01901  1.0000
  H   H1278     1.0  0.36039  0.45587  0.11676  1.0000
  H   H1279     1.0  0.40247  0.42930  0.23865  1.0000
  C   C1597     1.0  0.25017  0.98340  0.98216  1.0000
  H   H1280     1.0  0.25109  0.01276  0.17372  1.0000
  C   C1598     1.0  0.31156  0.04173  0.14495  1.0000
  H   H1281     1.0  0.43897  0.34508  0.17952  1.0000
  C   C1599     1.0  0.28383  0.30575  0.97627  1.0000
  C   C1600     1.0  0.43669  0.25243  0.14872  1.0000
  H   H1282     1.0  0.42677  0.03547  0.14335  1.0000
  H   H1283     1.0  0.24123  0.40171  0.99644  1.0000
  C   C1601     1.0  0.30507  0.33480  0.02123  1.0000
  C   C1602     1.0  0.26299  0.06000  0.08841  1.0000
  C   C1603     1.0  0.29388  0.05077  0.11936  1.0000
  S   S215      1.0  0.29033  0.44816  0.11043  1.0000
  H   H1284     1.0  0.45191  0.32412  0.15614  1.0000
  C   C1604     1.0  0.31800  0.00472  0.09166  1.0000
  C   C1605     1.0  0.41900  0.10354  0.18486  1.0000
  C   C1606     1.0  0.46816  0.09635  0.15534  1.0000
  C   C1607     1.0  0.24671  0.19318  0.98610  1.0000
  C   C1608     1.0  0.30624  0.98784  0.26535  1.0000
  C   C1609     1.0  0.42534  0.14060  0.11163  1.0000
  C   C1610     1.0  0.25647  0.97660  0.96522  1.0000
  P   P52       1.0  0.23048  0.97531  0.99849  1.0000
  C   C1611     1.0  0.45048  0.40202  0.24192  1.0000
  H   H1285     1.0  0.45102  0.22706  0.13851  1.0000
  C   C1612     1.0  0.43788  0.33029  0.18318  1.0000
  C   C1613     1.0  0.31313  0.17112  0.97496  1.0000
  C   C1614     1.0  0.28497  0.38714  0.04153  1.0000
  C   C1615     1.0  0.25993  0.99576  0.98664  1.0000
  H   H1286     1.0  0.30303  0.07030  0.13200  1.0000
  C   C1616     1.0  0.26134  0.33692  0.02183  1.0000
  C   C1617     1.0  0.43813  0.46561  0.25217  1.0000
  C   C1618     1.0  0.39437  0.43960  0.24697  1.0000
  H   H1287     1.0  0.31794  0.37905  0.00409  1.0000
  C   C1619     1.0  0.44073  0.25461  0.17990  1.0000
  C   C1620     1.0  0.27922  0.46889  0.13909  1.0000
  H   H1288     1.0  0.43555  0.08241  0.20268  1.0000
  H   H1289     1.0  0.39493  0.08087  0.18546  1.0000
  H   H1290     1.0  0.33716  0.31276  0.98891  1.0000
  S   S216      1.0  0.34970  0.97464  0.15430  1.0000
  H   H1291     1.0  0.30764  0.25546  0.99584  1.0000
  C   C1621     1.0  0.45318  0.43508  0.21583  1.0000
  H   H1292     1.0  0.29388  0.32068  0.04869  1.0000
  H   H1293     1.0  0.36948  0.42714  0.25202  1.0000
  C   C1622     1.0  0.40425  0.11901  0.18458  1.0000
  H   H1294     1.0  0.32065  0.40184  0.97444  1.0000
  C   C1623     1.0  0.40188  0.07141  0.17584  1.0000
  H   H1295     1.0  0.31693  0.36109  0.07764  1.0000
  C   C1624     1.0  0.29184  0.99475  0.08373  1.0000
  C   C1625     1.0  0.40330  0.04242  0.16486  1.0000
  C   C1626     1.0  0.28779  0.39633  0.05512  1.0000
  C   C1627     1.0  0.40222  0.45449  0.24935  1.0000
  H   H1296     1.0  0.31815  0.34378  0.99258  1.0000
  S   S217      1.0  0.26927  0.98626  0.04585  1.0000
  H   H1297     1.0  0.25583  0.00045  0.99998  1.0000
  H   H1298     1.0  0.27721  0.31965  0.97062  1.0000
  C   C1628     1.0  0.45437  0.08526  0.16414  1.0000
  C   C1629     1.0  0.28264  0.04222  0.06536  1.0000
  C   C1630     1.0  0.27608  0.04402  0.08425  1.0000
  C   C1631     1.0  0.30109  0.26949  0.99041  1.0000
  C   C1632     1.0  0.26218  0.25176  0.97285  1.0000
  H   H1299     1.0  0.31881  0.01195  0.15451  1.0000
  P   P53       1.0  0.28226  0.02493  0.10296  1.0000
  C   C1633     1.0  0.42731  0.06169  0.15147  1.0000
  H   H1300     1.0  0.28734  0.16817  0.99444  1.0000
  S   S218      1.0  0.37402  0.19339  0.97709  1.0000
  H   H1301     1.0  0.30680  0.05966  0.28234  1.0000
  H   H1302     1.0  0.42500  0.15136  0.09921  1.0000
  C   C1634     1.0  0.27906  0.98523  0.20351  1.0000
  C   C1635     1.0  0.28162  0.99069  0.29271  1.0000
  C   C1636     1.0  0.29195  0.14971  0.97426  1.0000
  S   S219      1.0  0.47837  0.32879  0.20720  1.0000
  H   H1303     1.0  0.25723  0.06144  0.10282  1.0000
  H   H1304     1.0  0.24676  0.16903  0.97402  1.0000
  H   H1305     1.0  0.30437  0.00639  0.28480  1.0000
  C   C1637     1.0  0.47197  0.13946  0.17056  1.0000
  H   H1306     1.0  0.24102  0.43139  0.14084  1.0000
  S   S220      1.0  0.47797  0.06655  0.25372  1.0000
  H   H1307     1.0  0.24615  0.08585  0.07733  1.0000
  H   H1308     1.0  0.28072  0.05416  0.03656  1.0000
  Fe  Fe114     1.0  0.47497  0.24913  0.10054  1.0000
  C   C1638     1.0  0.47182  0.16712  0.14572  1.0000
  H   H1309     1.0  0.29929  0.47071  0.06983  1.0000
  C   C1639     1.0  0.47903  0.05999  0.17411  1.0000
  C   C1640     1.0  0.23647  0.42277  0.03471  1.0000
  C   C1641     1.0  0.27603  0.05594  0.05105  1.0000
  H   H1310     1.0  0.35234  0.97318  0.27577  1.0000
  C   C1642     1.0  0.43341  0.46184  0.27176  1.0000
  H   H1311     1.0  0.23635  0.26163  0.01078  1.0000
  H   H1312     1.0  0.29919  0.97238  0.06763  1.0000
  H   H1313     1.0  0.25751  0.08199  0.04417  1.0000
  H   H1314     1.0  0.47418  0.41771  0.19892  1.0000
  C   C1643     1.0  0.33872  0.01534  0.29004  1.0000
  P   P54       1.0  0.27252  0.06200  0.34692  1.0000
  S   S221      1.0  0.43506  0.21157  0.36259  1.0000
  C   C1644     1.0  0.28774  0.01584  0.38569  1.0000
  S   S222      1.0  0.47150  0.19674  0.31905  1.0000
  Fe  Fe115     1.0  0.37107  0.19640  0.46642  1.0000
  S   S223      1.0  0.35988  0.17542  0.49072  1.0000
  S   S224      1.0  0.39711  0.18419  0.44702  1.0000
  Fe  Fe116     1.0  0.34273  0.22831  0.48113  1.0000
  S   S225      1.0  0.32994  0.20988  0.50655  1.0000
  S   S226      1.0  0.33300  0.25975  0.47433  1.0000
  Fe  Fe117     1.0  0.35961  0.19604  0.50911  1.0000
  S   S227      1.0  0.36885  0.18121  0.53673  1.0000
  Fe  Fe118     1.0  0.33096  0.19034  0.48668  1.0000
  S   S228      1.0  0.30572  0.17522  0.49454  1.0000
  S   S229      1.0  0.37269  0.21612  0.48518  1.0000
  S   S230      1.0  0.34190  0.20981  0.46085  1.0000
  H   H1315     1.0  0.29555  0.46069  0.45312  1.0000
  H   H1316     1.0  0.29133  0.01295  0.39957  1.0000
  H   H1317     1.0  0.24611  0.02024  0.51834  1.0000
  Fe  Fe119     1.0  0.25090  0.11458  0.45994  1.0000
  H   H1318     1.0  0.25885  0.40330  0.39959  1.0000
  S   S231      1.0  0.27054  0.13522  0.44544  1.0000
  H   H1319     1.0  0.46018  0.20845  0.61580  1.0000
  H   H1320     1.0  0.23898  0.32481  0.61570  1.0000
  S   S232      1.0  0.25452  0.06429  0.51863  1.0000
  S   S233      1.0  0.26219  0.08372  0.46522  1.0000
  S   S234      1.0  0.27198  0.00101  0.31277  1.0000
  C   C1645     1.0  0.25325  0.39713  0.44705  1.0000
  S   S235      1.0  0.26054  0.08604  0.59602  1.0000
  H   H1321     1.0  0.25921  0.34095  0.58905  1.0000
  S   S236      1.0  0.38949  0.21548  0.60029  1.0000
  C   C1646     1.0  0.24640  0.45589  0.48312  1.0000
  C   C1647     1.0  0.25096  0.06592  0.33775  1.0000
  C   C1648     1.0  0.26123  0.10605  0.38556  1.0000
  H   H1322     1.0  0.31531  0.32801  0.51393  1.0000
  H   H1323     1.0  0.30113  0.30655  0.54086  1.0000
  H   H1324     1.0  0.25679  0.02694  0.41407  1.0000
  C   C1649     1.0  0.25586  0.07062  0.54012  1.0000
  C   C1650     1.0  0.25000  0.08902  0.54355  1.0000
  C   C1651     1.0  0.25171  0.09346  0.56066  1.0000
  C   C1652     1.0  0.25914  0.07957  0.57462  1.0000
  C   C1653     1.0  0.26484  0.06115  0.57126  1.0000
  C   C1654     1.0  0.26324  0.05674  0.55409  1.0000
  H   H1325     1.0  0.27039  0.05031  0.58192  1.0000
  H   H1326     1.0  0.26770  0.04244  0.55164  1.0000
  C   C1655     1.0  0.24475  0.31825  0.60345  1.0000
  C   C1656     1.0  0.23450  0.02706  0.39915  1.0000
  C   C1657     1.0  0.24471  0.38715  0.49559  1.0000
  C   C1658     1.0  0.30123  0.32543  0.51458  1.0000
  C   C1659     1.0  0.37500  0.19115  0.55391  1.0000
  C   C1660     1.0  0.37962  0.17931  0.57038  1.0000
  C   C1661     1.0  0.38410  0.18656  0.58466  1.0000
  C   C1662     1.0  0.38442  0.20573  0.58244  1.0000
  C   C1663     1.0  0.38029  0.21754  0.56576  1.0000
  C   C1664     1.0  0.37541  0.21033  0.55161  1.0000
  H   H1327     1.0  0.37969  0.16444  0.57221  1.0000
  H   H1328     1.0  0.38724  0.17733  0.59741  1.0000
  H   H1329     1.0  0.38057  0.23240  0.56394  1.0000
  H   H1330     1.0  0.37203  0.21957  0.53895  1.0000
  C   C1665     1.0  0.30869  0.26900  0.47867  1.0000
  C   C1666     1.0  0.29560  0.25773  0.48868  1.0000
  C   C1667     1.0  0.27632  0.26533  0.49163  1.0000
  C   C1668     1.0  0.26991  0.28424  0.48457  1.0000
  C   C1669     1.0  0.28297  0.29556  0.47461  1.0000
  C   C1670     1.0  0.30232  0.28798  0.47180  1.0000
  H   H1331     1.0  0.30028  0.24307  0.49391  1.0000
  H   H1332     1.0  0.26629  0.25638  0.49901  1.0000
  H   H1333     1.0  0.27817  0.31006  0.46892  1.0000
  H   H1334     1.0  0.31236  0.29679  0.46403  1.0000
  C   C1671     1.0  0.29547  0.16531  0.48025  1.0000
  C   C1672     1.0  0.28117  0.15481  0.48881  1.0000
  C   C1673     1.0  0.27328  0.14575  0.47827  1.0000
  C   C1674     1.0  0.27943  0.14728  0.45898  1.0000
  C   C1675     1.0  0.29301  0.15858  0.45024  1.0000
  C   C1676     1.0  0.30110  0.16753  0.46083  1.0000
  H   H1335     1.0  0.27628  0.15344  0.50373  1.0000
  H   H1336     1.0  0.26255  0.13744  0.48512  1.0000
  H   H1337     1.0  0.29754  0.16005  0.43527  1.0000
  H   H1338     1.0  0.31188  0.17585  0.45404  1.0000
  H   H1339     1.0  0.41108  0.17397  0.52043  1.0000
  C   C1677     1.0  0.25627  0.32734  0.58838  1.0000
  C   C1678     1.0  0.25054  0.37256  0.50958  1.0000
  H   H1340     1.0  0.47129  0.05945  0.29685  1.0000
  C   C1679     1.0  0.42507  0.20406  0.38629  1.0000
  C   C1680     1.0  0.43259  0.18722  0.39681  1.0000
  C   C1681     1.0  0.42355  0.18121  0.41517  1.0000
  C   C1682     1.0  0.40737  0.19229  0.42354  1.0000
  C   C1683     1.0  0.40001  0.20929  0.41314  1.0000
  C   C1684     1.0  0.40860  0.21493  0.39449  1.0000
  H   H1341     1.0  0.44513  0.17863  0.39066  1.0000
  H   H1342     1.0  0.42934  0.16801  0.42305  1.0000
  H   H1343     1.0  0.38763  0.21798  0.41941  1.0000
  H   H1344     1.0  0.40254  0.22783  0.38637  1.0000
  C   C1685     1.0  0.24178  0.19735  0.45481  1.0000
  C   C1686     1.0  0.47002  0.18051  0.60963  1.0000
  C   C1687     1.0  0.23557  0.21368  0.53106  1.0000
  C   C1688     1.0  0.25211  0.09051  0.39056  1.0000
  H   H1345     1.0  0.34198  0.05375  0.58756  1.0000
  C   C1689     1.0  0.27129  0.21651  0.46895  1.0000
  H   H1346     1.0  0.24720  0.10774  0.56314  1.0000
  H   H1347     1.0  0.25372  0.20367  0.44714  1.0000
  C   C1690     1.0  0.25715  0.40678  0.41340  1.0000
  C   C1691     1.0  0.29170  0.06115  0.31033  1.0000
  C   C1692     1.0  0.25601  0.23128  0.46691  1.0000
  C   C1693     1.0  0.47033  0.26685  0.44624  1.0000
  C   C1694     1.0  0.47050  0.14658  0.30202  1.0000
  H   H1348     1.0  0.28070  0.26661  0.44594  1.0000
  H   H1349     1.0  0.45707  0.28462  0.33790  1.0000
  C   C1695     1.0  0.28782  0.00102  0.37663  1.0000
  C   C1696     1.0  0.25572  0.44217  0.47226  1.0000
  C   C1697     1.0  0.24295  0.03375  0.41134  1.0000
  H   H1350     1.0  0.32678  0.19937  0.57694  1.0000
  H   H1351     1.0  0.28296  0.04567  0.38419  1.0000
  C   C1698     1.0  0.43418  0.13060  0.62276  1.0000
  H   H1352     1.0  0.31839  0.24714  0.52355  1.0000
  C   C1699     1.0  0.29314  0.31331  0.52983  1.0000
  H   H1353     1.0  0.42414  0.13267  0.38737  1.0000
  H   H1354     1.0  0.27438  0.02603  0.33626  1.0000
  H   H1355     1.0  0.25752  0.37817  0.42748  1.0000
  H   H1356     1.0  0.30212  0.97196  0.32149  1.0000
  C   C1700     1.0  0.42451  0.18208  0.53991  1.0000
  H   H1357     1.0  0.25134  0.31535  0.51591  1.0000
  C   C1701     1.0  0.29136  0.33384  0.49997  1.0000
  H   H1358     1.0  0.34407  0.21844  0.58840  1.0000
  S   S237      1.0  0.23369  0.11456  0.48876  1.0000
  C   C1702     1.0  0.33880  0.97696  0.30402  1.0000
  H   H1359     1.0  0.35186  0.12340  0.62016  1.0000
  H   H1360     1.0  0.27008  0.36198  0.52871  1.0000
  C   C1703     1.0  0.27503  0.30960  0.53062  1.0000
  P   P55       1.0  0.30723  0.16794  0.59520  1.0000
  S   S238      1.0  0.24297  0.98545  0.36240  1.0000
  C   C1704     1.0  0.29758  0.18299  0.57567  1.0000
  C   C1705     1.0  0.28672  0.20065  0.57795  1.0000
  C   C1706     1.0  0.28039  0.21305  0.56262  1.0000
  C   C1707     1.0  0.28498  0.20796  0.54491  1.0000
  C   C1708     1.0  0.29558  0.19035  0.54262  1.0000
  C   C1709     1.0  0.30190  0.17789  0.55789  1.0000
  H   H1361     1.0  0.45732  0.30262  0.36259  1.0000
  H   H1362     1.0  0.23938  0.04305  0.35706  1.0000
  C   C1710     1.0  0.39908  0.12570  0.61785  1.0000
  C   C1711     1.0  0.27764  0.03827  0.35918  1.0000
  C   C1712     1.0  0.32441  0.14866  0.58738  1.0000
  C   C1713     1.0  0.34181  0.15205  0.57665  1.0000
  C   C1714     1.0  0.35552  0.13719  0.57111  1.0000
  C   C1715     1.0  0.35197  0.11881  0.57623  1.0000
  C   C1716     1.0  0.33455  0.11536  0.58659  1.0000
  C   C1717     1.0  0.32074  0.13020  0.59194  1.0000
  C   C1718     1.0  0.33164  0.99027  0.31587  1.0000
  H   H1363     1.0  0.28009  0.26679  0.58192  1.0000
  C   C1719     1.0  0.28315  0.00478  0.35876  1.0000
  C   C1720     1.0  0.24009  0.21568  0.51154  1.0000
  C   C1721     1.0  0.44027  0.19941  0.60357  1.0000
  H   H1364     1.0  0.24423  0.09985  0.53300  1.0000
  H   H1365     1.0  0.27233  0.22678  0.56437  1.0000
  C   C1722     1.0  0.31964  0.18204  0.60403  1.0000
  H   H1366     1.0  0.29926  0.18645  0.52890  1.0000
  H   H1367     1.0  0.31037  0.16446  0.55564  1.0000
  Fe  Fe120     1.0  0.27388  0.07122  0.62170  1.0000
  H   H1368     1.0  0.30623  0.23992  0.58362  1.0000
  H   H1369     1.0  0.34481  0.16619  0.57255  1.0000
  H   H1370     1.0  0.36890  0.13999  0.56283  1.0000
  H   H1371     1.0  0.36269  0.10726  0.57222  1.0000
  H   H1372     1.0  0.33180  0.10113  0.59114  1.0000
  H   H1373     1.0  0.30745  0.12697  0.59999  1.0000
  C   C1723     1.0  0.33354  0.05691  0.57660  1.0000
  C   C1724     1.0  0.32297  0.04389  0.57494  1.0000
  C   C1725     1.0  0.31172  0.04814  0.56112  1.0000
  C   C1726     1.0  0.31075  0.06552  0.54913  1.0000
  C   C1727     1.0  0.32142  0.07865  0.55063  1.0000
  C   C1728     1.0  0.33280  0.07420  0.56448  1.0000
  P   P56       1.0  0.31932  0.10169  0.53620  1.0000
  C   C1729     1.0  0.31239  0.10061  0.51453  1.0000
  C   C1730     1.0  0.30132  0.11796  0.54797  1.0000
  C   C1731     1.0  0.29402  0.13518  0.53771  1.0000
  C   C1732     1.0  0.27969  0.14772  0.54643  1.0000
  C   C1733     1.0  0.27267  0.14323  0.56552  1.0000
  C   C1734     1.0  0.27990  0.12615  0.57584  1.0000
  C   C1735     1.0  0.29410  0.11349  0.56711  1.0000
  C   C1736     1.0  0.32565  0.09939  0.49802  1.0000
  C   C1737     1.0  0.31985  0.09896  0.48133  1.0000
  C   C1738     1.0  0.30086  0.09955  0.48105  1.0000
  C   C1739     1.0  0.28769  0.10033  0.49750  1.0000
  C   C1740     1.0  0.29338  0.10105  0.51411  1.0000
  C   C1741     1.0  0.34176  0.10959  0.53110  1.0000
  C   C1742     1.0  0.35848  0.09679  0.52741  1.0000
  C   C1743     1.0  0.37592  0.10276  0.52339  1.0000
  C   C1744     1.0  0.37679  0.12154  0.52303  1.0000
  C   C1745     1.0  0.36023  0.13433  0.52665  1.0000
  C   C1746     1.0  0.34279  0.12845  0.53062  1.0000
  H   H1374     1.0  0.32324  0.03063  0.58456  1.0000
  H   H1375     1.0  0.30329  0.03816  0.56000  1.0000
  H   H1376     1.0  0.30140  0.06867  0.53900  1.0000
  H   H1377     1.0  0.34091  0.08418  0.56609  1.0000
  H   H1378     1.0  0.29945  0.13889  0.52293  1.0000
  H   H1379     1.0  0.27411  0.16090  0.53831  1.0000
  H   H1380     1.0  0.26150  0.15284  0.57231  1.0000
  H   H1381     1.0  0.27420  0.12241  0.59057  1.0000
  H   H1382     1.0  0.29904  0.10014  0.57536  1.0000
  H   H1383     1.0  0.34040  0.09898  0.49786  1.0000
  H   H1384     1.0  0.33003  0.09827  0.46856  1.0000
  H   H1385     1.0  0.29630  0.09946  0.46809  1.0000
  H   H1386     1.0  0.27301  0.10039  0.49743  1.0000
  H   H1387     1.0  0.28294  0.10179  0.52669  1.0000
  H   H1388     1.0  0.35801  0.08220  0.52757  1.0000
  H   H1389     1.0  0.38875  0.09282  0.52054  1.0000
  H   H1390     1.0  0.39024  0.12626  0.51992  1.0000
  H   H1391     1.0  0.36087  0.14885  0.52655  1.0000
  H   H1392     1.0  0.33027  0.13872  0.53340  1.0000
  C   C1747     1.0  0.37678  0.14196  0.46029  1.0000
  C   C1748     1.0  0.36085  0.13653  0.47239  1.0000
  C   C1749     1.0  0.34436  0.13771  0.46548  1.0000
  C   C1750     1.0  0.34396  0.14378  0.44640  1.0000
  C   C1751     1.0  0.35993  0.14908  0.43410  1.0000
  C   C1752     1.0  0.37625  0.14849  0.44126  1.0000
  P   P57       1.0  0.35812  0.15951  0.41014  1.0000
  C   C1753     1.0  0.38096  0.16011  0.39549  1.0000
  C   C1754     1.0  0.34626  0.14629  0.39979  1.0000
  C   C1755     1.0  0.33922  0.15458  0.38324  1.0000
  C   C1756     1.0  0.32949  0.14472  0.37535  1.0000
  C   C1757     1.0  0.32693  0.12646  0.38382  1.0000
  C   C1758     1.0  0.33438  0.11793  0.39999  1.0000
  C   C1759     1.0  0.34420  0.12771  0.40785  1.0000
  C   C1760     1.0  0.38444  0.17598  0.38195  1.0000
  C   C1761     1.0  0.40220  0.17633  0.37079  1.0000
  C   C1762     1.0  0.41652  0.16078  0.37283  1.0000
  C   C1763     1.0  0.41302  0.14473  0.38587  1.0000
  C   C1764     1.0  0.39526  0.14432  0.39706  1.0000
  C   C1765     1.0  0.34497  0.18285  0.41130  1.0000
  C   C1766     1.0  0.35395  0.19694  0.41365  1.0000
  C   C1767     1.0  0.34394  0.21508  0.41459  1.0000
  C   C1768     1.0  0.32469  0.21905  0.41400  1.0000
  C   C1769     1.0  0.31545  0.20488  0.41245  1.0000
  C   C1770     1.0  0.32555  0.18684  0.41108  1.0000
  H   H1393     1.0  0.38930  0.14202  0.46575  1.0000
  H   H1394     1.0  0.36103  0.13215  0.48722  1.0000
  H   H1395     1.0  0.33165  0.13461  0.47497  1.0000
  H   H1396     1.0  0.33103  0.14479  0.44129  1.0000
  H   H1397     1.0  0.38838  0.15367  0.43238  1.0000
  H   H1398     1.0  0.34109  0.16873  0.37655  1.0000
  H   H1399     1.0  0.32386  0.15129  0.36273  1.0000
  H   H1400     1.0  0.31920  0.11890  0.37786  1.0000
  H   H1401     1.0  0.33244  0.10375  0.40652  1.0000
  H   H1402     1.0  0.35006  0.12072  0.42022  1.0000
  H   H1403     1.0  0.37359  0.18816  0.37999  1.0000
  H   H1404     1.0  0.40504  0.18881  0.36076  1.0000
  H   H1405     1.0  0.39274  0.13177  0.40707  1.0000
  H   H1406     1.0  0.36869  0.19382  0.41487  1.0000
  H   H1407     1.0  0.35106  0.22590  0.41626  1.0000
  H   H1408     1.0  0.31687  0.23304  0.41503  1.0000
  H   H1409     1.0  0.30043  0.20784  0.41245  1.0000
  H   H1410     1.0  0.31810  0.17601  0.41011  1.0000
  C   C1771     1.0  0.27806  0.25252  0.45196  1.0000
  S   S239      1.0  0.24550  0.05721  0.43479  1.0000
  H   H1411     1.0  0.26588  0.33646  0.48920  1.0000
  C   C1772     1.0  0.26945  0.40319  0.49772  1.0000
  H   H1412     1.0  0.27687  0.41497  0.49352  1.0000
  C   C1773     1.0  0.32420  0.06528  0.29985  1.0000
  C   C1774     1.0  0.44918  0.16815  0.59564  1.0000
  C   C1775     1.0  0.26965  0.16461  0.61081  1.0000
  H   H1413     1.0  0.24189  0.01524  0.39257  1.0000
  C   C1776     1.0  0.27357  0.44392  0.46156  1.0000
  H   H1414     1.0  0.28352  0.20493  0.59154  1.0000
  H   H1415     1.0  0.45644  0.10849  0.59716  1.0000
  C   C1777     1.0  0.28180  0.45938  0.46145  1.0000
  H   H1416     1.0  0.41440  0.14056  0.53566  1.0000
  H   H1417     1.0  0.24822  0.03856  0.48622  1.0000
  C   C1778     1.0  0.28415  0.27237  0.55159  1.0000
  H   H1418     1.0  0.29237  0.27397  0.52156  1.0000
  H   H1419     1.0  0.24913  0.44472  0.43476  1.0000
  H   H1420     1.0  0.25237  0.38589  0.45893  1.0000
  C   C1779     1.0  0.30300  0.24731  0.57012  1.0000
  C   C1780     1.0  0.25562  0.07724  0.37876  1.0000
  H   H1421     1.0  0.29771  0.34298  0.48799  1.0000
  C   C1781     1.0  0.25072  0.41592  0.44939  1.0000
  H   H1422     1.0  0.26560  0.17449  0.59879  1.0000
  H   H1423     1.0  0.24819  0.06544  0.38270  1.0000
  C   C1782     1.0  0.23918  0.18077  0.45025  1.0000
  H   H1424     1.0  0.32553  0.23006  0.55448  1.0000
  C   C1783     1.0  0.28279  0.03443  0.37696  1.0000
  H   H1425     1.0  0.31067  0.06789  0.34606  1.0000
  C   C1784     1.0  0.27714  0.09528  0.35666  1.0000
  C   C1785     1.0  0.41054  0.13536  0.60315  1.0000
  H   H1426     1.0  0.33837  0.06959  0.32082  1.0000
  S   S240      1.0  0.30448  0.05927  0.62250  1.0000
  P   P58       1.0  0.44385  0.14940  0.58650  1.0000
  C   C1786     1.0  0.28863  0.15916  0.61291  1.0000
  C   C1787     1.0  0.33780  0.20732  0.59800  1.0000
  P   P59       1.0  0.26558  0.29260  0.54961  1.0000
  C   C1788     1.0  0.26514  0.31822  0.51595  1.0000
  C   C1789     1.0  0.29318  0.14570  0.62842  1.0000
  C   C1790     1.0  0.26856  0.07923  0.36198  1.0000
  H   H1427     1.0  0.30137  0.20832  0.46436  1.0000
  C   C1791     1.0  0.28814  0.26256  0.56908  1.0000
  C   C1792     1.0  0.23365  0.04908  0.42014  1.0000
  C   C1793     1.0  0.30987  0.25131  0.53631  1.0000
  C   C1794     1.0  0.24723  0.08130  0.32351  1.0000
  H   H1428     1.0  0.46336  0.15767  0.30974  1.0000
  H   H1429     1.0  0.25741  0.09055  0.31770  1.0000
  C   C1795     1.0  0.44826  0.26087  0.35753  1.0000
  C   C1796     1.0  0.44354  0.25312  0.37639  1.0000
  C   C1797     1.0  0.44386  0.26302  0.39047  1.0000
  C   C1798     1.0  0.44869  0.28104  0.38540  1.0000
  P   P60       1.0  0.43770  0.25251  0.41473  1.0000
  C   C1799     1.0  0.41240  0.25450  0.42145  1.0000
  C   C1800     1.0  0.44904  0.22816  0.41793  1.0000
  C   C1801     1.0  0.44114  0.21480  0.43211  1.0000
  H   H1430     1.0  0.47295  0.23253  0.39577  1.0000
  H   H1431     1.0  0.29143  0.98662  0.38348  1.0000
  H   H1432     1.0  0.25973  0.26197  0.53263  1.0000
  H   H1433     1.0  0.44757  0.13274  0.62506  1.0000
  C   C1802     1.0  0.40076  0.25835  0.40786  1.0000
  C   C1803     1.0  0.38120  0.26021  0.41322  1.0000
  C   C1804     1.0  0.37311  0.25838  0.43215  1.0000
  C   C1805     1.0  0.38455  0.25466  0.44575  1.0000
  C   C1806     1.0  0.40412  0.25263  0.44047  1.0000
  C   C1807     1.0  0.44624  0.26440  0.42937  1.0000
  C   C1808     1.0  0.24495  0.28651  0.54445  1.0000
  C   C1809     1.0  0.32526  0.06746  0.31784  1.0000
  C   C1810     1.0  0.25388  0.40274  0.48974  1.0000
  C   C1811     1.0  0.44188  0.29009  0.44652  1.0000
  C   C1812     1.0  0.43536  0.28084  0.43515  1.0000
  P   P61       1.0  0.24523  0.42209  0.47254  1.0000
  S   S241      1.0  0.24542  0.29268  0.48836  1.0000
  H   H1434     1.0  0.44806  0.25294  0.34683  1.0000
  H   H1435     1.0  0.43972  0.23932  0.38009  1.0000
  H   H1436     1.0  0.24307  0.28000  0.58561  1.0000
  H   H1437     1.0  0.42774  0.21853  0.44085  1.0000
  C   C1813     1.0  0.46606  0.16598  0.60247  1.0000
  C   C1814     1.0  0.46540  0.13374  0.58000  1.0000
  C   C1815     1.0  0.46636  0.22254  0.40668  1.0000
  C   C1816     1.0  0.48012  0.14092  0.56710  1.0000
  H   H1438     1.0  0.40665  0.25979  0.39312  1.0000
  H   H1439     1.0  0.37233  0.26303  0.40267  1.0000
  H   H1440     1.0  0.35795  0.25986  0.43637  1.0000
  H   H1441     1.0  0.37817  0.25337  0.46041  1.0000
  H   H1442     1.0  0.41275  0.24963  0.45124  1.0000
  H   H1443     1.0  0.28031  0.12084  0.36449  1.0000
  H   H1444     1.0  0.43336  0.30268  0.45104  1.0000
  H   H1445     1.0  0.42184  0.28651  0.43087  1.0000
  H   H1446     1.0  0.27911  0.05785  0.30734  1.0000
  C   C1817     1.0  0.25474  0.42550  0.41553  1.0000
  H   H1447     1.0  0.25422  0.21020  0.50528  1.0000
  P   P62       1.0  0.23210  0.22704  0.47511  1.0000
  C   C1818     1.0  0.32777  0.19656  0.59165  1.0000
  H   H1448     1.0  0.24825  0.26119  0.45699  1.0000
  C   C1819     1.0  0.23753  0.02973  0.49147  1.0000
  C   C1820     1.0  0.43267  0.17620  0.55604  1.0000
  C   C1821     1.0  0.23720  0.05461  0.34561  1.0000
  C   C1822     1.0  0.43372  0.15749  0.56537  1.0000
  C   C1823     1.0  0.41960  0.15044  0.54133  1.0000
  H   H1449     1.0  0.28226  0.46679  0.35918  1.0000
  H   H1450     1.0  0.32629  0.98586  0.33054  1.0000
  H   H1451     1.0  0.28114  0.43330  0.45336  1.0000
  H   H1452     1.0  0.28059  0.21772  0.53287  1.0000
  H   H1453     1.0  0.38538  0.12403  0.61605  1.0000
  C   C1824     1.0  0.23635  0.01935  0.50957  1.0000
  H   H1454     1.0  0.28631  0.09777  0.34332  1.0000
  C   C1825     1.0  0.42838  0.13754  0.60536  1.0000
  H   H1455     1.0  0.30228  0.99973  0.62534  1.0000
  C   C1826     1.0  0.29509  0.26654  0.53523  1.0000
  C   C1827     1.0  0.31389  0.24173  0.55373  1.0000
  H   H1456     1.0  0.25850  0.11623  0.39484  1.0000
  H   H1457     1.0  0.47437  0.17614  0.42554  1.0000
  H   H1458     1.0  0.25449  0.43651  0.40333  1.0000
  H   H1459     1.0  0.47147  0.08357  0.31547  1.0000
  C   C1828     1.0  0.25958  0.24936  0.45841  1.0000
  C   C1829     1.0  0.25641  0.39262  0.42914  1.0000
  Fe  Fe121     1.0  0.46536  0.20220  0.34879  1.0000
  C   C1830     1.0  0.45721  0.19730  0.61001  1.0000
  H   H1460     1.0  0.24618  0.20674  0.53953  1.0000
  H   H1461     1.0  0.42301  0.19669  0.53323  1.0000
  H   H1462     1.0  0.30745  0.24042  0.44974  1.0000
  C   C1831     1.0  0.27803  0.02332  0.35009  1.0000
  Fe  Fe122     1.0  0.24340  0.08332  0.49333  1.0000
  C   C1832     1.0  0.41786  0.16925  0.53264  1.0000
  H   H1463     1.0  0.42243  0.18624  0.59291  1.0000
  H   H1464     1.0  0.26904  0.20242  0.47546  1.0000
  H   H1465     1.0  0.43802  0.18641  0.56104  1.0000
  C   C1833     1.0  0.45330  0.27868  0.35255  1.0000
  C   C1834     1.0  0.30950  0.06669  0.33205  1.0000
  H   H1466     1.0  0.24228  0.08871  0.40363  1.0000
  C   C1835     1.0  0.27535  0.38847  0.51165  1.0000
  C   C1836     1.0  0.43601  0.18468  0.59699  1.0000
  H   H1467     1.0  0.46436  0.29023  0.46094  1.0000
  C   C1837     1.0  0.29314  0.23776  0.45411  1.0000
  C   C1838     1.0  0.26311  0.31943  0.57219  1.0000
  C   C1839     1.0  0.27361  0.10853  0.36853  1.0000
  C   C1840     1.0  0.46385  0.25755  0.43489  1.0000
  C   C1841     1.0  0.24021  0.30110  0.60247  1.0000
  C   C1842     1.0  0.42773  0.14453  0.55747  1.0000
  H   H1468     1.0  0.43036  0.16130  0.36437  1.0000
  Fe  Fe123     1.0  0.24573  0.99185  0.33106  1.0000
  H   H1469     1.0  0.28329  0.99337  0.35161  1.0000
  H   H1470     1.0  0.24292  0.36091  0.51435  1.0000
  C   C1843     1.0  0.28973  0.21977  0.46254  1.0000
  C   C1844     1.0  0.45039  0.19618  0.43499  1.0000
  C   C1845     1.0  0.27336  0.33024  0.50069  1.0000
  H   H1471     1.0  0.40513  0.14141  0.59037  1.0000
  H   H1472     1.0  0.42905  0.12988  0.56402  1.0000
  H   H1473     1.0  0.27143  0.32713  0.56054  1.0000
  C   C1846     1.0  0.29240  0.06422  0.32822  1.0000
  C   C1847     1.0  0.24705  0.29311  0.58632  1.0000
  Fe  Fe124     1.0  0.23753  0.07970  0.45379  1.0000
  H   H1474     1.0  0.43977  0.46486  0.29795  1.0000
  C   C1848     1.0  0.46744  0.19066  0.42357  1.0000
  H   H1475     1.0  0.23109  0.29421  0.61411  1.0000
  H   H1476     1.0  0.24522  0.98747  0.43000  1.0000
  C   C1849     1.0  0.34051  0.20325  0.61657  1.0000
  H   H1477     1.0  0.24926  0.17424  0.43960  1.0000
  H   H1478     1.0  0.24309  0.38601  0.33371  1.0000
  H   H1479     1.0  0.44397  0.18590  0.44574  1.0000
  C   C1850     1.0  0.25853  0.30223  0.57102  1.0000
  C   C1851     1.0  0.25154  0.43008  0.43342  1.0000
  C   C1852     1.0  0.24634  0.27086  0.53599  1.0000
  C   C1853     1.0  0.33134  0.00942  0.30883  1.0000
  C   C1854     1.0  0.25558  0.15688  0.62413  1.0000
  C   C1855     1.0  0.26579  0.37323  0.51768  1.0000
  H   H1480     1.0  0.34882  0.21129  0.62121  1.0000
  H   H1481     1.0  0.24100  0.16092  0.62235  1.0000
  C   C1856     1.0  0.45934  0.28308  0.45209  1.0000
  H   H1482     1.0  0.43011  0.21227  0.60420  1.0000
  H   H1483     1.0  0.32540  0.01965  0.31794  1.0000
  H   H1484     1.0  0.47263  0.24503  0.43050  1.0000
  H   H1485     1.0  0.28714  0.38901  0.51800  1.0000
  H   H1486     1.0  0.47599  0.15295  0.60276  1.0000
  C   C1857     1.0  0.45345  0.28879  0.36648  1.0000
  H   H1487     1.0  0.44892  0.28909  0.39593  1.0000
  H   H1488     1.0  0.47854  0.15575  0.56115  1.0000
  C   C1858     1.0  0.46765  0.11446  0.58741  1.0000
  C   C1859     1.0  0.47542  0.20384  0.40942  1.0000
  C   C1860     1.0  0.32257  0.17798  0.62269  1.0000
  C   C1861     1.0  0.33300  0.18852  0.62889  1.0000
  S   S242      1.0  0.23175  0.35204  0.47402  1.0000
  H   H1489     1.0  0.23190  0.25574  0.52328  1.0000
  H   H1490     1.0  0.23225  0.00437  0.45632  1.0000
  H   H1491     1.0  0.23264  0.38656  0.48970  1.0000
  H   H1492     1.0  0.26048  0.97347  0.29643  1.0000
  H   H1493     1.0  0.23278  0.45467  0.49177  1.0000
  C   C1862     1.0  0.30748  0.06192  0.29615  1.0000
  C   C1863     1.0  0.23048  0.26712  0.53085  1.0000
  Fe  Fe125     1.0  0.25162  0.40143  0.81508  1.0000
  S   S243      1.0  0.28320  0.39560  0.80917  1.0000
  C   C1864     1.0  0.46981  0.18751  0.77797  1.0000
  C   C1865     1.0  0.23138  0.02696  0.93137  1.0000
  S   S244      1.0  0.27980  0.39548  0.76535  1.0000
  H   H1494     1.0  0.29803  0.34659  0.75662  1.0000
  Fe  Fe126     1.0  0.27958  0.37495  0.79248  1.0000
  S   S245      1.0  0.29283  0.34439  0.79838  1.0000
  Fe  Fe127     1.0  0.28035  0.41700  0.78282  1.0000
  S   S246      1.0  0.29753  0.44051  0.77127  1.0000
  S   S247      1.0  0.24802  0.37945  0.80001  1.0000
  H   H1495     1.0  0.40301  0.46508  0.74715  1.0000
  Fe  Fe128     1.0  0.39164  0.28467  0.78717  1.0000
  S   S248      1.0  0.37368  0.26242  0.79784  1.0000
  S   S249      1.0  0.38005  0.31474  0.77572  1.0000
  Fe  Fe129     1.0  0.42724  0.25810  0.79633  1.0000
  S   S250      1.0  0.41151  0.23398  0.80833  1.0000
  S   S251      1.0  0.45897  0.25060  0.79437  1.0000
  Fe  Fe130     1.0  0.39726  0.24347  0.78320  1.0000
  S   S252      1.0  0.39260  0.21981  0.77046  1.0000
  Fe  Fe131     1.0  0.38940  0.25496  0.82193  1.0000
  S   S253      1.0  0.37006  0.25038  0.84978  1.0000
  S   S254      1.0  0.41423  0.26632  0.77029  1.0000
  S   S255      1.0  0.40612  0.27840  0.81214  1.0000
  C   C1866     1.0  0.27914  0.13807  0.64173  1.0000
  Fe  Fe132     1.0  0.26505  0.07042  0.66451  1.0000
  S   S256      1.0  0.29504  0.05914  0.66795  1.0000
  H   H1496     1.0  0.24343  0.12013  0.80030  1.0000
  H   H1497     1.0  0.26463  0.08804  0.86684  1.0000
  H   H1498     1.0  0.25312  0.46065  0.72804  1.0000
  Fe  Fe133     1.0  0.29407  0.03965  0.64857  1.0000
  S   S257      1.0  0.30650  0.00963  0.66039  1.0000
  H   H1499     1.0  0.30980  0.17535  0.89411  1.0000
  S   S258      1.0  0.26347  0.05007  0.64643  1.0000
  Fe  Fe134     1.0  0.38993  0.20436  0.66953  1.0000
  S   S259      1.0  0.39509  0.17343  0.68052  1.0000
  S   S260      1.0  0.38708  0.22884  0.68462  1.0000
  C   C1867     1.0  0.26717  0.45590  0.85501  1.0000
  Fe  Fe135     1.0  0.37531  0.17102  0.66194  1.0000
  S   S261      1.0  0.35183  0.15369  0.67360  1.0000
  H   H1500     1.0  0.25375  0.10925  0.76989  1.0000
  H   H1501     1.0  0.27229  0.32471  0.72081  1.0000
  S   S262      1.0  0.36822  0.20234  0.65313  1.0000
  H   H1502     1.0  0.34077  0.24690  0.67612  1.0000
  C   C1868     1.0  0.23766  0.35000  0.85737  1.0000
  C   C1869     1.0  0.31609  0.98898  0.72775  1.0000
  S   S263      1.0  0.39825  0.21744  0.92701  1.0000
  Fe  Fe136     1.0  0.25595  0.08498  0.93670  1.0000
  H   H1503     1.0  0.44762  0.24560  0.94695  1.0000
  S   S264      1.0  0.25781  0.11559  0.92984  1.0000
  H   H1504     1.0  0.24378  0.03959  0.86646  1.0000
  C   C1870     1.0  0.45971  0.19084  0.71438  1.0000
  C   C1871     1.0  0.41694  0.97412  0.66894  1.0000
  C   C1872     1.0  0.32437  0.25492  0.70180  1.0000
  C   C1873     1.0  0.26067  0.17132  0.93300  1.0000
  C   C1874     1.0  0.46604  0.16193  0.65913  1.0000
  C   C1875     1.0  0.33902  0.25582  0.68647  1.0000
  S   S265      1.0  0.32667  0.09701  0.63313  1.0000
  C   C1876     1.0  0.46588  0.18122  0.65673  1.0000
  H   H1505     1.0  0.27203  0.40275  0.70015  1.0000
  C   C1877     1.0  0.44014  0.98755  0.77895  1.0000
  H   H1506     1.0  0.45328  0.19101  0.65399  1.0000
  S   S266      1.0  0.39819  0.16699  0.63714  1.0000
  C   C1878     1.0  0.46991  0.23449  0.75100  1.0000
  C   C1879     1.0  0.25711  0.05983  0.73797  1.0000
  C   C1880     1.0  0.25722  0.06414  0.71854  1.0000
  H   H1507     1.0  0.27030  0.05609  0.74314  1.0000
  H   H1508     1.0  0.27043  0.06382  0.70887  1.0000
  C   C1881     1.0  0.30508  0.98826  0.65397  1.0000
  H   H1509     1.0  0.36038  0.46374  0.73371  1.0000
  C   C1882     1.0  0.46782  0.24970  0.92149  1.0000
  P   P63       1.0  0.45822  0.17083  0.73297  1.0000
  H   H1510     1.0  0.44916  0.25022  0.83417  1.0000
  C   C1883     1.0  0.33317  0.11280  0.64472  1.0000
  C   C1884     1.0  0.32551  0.11447  0.66332  1.0000
  C   C1885     1.0  0.33131  0.12711  0.67190  1.0000
  C   C1886     1.0  0.34477  0.13824  0.66202  1.0000
  H   H1511     1.0  0.37390  0.98974  0.70579  1.0000
  C   C1887     1.0  0.26819  0.41560  0.70593  1.0000
  H   H1512     1.0  0.31530  0.10587  0.67115  1.0000
  H   H1513     1.0  0.32547  0.12816  0.68636  1.0000
  C   C1888     1.0  0.23973  0.38433  0.72988  1.0000
  Fe  Fe137     1.0  0.37694  0.21838  0.95389  1.0000
  C   C1889     1.0  0.37845  0.23992  0.87072  1.0000
  C   C1890     1.0  0.39765  0.23522  0.87146  1.0000
  C   C1891     1.0  0.40362  0.22823  0.88882  1.0000
  C   C1892     1.0  0.39044  0.22558  0.90537  1.0000
  C   C1893     1.0  0.37129  0.22950  0.90440  1.0000
  C   C1894     1.0  0.36533  0.23677  0.88716  1.0000
  H   H1514     1.0  0.40786  0.23729  0.85876  1.0000
  H   H1515     1.0  0.41846  0.22492  0.88947  1.0000
  H   H1516     1.0  0.36108  0.22724  0.91698  1.0000
  H   H1517     1.0  0.35048  0.24020  0.88660  1.0000
  C   C1895     1.0  0.39150  0.22245  0.74647  1.0000
  C   C1896     1.0  0.39097  0.23997  0.73479  1.0000
  C   C1897     1.0  0.38965  0.24168  0.71586  1.0000
  C   C1898     1.0  0.38900  0.22589  0.70841  1.0000
  C   C1899     1.0  0.38969  0.20834  0.72006  1.0000
  C   C1900     1.0  0.39087  0.20665  0.73905  1.0000
  H   H1518     1.0  0.39154  0.25217  0.74037  1.0000
  H   H1519     1.0  0.38915  0.25530  0.70691  1.0000
  H   H1520     1.0  0.38920  0.19609  0.71445  1.0000
  H   H1521     1.0  0.39125  0.19304  0.74799  1.0000
  H   H1522     1.0  0.29839  0.42921  0.81640  1.0000
  H   H1523     1.0  0.26519  0.42465  0.82820  1.0000
  H   H1524     1.0  0.45079  0.28833  0.80366  1.0000
  H   H1525     1.0  0.31640  0.11548  0.90850  1.0000
  S   S267      1.0  0.29882  0.12586  0.94808  1.0000
  C   C1901     1.0  0.26338  0.38518  0.88499  1.0000
  C   C1902     1.0  0.25860  0.39182  0.86707  1.0000
  H   H1526     1.0  0.38731  0.19197  0.87181  1.0000
  H   H1527     1.0  0.27799  0.38199  0.88657  1.0000
  H   H1528     1.0  0.26951  0.39360  0.85493  1.0000
  S   S268      1.0  0.24076  0.05533  0.77505  1.0000
  H   H1529     1.0  0.39992  0.00776  0.69614  1.0000
  C   C1903     1.0  0.23883  0.20081  0.93470  1.0000
  H   H1530     1.0  0.31722  0.16659  0.63256  1.0000
  C   C1904     1.0  0.30370  0.98710  0.63574  1.0000
  H   H1531     1.0  0.39318  0.46375  0.78171  1.0000
  C   C1905     1.0  0.37051  0.42622  0.79295  1.0000
  C   C1906     1.0  0.35191  0.26774  0.68479  1.0000
  H   H1532     1.0  0.25079  0.37849  0.73802  1.0000
  C   C1907     1.0  0.31709  0.33668  0.79188  1.0000
  C   C1908     1.0  0.32893  0.34859  0.78048  1.0000
  C   C1909     1.0  0.34823  0.34169  0.77548  1.0000
  C   C1910     1.0  0.35576  0.32296  0.78203  1.0000
  C   C1911     1.0  0.34384  0.31116  0.79351  1.0000
  C   C1912     1.0  0.32457  0.31797  0.79829  1.0000
  H   H1533     1.0  0.32324  0.36305  0.77544  1.0000
  H   H1534     1.0  0.35738  0.35088  0.76658  1.0000
  H   H1535     1.0  0.34945  0.29683  0.79879  1.0000
  H   H1536     1.0  0.31542  0.30874  0.80708  1.0000
  C   C1913     1.0  0.28115  0.99550  0.95697  1.0000
  C   C1914     1.0  0.24936  0.38241  0.90086  1.0000
  H   H1537     1.0  0.26717  0.45560  0.79940  1.0000
  H   H1538     1.0  0.27136  0.34834  0.74039  1.0000
  C   C1915     1.0  0.27572  0.18038  0.93217  1.0000
  S   S269      1.0  0.26235  0.06730  0.91342  1.0000
  C   C1916     1.0  0.23968  0.39644  0.86502  1.0000
  H   H1539     1.0  0.30791  0.97244  0.68140  1.0000
  H   H1540     1.0  0.39567  0.28843  0.85388  1.0000
  C   C1917     1.0  0.30389  0.14327  0.95878  1.0000
  C   C1918     1.0  0.43767  0.18619  0.76415  1.0000
  H   H1541     1.0  0.28987  0.17241  0.93154  1.0000
  H   H1542     1.0  0.47221  0.98621  0.73884  1.0000
  H   H1543     1.0  0.44828  0.19110  0.84909  1.0000
  H   H1544     1.0  0.32095  0.22950  0.92308  1.0000
  H   H1545     1.0  0.24571  0.44083  0.85258  1.0000
  C   C1919     1.0  0.44778  0.29455  0.84668  1.0000
  C   C1920     1.0  0.24027  0.06942  0.71168  1.0000
  C   C1921     1.0  0.27563  0.46630  0.79293  1.0000
  C   C1922     1.0  0.31869  0.99206  0.70824  1.0000
  C   C1923     1.0  0.24574  0.06345  0.90089  1.0000
  S   S270      1.0  0.27302  0.09246  0.63979  1.0000
  H   H1546     1.0  0.26321  0.15631  0.93305  1.0000
  H   H1547     1.0  0.41049  0.17282  0.92217  1.0000
  H   H1548     1.0  0.29545  0.40897  0.95511  1.0000
  H   H1549     1.0  0.27431  0.43082  0.88526  1.0000
  C   C1924     1.0  0.38271  0.16708  0.92365  1.0000
  C   C1925     1.0  0.28607  0.45813  0.84875  1.0000
  C   C1926     1.0  0.23897  0.11125  0.77607  1.0000
  C   C1927     1.0  0.46355  0.98105  0.75185  1.0000
  Fe  Fe138     1.0  0.24837  0.40147  0.77404  1.0000
  S   S271      1.0  0.27382  0.07979  0.95930  1.0000
  C   C1928     1.0  0.45020  0.24466  0.72107  1.0000
  C   C1929     1.0  0.45089  0.23317  0.75392  1.0000
  C   C1930     1.0  0.42251  0.12128  0.63755  1.0000
  C   C1931     1.0  0.47703  0.19672  0.70669  1.0000
  C   C1932     1.0  0.32034  0.15104  0.95127  1.0000
  C   C1933     1.0  0.44454  0.21585  0.69268  1.0000
  H   H1550     1.0  0.30769  0.14052  0.62990  1.0000
  H   H1551     1.0  0.46162  0.21994  0.88782  1.0000
  C   C1934     1.0  0.25372  0.09521  0.85878  1.0000
  H   H1552     1.0  0.26643  0.04561  0.88428  1.0000
  H   H1553     1.0  0.26481  0.35767  0.84553  1.0000
  S   S272      1.0  0.24910  0.42413  0.78983  1.0000
  C   C1935     1.0  0.35205  0.13691  0.64328  1.0000
  H   H1554     1.0  0.28298  0.12743  0.65344  1.0000
  C   C1936     1.0  0.29163  0.24647  0.95148  1.0000
  H   H1555     1.0  0.25520  0.07193  0.84498  1.0000
  C   C1937     1.0  0.25313  0.97887  0.70783  1.0000
  C   C1938     1.0  0.44114  0.23791  0.73894  1.0000
  H   H1556     1.0  0.23111  0.02486  0.76281  1.0000
  C   C1939     1.0  0.29703  0.35131  0.94705  1.0000
  H   H1557     1.0  0.42961  0.15262  0.76108  1.0000
  H   H1558     1.0  0.42647  0.23665  0.74131  1.0000
  H   H1559     1.0  0.47520  0.14152  0.76067  1.0000
  H   H1560     1.0  0.33597  0.98500  0.68297  1.0000
  C   C1940     1.0  0.40087  0.18235  0.89573  1.0000
  H   H1561     1.0  0.44507  0.22083  0.82616  1.0000
  C   C1941     1.0  0.26033  0.14363  0.63959  1.0000
  Fe  Fe139     1.0  0.30302  0.07963  0.64180  1.0000
  S   S273      1.0  0.44597  0.15293  0.65764  1.0000
  C   C1942     1.0  0.23543  0.31743  0.85922  1.0000
  H   H1562     1.0  0.45666  0.19083  0.87990  1.0000
  H   H1563     1.0  0.42687  0.11656  0.65109  1.0000
  C   C1943     1.0  0.47343  0.26659  0.79533  1.0000
  C   C1944     1.0  0.24120  0.03130  0.94364  1.0000
  C   C1945     1.0  0.25418  0.20987  0.93343  1.0000
  C   C1946     1.0  0.25251  0.45289  0.89533  1.0000
  Fe  Fe140     1.0  0.41761  0.17180  0.65496  1.0000
  C   C1947     1.0  0.36776  0.46274  0.77199  1.0000
  S   S274      1.0  0.23278  0.40527  0.84294  1.0000
  H   H1564     1.0  0.43916  0.32141  0.83012  1.0000
  C   C1948     1.0  0.38274  0.45533  0.78182  1.0000
  C   C1949     1.0  0.45198  0.19300  0.78805  1.0000
  C   C1950     1.0  0.25878  0.01628  0.70220  1.0000
  C   C1951     1.0  0.44218  0.27797  0.85757  1.0000
  C   C1952     1.0  0.42326  0.27596  0.86002  1.0000
  C   C1953     1.0  0.31110  0.14563  0.90126  1.0000
  C   C1954     1.0  0.30702  0.97170  0.66727  1.0000
  H   H1565     1.0  0.47199  0.31017  0.80459  1.0000
  C   C1955     1.0  0.29307  0.22715  0.95799  1.0000
  H   H1566     1.0  0.32730  0.97383  0.75226  1.0000
  H   H1567     1.0  0.39573  0.11191  0.64666  1.0000
  H   H1568     1.0  0.28426  0.20655  0.93166  1.0000
  H   H1569     1.0  0.42532  0.25652  0.89628  1.0000
  H   H1570     1.0  0.24563  0.98135  0.73717  1.0000
  H   H1571     1.0  0.24905  0.12041  0.87038  1.0000
  C   C1956     1.0  0.26175  0.00704  0.68701  1.0000
  H   H1572     1.0  0.34426  0.42557  0.78475  1.0000
  H   H1573     1.0  0.41871  0.26305  0.86743  1.0000
  C   C1957     1.0  0.36664  0.20784  0.83012  1.0000
  C   C1958     1.0  0.36994  0.19355  0.81955  1.0000
  C   C1959     1.0  0.36678  0.17552  0.82830  1.0000
  C   C1960     1.0  0.36035  0.17175  0.84763  1.0000
  C   C1961     1.0  0.35689  0.18609  0.85831  1.0000
  C   C1962     1.0  0.36015  0.20413  0.84939  1.0000
  P   P64       1.0  0.34936  0.18153  0.88340  1.0000
  C   C1963     1.0  0.33869  0.16067  0.89046  1.0000
  C   C1964     1.0  0.36924  0.17800  0.89522  1.0000
  C   C1965     1.0  0.36784  0.16904  0.91401  1.0000
  C   C1966     1.0  0.31905  0.16192  0.89500  1.0000
  C   C1967     1.0  0.44341  0.20079  0.70756  1.0000
  H   H1574     1.0  0.47616  0.27135  0.74909  1.0000
  C   C1968     1.0  0.34216  0.12665  0.89846  1.0000
  C   C1969     1.0  0.35018  0.14289  0.89218  1.0000
  C   C1970     1.0  0.33239  0.20147  0.89005  1.0000
  C   C1971     1.0  0.31908  0.21075  0.87865  1.0000
  C   C1972     1.0  0.30621  0.22649  0.88349  1.0000
  C   C1973     1.0  0.30663  0.23313  0.89968  1.0000
  C   C1974     1.0  0.31994  0.22404  0.91098  1.0000
  C   C1975     1.0  0.33255  0.20812  0.90639  1.0000
  H   H1575     1.0  0.36933  0.22177  0.82342  1.0000
  H   H1576     1.0  0.37510  0.19644  0.80460  1.0000
  H   H1577     1.0  0.36945  0.16443  0.82008  1.0000
  H   H1578     1.0  0.35816  0.15766  0.85411  1.0000
  H   H1579     1.0  0.35789  0.21529  0.85743  1.0000
  H   H1580     1.0  0.35508  0.16398  0.92138  1.0000
  H   H1581     1.0  0.33772  0.17058  0.95350  1.0000
  P   P65       1.0  0.45919  0.25883  0.86710  1.0000
  H   H1582     1.0  0.47600  0.25137  0.70410  1.0000
  H   H1583     1.0  0.35105  0.11298  0.90018  1.0000
  H   H1584     1.0  0.36536  0.14159  0.88896  1.0000
  H   H1585     1.0  0.31875  0.20586  0.86595  1.0000
  H   H1586     1.0  0.29616  0.23370  0.87450  1.0000
  H   H1587     1.0  0.29685  0.24542  0.90337  1.0000
  H   H1588     1.0  0.24947  0.36509  0.71023  1.0000
  H   H1589     1.0  0.34272  0.20144  0.91541  1.0000
  C   C1976     1.0  0.32276  0.26577  0.71559  1.0000
  C   C1977     1.0  0.33578  0.27768  0.71410  1.0000
  C   C1978     1.0  0.35036  0.27861  0.69853  1.0000
  P   P66       1.0  0.33492  0.28975  0.73319  1.0000
  C   C1979     1.0  0.33539  0.27231  0.75428  1.0000
  C   C1980     1.0  0.35522  0.30109  0.72880  1.0000
  C   C1981     1.0  0.35563  0.31805  0.71606  1.0000
  C   C1982     1.0  0.37133  0.32693  0.71236  1.0000
  C   C1983     1.0  0.38676  0.31887  0.72125  1.0000
  C   C1984     1.0  0.38651  0.30191  0.73377  1.0000
  C   C1985     1.0  0.37076  0.29309  0.73769  1.0000
  C   C1986     1.0  0.34386  0.25361  0.75315  1.0000
  C   C1987     1.0  0.34469  0.24010  0.76937  1.0000
  C   C1988     1.0  0.33738  0.24515  0.78689  1.0000
  C   C1989     1.0  0.32912  0.26374  0.78817  1.0000
  C   C1990     1.0  0.32807  0.27729  0.77196  1.0000
  C   C1991     1.0  0.31444  0.30798  0.73567  1.0000
  C   C1992     1.0  0.31389  0.32170  0.74644  1.0000
  C   C1993     1.0  0.29838  0.33614  0.74818  1.0000
  H   H1590     1.0  0.41352  0.18791  0.88884  1.0000
  C   C1994     1.0  0.28386  0.32371  0.72811  1.0000
  C   C1995     1.0  0.29935  0.30921  0.72636  1.0000
  H   H1591     1.0  0.31173  0.26443  0.72772  1.0000
  H   H1592     1.0  0.36101  0.28712  0.69717  1.0000
  H   H1593     1.0  0.34380  0.32441  0.70901  1.0000
  H   H1594     1.0  0.37150  0.34011  0.70271  1.0000
  H   H1595     1.0  0.39882  0.32585  0.71868  1.0000
  H   H1596     1.0  0.39832  0.29593  0.74095  1.0000
  H   H1597     1.0  0.37073  0.28023  0.74781  1.0000
  H   H1598     1.0  0.35020  0.24940  0.73978  1.0000
  H   H1599     1.0  0.35157  0.22580  0.76833  1.0000
  H   H1600     1.0  0.33863  0.23476  0.79945  1.0000
  H   H1601     1.0  0.32407  0.26779  0.80173  1.0000
  H   H1602     1.0  0.32192  0.29161  0.77339  1.0000
  H   H1603     1.0  0.32553  0.32136  0.75343  1.0000
  C   C1996     1.0  0.27769  0.41826  0.71934  1.0000
  H   H1604     1.0  0.26104  0.03069  0.69997  1.0000
  C   C1997     1.0  0.39920  0.17378  0.91453  1.0000
  H   H1605     1.0  0.29953  0.29925  0.71752  1.0000
  C   C1998     1.0  0.32922  0.97604  0.73712  1.0000
  C   C1999     1.0  0.25338  0.42931  0.70022  1.0000
  C   C2000     1.0  0.42415  0.14661  0.71191  1.0000
  C   C2001     1.0  0.41207  0.13960  0.72780  1.0000
  C   C2002     1.0  0.41398  0.14200  0.74548  1.0000
  C   C2003     1.0  0.42784  0.15160  0.74725  1.0000
  C   C2004     1.0  0.43937  0.15950  0.73123  1.0000
  C   C2005     1.0  0.43770  0.15654  0.71358  1.0000
  H   H1606     1.0  0.31608  0.36196  0.95887  1.0000
  H   H1607     1.0  0.23444  0.30803  0.91492  1.0000
  C   C2006     1.0  0.27250  0.19965  0.93226  1.0000
  H   H1608     1.0  0.32966  0.14614  0.93929  1.0000
  H   H1609     1.0  0.47716  0.23098  0.76289  1.0000
  C   C2007     1.0  0.29730  0.44848  0.83490  1.0000
  C   C2008     1.0  0.45525  0.23739  0.86174  1.0000
  C   C2009     1.0  0.23895  0.37682  0.71412  1.0000
  C   C2010     1.0  0.46587  0.28421  0.80025  1.0000
  S   S275      1.0  0.25601  0.37378  0.92305  1.0000
  H   H1610     1.0  0.42312  0.14430  0.69821  1.0000
  H   H1611     1.0  0.40140  0.13213  0.72637  1.0000
  H   H1612     1.0  0.40485  0.13623  0.75782  1.0000
  C   C2011     1.0  0.25310  0.00687  0.72024  1.0000
  H   H1613     1.0  0.44701  0.16172  0.70103  1.0000
  C   C2012     1.0  0.44978  0.24874  0.93178  1.0000
  S   S276      1.0  0.34580  0.22825  0.95528  1.0000
  C   C2013     1.0  0.28988  0.43628  0.82752  1.0000
  H   H1614     1.0  0.31460  0.24541  0.70321  1.0000
  H   H1615     1.0  0.36311  0.98095  0.65877  1.0000
  H   H1616     1.0  0.43192  0.22308  0.68718  1.0000
  H   H1617     1.0  0.44242  0.24874  0.70957  1.0000
  C   C2014     1.0  0.27124  0.43375  0.83402  1.0000
  C   C2015     1.0  0.38590  0.18465  0.88613  1.0000
  H   H1618     1.0  0.24617  0.42670  0.68999  1.0000
  C   C2016     1.0  0.24955  0.42767  0.92945  1.0000
  C   C2017     1.0  0.27181  0.98277  0.95260  1.0000
  C   C2018     1.0  0.47158  0.18090  0.76124  1.0000
  H   H1619     1.0  0.47300  0.46641  0.70734  1.0000
  H   H1620     1.0  0.40570  0.31774  0.83515  1.0000
  C   C2019     1.0  0.41579  0.30682  0.84164  1.0000
  C   C2020     1.0  0.46925  0.24613  0.71806  1.0000
  H   H1621     1.0  0.36203  0.14573  0.63540  1.0000
  C   C2021     1.0  0.26279  0.42274  0.91407  1.0000
  C   C2022     1.0  0.31520  0.36999  0.85886  1.0000
  C   C2023     1.0  0.31396  0.36291  0.84318  1.0000
  C   C2024     1.0  0.31120  0.34444  0.84516  1.0000
  C   C2025     1.0  0.30966  0.33301  0.86280  1.0000
  C   C2026     1.0  0.31135  0.33984  0.87859  1.0000
  C   C2027     1.0  0.31392  0.35852  0.87651  1.0000
  P   P67       1.0  0.30852  0.32504  0.90140  1.0000
  C   C2028     1.0  0.28525  0.31906  0.90565  1.0000
  C   C2029     1.0  0.32719  0.30486  0.90284  1.0000
  C   C2030     1.0  0.32946  0.29388  0.92041  1.0000
  C   C2031     1.0  0.34500  0.27955  0.92216  1.0000
  C   C2032     1.0  0.35849  0.27614  0.90647  1.0000
  C   C2033     1.0  0.35626  0.28674  0.88891  1.0000
  C   C2034     1.0  0.34080  0.30118  0.88708  1.0000
  C   C2035     1.0  0.28124  0.30187  0.91643  1.0000
  C   C2036     1.0  0.26301  0.29776  0.91948  1.0000
  C   C2037     1.0  0.24865  0.31092  0.91217  1.0000
  C   C2038     1.0  0.25245  0.32820  0.90188  1.0000
  C   C2039     1.0  0.27064  0.33221  0.89853  1.0000
  C   C2040     1.0  0.31054  0.33731  0.91935  1.0000
  C   C2041     1.0  0.29500  0.34231  0.93296  1.0000
  H   H1622     1.0  0.28491  0.35530  0.95736  1.0000
  C   C2042     1.0  0.31458  0.35510  0.94786  1.0000
  C   C2043     1.0  0.33017  0.34998  0.93448  1.0000
  C   C2044     1.0  0.32817  0.34113  0.92026  1.0000
  H   H1623     1.0  0.31697  0.38445  0.85734  1.0000
  H   H1624     1.0  0.31502  0.37174  0.82948  1.0000
  H   H1625     1.0  0.31014  0.33904  0.83296  1.0000
  H   H1626     1.0  0.30717  0.31885  0.86411  1.0000
  H   H1627     1.0  0.31452  0.36444  0.88849  1.0000
  H   H1628     1.0  0.31962  0.29679  0.93295  1.0000
  H   H1629     1.0  0.34689  0.27137  0.93578  1.0000
  H   H1630     1.0  0.37082  0.26542  0.90799  1.0000
  H   H1631     1.0  0.36664  0.28382  0.87672  1.0000
  H   H1632     1.0  0.33987  0.30954  0.87340  1.0000
  H   H1633     1.0  0.29203  0.29173  0.92261  1.0000
  C   C2045     1.0  0.45552  0.17972  0.75445  1.0000
  H   H1634     1.0  0.42064  0.24997  0.93047  1.0000
  H   H1635     1.0  0.24119  0.33877  0.89687  1.0000
  H   H1636     1.0  0.27314  0.34583  0.89074  1.0000
  H   H1637     1.0  0.28128  0.33933  0.93282  1.0000
  C   C2046     1.0  0.45065  0.23738  0.84434  1.0000
  C   C2047     1.0  0.46189  0.22138  0.68481  1.0000
  H   H1638     1.0  0.34383  0.35278  0.93517  1.0000
  H   H1639     1.0  0.34041  0.33711  0.91005  1.0000
  H   H1640     1.0  0.25220  0.22475  0.93351  1.0000
  H   H1641     1.0  0.37163  0.41207  0.80089  1.0000
  C   C2048     1.0  0.47066  0.25324  0.90190  1.0000
  H   H1642     1.0  0.39591  0.43133  0.79949  1.0000
  C   C2049     1.0  0.25998  0.44336  0.84775  1.0000
  H   H1643     1.0  0.24802  0.41770  0.94243  1.0000
  C   C2050     1.0  0.24147  0.24768  0.88012  1.0000
  C   C2051     1.0  0.24835  0.08610  0.84655  1.0000
  S   S277      1.0  0.23975  0.07620  0.68740  1.0000
  H   H1644     1.0  0.28909  0.40756  0.72379  1.0000
  C   C2052     1.0  0.25002  0.98831  0.72308  1.0000
  C   C2053     1.0  0.23939  0.45782  0.91094  1.0000
  C   C2054     1.0  0.24485  0.11346  0.86081  1.0000
  H   H1645     1.0  0.27148  0.40893  0.91518  1.0000
  C   C2055     1.0  0.25930  0.98838  0.68978  1.0000
  C   C2056     1.0  0.34628  0.12424  0.63470  1.0000
  H   H1646     1.0  0.24952  0.13735  0.64975  1.0000
  H   H1647     1.0  0.29303  0.00031  0.94721  1.0000
  H   H1648     1.0  0.44359  0.22891  0.76792  1.0000
  C   C2057     1.0  0.23409  0.27391  0.84827  1.0000
  C   C2058     1.0  0.35516  0.43376  0.78380  1.0000
  C   C2059     1.0  0.26431  0.43526  0.89707  1.0000
  H   H1649     1.0  0.36362  0.26789  0.67319  1.0000
  Fe  Fe141     1.0  0.23563  0.36188  0.94804  1.0000
  C   C2060     1.0  0.43462  0.30888  0.83881  1.0000
  C   C2061     1.0  0.29067  0.46279  0.77841  1.0000
  H   H1650     1.0  0.27654  0.97762  0.93947  1.0000
  C   C2062     1.0  0.38422  0.43705  0.79208  1.0000
  C   C2063     1.0  0.23305  0.11733  0.79333  1.0000
  C   C2064     1.0  0.43593  0.19235  0.78114  1.0000
  C   C2065     1.0  0.45025  0.20397  0.85263  1.0000
  H   H1651     1.0  0.46283  0.23284  0.67306  1.0000
  C   C2066     1.0  0.38584  0.98515  0.69555  1.0000
  C   C2067     1.0  0.47791  0.29655  0.80078  1.0000
  C   C2068     1.0  0.41012  0.29036  0.85227  1.0000
  C   C2069     1.0  0.47870  0.15270  0.73096  1.0000
  H   H1652     1.0  0.42211  0.19714  0.78868  1.0000
  H   H1653     1.0  0.43080  0.99754  0.78696  1.0000
  H   H1654     1.0  0.30862  0.00222  0.70088  1.0000
  C   C2070     1.0  0.32493  0.16491  0.95926  1.0000
  C   C2071     1.0  0.27832  0.27541  0.79348  1.0000
  C   C2072     1.0  0.27648  0.29260  0.78126  1.0000
  C   C2073     1.0  0.27048  0.30929  0.78841  1.0000
  C   C2074     1.0  0.26651  0.30888  0.80774  1.0000
  C   C2075     1.0  0.26861  0.29171  0.82014  1.0000
  C   C2076     1.0  0.27433  0.27494  0.81285  1.0000
  P   P68       1.0  0.26519  0.29087  0.84517  1.0000
  C   C2077     1.0  0.24992  0.27390  0.85603  1.0000
  C   C2078     1.0  0.28765  0.28464  0.85301  1.0000
  C   C2079     1.0  0.30427  0.27960  0.84062  1.0000
  C   C2080     1.0  0.32152  0.27433  0.84688  1.0000
  C   C2081     1.0  0.32232  0.27410  0.86553  1.0000
  C   C2082     1.0  0.30597  0.27959  0.87787  1.0000
  C   C2083     1.0  0.28869  0.28511  0.87159  1.0000
  C   C2084     1.0  0.40061  0.99542  0.69014  1.0000
  C   C2085     1.0  0.24798  0.44587  0.70788  1.0000
  H   H1655     1.0  0.47956  0.30055  0.75791  1.0000
  H   H1656     1.0  0.42982  0.19677  0.71351  1.0000
  C   C2086     1.0  0.25355  0.26062  0.87202  1.0000
  C   C2087     1.0  0.25446  0.31371  0.85093  1.0000
  C   C2088     1.0  0.26511  0.32825  0.84642  1.0000
  C   C2089     1.0  0.25671  0.34634  0.84957  1.0000
  H   H1657     1.0  0.33572  0.26983  0.87032  1.0000
  C   C2090     1.0  0.25176  0.05191  0.88714  1.0000
  C   C2091     1.0  0.47930  0.24075  0.73300  1.0000
  H   H1658     1.0  0.28305  0.26247  0.78790  1.0000
  H   H1659     1.0  0.27976  0.29305  0.76625  1.0000
  H   H1660     1.0  0.26915  0.32269  0.77903  1.0000
  H   H1661     1.0  0.26206  0.32211  0.81274  1.0000
  H   H1662     1.0  0.27608  0.26153  0.82215  1.0000
  H   H1663     1.0  0.30408  0.27994  0.82608  1.0000
  H   H1664     1.0  0.33435  0.27048  0.83725  1.0000
  C   C2092     1.0  0.45537  0.25630  0.89241  1.0000
  H   H1665     1.0  0.30681  0.27959  0.89224  1.0000
  H   H1666     1.0  0.27613  0.28965  0.88117  1.0000
  C   C2093     1.0  0.25740  0.44825  0.72162  1.0000
  C   C2094     1.0  0.45500  0.20382  0.86995  1.0000
  H   H1667     1.0  0.45091  0.00886  0.75717  1.0000
  H   H1668     1.0  0.29599  0.14655  0.90535  1.0000
  H   H1669     1.0  0.26563  0.26011  0.87829  1.0000
  H   H1670     1.0  0.27972  0.32579  0.83974  1.0000
  C   C2095     1.0  0.41615  0.98991  0.67684  1.0000
  C   C2096     1.0  0.45146  0.99393  0.76217  1.0000
  H   H1671     1.0  0.45058  0.19837  0.80088  1.0000
  H   H1672     1.0  0.26654  0.01416  0.67304  1.0000
  H   H1673     1.0  0.46231  0.29639  0.84368  1.0000
  S   S278      1.0  0.41351  0.20291  0.64503  1.0000
  H   H1674     1.0  0.38133  0.16071  0.93832  1.0000
  H   H1675     1.0  0.25127  0.01406  0.73194  1.0000
  C   C2097     1.0  0.23895  0.04849  0.87698  1.0000
  C   C2098     1.0  0.28336  0.33712  0.73905  1.0000
  H   H1676     1.0  0.30546  0.21750  0.95312  1.0000
  H   H1677     1.0  0.27933  0.43637  0.73803  1.0000
  H   H1678     1.0  0.26280  0.98137  0.67775  1.0000
  C   C2099     1.0  0.32263  0.12803  0.90304  1.0000
  H   H1679     1.0  0.25642  0.02804  0.94143  1.0000
  H   H1680     1.0  0.23905  0.02023  0.91970  1.0000
  C   C2100     1.0  0.33432  0.98214  0.69806  1.0000
  H   H1681     1.0  0.30292  0.25205  0.94148  1.0000
  H   H1682     1.0  0.25982  0.28457  0.92781  1.0000
  H   H1683     1.0  0.42753  0.99794  0.67260  1.0000
  Fe  Fe142     1.0  0.27309  0.11125  0.95404  1.0000
  H   H1684     1.0  0.30398  0.99679  0.73555  1.0000
  C   C2101     1.0  0.27223  0.43453  0.72729  1.0000
  C   C2102     1.0  0.47809  0.21192  0.69191  1.0000
  H   H1685     1.0  0.42509  0.18665  0.75859  1.0000
  C   C2103     1.0  0.43730  0.25516  0.90295  1.0000
  H   H1686     1.0  0.31167  0.45067  0.82967  1.0000
  C   C2104     1.0  0.23048  0.38677  0.89876  1.0000
  H   H1687     1.0  0.34135  0.45766  0.76709  1.0000
  C   C2105     1.0  0.35369  0.45199  0.77353  1.0000
  H   H1688     1.0  0.33554  0.18501  0.64321  1.0000
  C   C2106     1.0  0.43455  0.25137  0.92251  1.0000
  C   C2107     1.0  0.24009  0.06045  0.75074  1.0000
  C   C2108     1.0  0.44826  0.22071  0.83979  1.0000
  C   C2109     1.0  0.45773  0.22042  0.87442  1.0000
  H   H1689     1.0  0.27530  0.27375  0.95452  1.0000
  H   H1690     1.0  0.47967  0.24729  0.92872  1.0000
  H   H1691     1.0  0.24426  0.23751  0.89249  1.0000
  C   C2110     1.0  0.24236  0.18150  0.93408  1.0000
  C   C2111     1.0  0.23148  0.04073  0.95818  1.0000
  Fe  Fe143     1.0  0.23142  0.11950  0.95102  1.0000
  H   H1692     1.0  0.23431  0.99383  0.78327  1.0000
  C   C2112     1.0  0.23390  0.09507  0.83659  1.0000
  C   C2113     1.0  0.23797  0.44527  0.92794  1.0000
  C   C2114     1.0  0.40499  0.11875  0.63508  1.0000
  H   H1693     1.0  0.23098  0.28406  0.83598  1.0000
  H   H1694     1.0  0.23100  0.36410  0.85937  1.0000
  P   P69       1.0  0.25259  0.46829  0.87290  1.0000
  H   H1695     1.0  0.29217  0.46735  0.85442  1.0000
  C   C2115     1.0  0.27603  0.25871  0.95873  1.0000
  H   H1696     1.0  0.23061  0.10189  0.75388  1.0000
  H   H1697     1.0  0.34086  0.47019  0.70909  1.0000
  H   H1698     1.0  0.35494  0.97653  0.62961  1.0000
  C   C2116     1.0  0.23059  0.12264  0.85061  1.0000
  H   H1699     1.0  0.23092  0.17423  0.93447  1.0000
  Fe  Fe144     1.0  0.39225  0.19840  0.62928  1.0000
  Fe  Fe145     1.0  0.36189  0.49853  0.18859  1.0000
  S   S279      1.0  0.37405  0.52297  0.16911  1.0000
  S   S280      1.0  0.33143  0.50314  0.20141  1.0000
  H   H1700     1.0  0.30518  0.68769  0.00824  1.0000
  C   C2117     1.0  0.27647  0.71727  0.98030  1.0000
  C   C2118     1.0  0.24572  0.91846  0.01472  1.0000
  H   H1701     1.0  0.25892  0.63410  0.99693  1.0000
  H   H1702     1.0  0.27661  0.60146  0.00322  1.0000
  Fe  Fe146     1.0  0.37576  0.94752  0.21486  1.0000
  C   C2119     1.0  0.30432  0.57843  0.26780  1.0000
  S   S281      1.0  0.39451  0.92098  0.22667  1.0000
  S   S282      1.0  0.34855  0.94763  0.20599  1.0000
  Fe  Fe147     1.0  0.38226  0.78725  0.26377  1.0000
  Fe  Fe148     1.0  0.26282  0.95367  0.11357  1.0000
  C   C2120     1.0  0.31306  0.71868  0.29477  1.0000
  C   C2121     1.0  0.23593  0.59464  0.25002  1.0000
  S   S283      1.0  0.25270  0.89703  0.09154  1.0000
  H   H1703     1.0  0.45390  0.81538  0.27169  1.0000
  S   S284      1.0  0.27558  0.94314  0.08655  1.0000
  C   C2122     1.0  0.24893  0.89574  0.16995  1.0000
  Fe  Fe149     1.0  0.28132  0.61015  0.05363  1.0000
  S   S285      1.0  0.31138  0.61403  0.05001  1.0000
  S   S286      1.0  0.28138  0.57952  0.05188  1.0000
  Fe  Fe150     1.0  0.26783  0.65176  0.05788  1.0000
  S   S287      1.0  0.29712  0.65761  0.05531  1.0000
  S   S288      1.0  0.38427  0.97058  0.19120  1.0000
  Fe  Fe151     1.0  0.30366  0.64138  0.03148  1.0000
  S   S289      1.0  0.32409  0.64875  0.00470  1.0000
  Fe  Fe152     1.0  0.30215  0.62953  0.07414  1.0000
  S   S290      1.0  0.31794  0.61817  0.09860  1.0000
  S   S291      1.0  0.27424  0.63669  0.03310  1.0000
  S   S292      1.0  0.27228  0.62470  0.07864  1.0000
  Fe  Fe153     1.0  0.39508  0.62051  0.18161  1.0000
  S   S293      1.0  0.40632  0.62609  0.15075  1.0000
  S   S294      1.0  0.38780  0.59285  0.19922  1.0000
  Fe  Fe154     1.0  0.39308  0.66167  0.18569  1.0000
  S   S295      1.0  0.40374  0.67025  0.15506  1.0000
  S   S296      1.0  0.38229  0.68185  0.20653  1.0000
  Fe  Fe155     1.0  0.38450  0.65233  0.15019  1.0000
  S   S297      1.0  0.36634  0.66434  0.12774  1.0000
  Fe  Fe156     1.0  0.42469  0.64346  0.15827  1.0000
  S   S298      1.0  0.45526  0.64199  0.14372  1.0000
  S   S299      1.0  0.37209  0.64585  0.18056  1.0000
  S   S300      1.0  0.41517  0.63575  0.18934  1.0000
  S   S301      1.0  0.38716  0.79079  0.23241  1.0000
  Fe  Fe157     1.0  0.42363  0.78553  0.26447  1.0000
  S   S302      1.0  0.43147  0.78933  0.23312  1.0000
  H   H1704     1.0  0.33286  0.51855  0.27931  1.0000
  Fe  Fe158     1.0  0.40532  0.81145  0.23304  1.0000
  S   S303      1.0  0.40102  0.83810  0.21147  1.0000
  Fe  Fe159     1.0  0.41254  0.76835  0.23511  1.0000
  S   S304      1.0  0.42371  0.74572  0.21686  1.0000
  S   S305      1.0  0.39892  0.80928  0.26428  1.0000
  S   S306      1.0  0.40627  0.76314  0.26649  1.0000
  H   H1705     1.0  0.26710  0.93324  0.04410  1.0000
  C   C2123     1.0  0.39430  0.69928  0.20931  1.0000
  C   C2124     1.0  0.38576  0.71094  0.22256  1.0000
  C   C2125     1.0  0.39470  0.72500  0.22530  1.0000
  C   C2126     1.0  0.41233  0.72756  0.21474  1.0000
  C   C2127     1.0  0.42090  0.71589  0.20147  1.0000
  C   C2128     1.0  0.41191  0.70186  0.19870  1.0000
  H   H1706     1.0  0.37214  0.70903  0.23077  1.0000
  H   H1707     1.0  0.38796  0.73386  0.23555  1.0000
  H   H1708     1.0  0.43449  0.71779  0.19315  1.0000
  H   H1709     1.0  0.41864  0.69302  0.18842  1.0000
  S   S307      1.0  0.24303  0.76077  0.05850  1.0000
  C   C2129     1.0  0.25833  0.70412  0.06180  1.0000
  C   C2130     1.0  0.25835  0.72328  0.06128  1.0000
  H   H1710     1.0  0.27078  0.69388  0.06407  1.0000
  H   H1711     1.0  0.27089  0.72761  0.06314  1.0000
  C   C2131     1.0  0.31491  0.65697  0.98369  1.0000
  C   C2132     1.0  0.29553  0.66060  0.98394  1.0000
  C   C2133     1.0  0.32915  0.96815  0.15028  1.0000
  C   C2134     1.0  0.28462  0.60853  0.27132  1.0000
  H   H1712     1.0  0.28596  0.65834  0.99701  1.0000
  S   S308      1.0  0.25953  0.47198  0.07114  1.0000
  C   C2135     1.0  0.33070  0.63145  0.10704  1.0000
  C   C2136     1.0  0.34028  0.62290  0.12201  1.0000
  C   C2137     1.0  0.35134  0.63275  0.12848  1.0000
  C   C2138     1.0  0.35235  0.65145  0.12045  1.0000
  C   C2139     1.0  0.34212  0.66023  0.10607  1.0000
  C   C2140     1.0  0.33152  0.65022  0.09920  1.0000
  H   H1713     1.0  0.33930  0.60854  0.12849  1.0000
  H   H1714     1.0  0.35913  0.62593  0.13960  1.0000
  H   H1715     1.0  0.34263  0.67478  0.10000  1.0000
  H   H1716     1.0  0.32405  0.65702  0.08783  1.0000
  C   C2141     1.0  0.24037  0.65953  0.98858  1.0000
  S   S309      1.0  0.36004  0.47395  0.17579  1.0000
  C   C2142     1.0  0.47031  0.65486  0.14965  1.0000
  C   C2143     1.0  0.34765  0.55882  0.25133  1.0000
  C   C2144     1.0  0.32440  0.74827  0.28814  1.0000
  C   C2145     1.0  0.24754  0.78487  0.96385  1.0000
  H   H1717     1.0  0.44955  0.66694  0.17084  1.0000
  H   H1718     1.0  0.30961  0.48609  0.03723  1.0000
  H   H1719     1.0  0.30123  0.47363  0.24282  1.0000
  H   H1720     1.0  0.23778  0.66365  0.00221  1.0000
  Fe  Fe160     1.0  0.32983  0.47761  0.19022  1.0000
  H   H1721     1.0  0.46655  0.72940  0.18351  1.0000
  H   H1722     1.0  0.24520  0.51614  0.29303  1.0000
  C   C2146     1.0  0.39472  0.89806  0.22294  1.0000
  C   C2147     1.0  0.38887  0.89493  0.20726  1.0000
  C   C2148     1.0  0.39076  0.87647  0.20400  1.0000
  C   C2149     1.0  0.39796  0.86099  0.21665  1.0000
  C   C2150     1.0  0.40306  0.86410  0.23273  1.0000
  C   C2151     1.0  0.40173  0.88258  0.23569  1.0000
  H   H1723     1.0  0.38358  0.90674  0.19730  1.0000
  H   H1724     1.0  0.38685  0.87422  0.19149  1.0000
  H   H1725     1.0  0.40828  0.85232  0.24273  1.0000
  H   H1726     1.0  0.40622  0.88489  0.24788  1.0000
  C   C2152     1.0  0.43774  0.81586  0.17879  1.0000
  H   H1727     1.0  0.25820  0.78077  0.00720  1.0000
  C   C2153     1.0  0.29992  0.47190  0.15970  1.0000
  C   C2154     1.0  0.23714  0.60277  0.19821  1.0000
  H   H1728     1.0  0.32776  0.69860  0.27706  1.0000
  C   C2155     1.0  0.26517  0.56360  0.05944  1.0000
  C   C2156     1.0  0.24602  0.56943  0.06569  1.0000
  H   H1729     1.0  0.27872  0.51975  0.16096  1.0000
  H   H1730     1.0  0.25569  0.86557  0.17590  1.0000
  C   C2157     1.0  0.42141  0.49344  0.21641  1.0000
  H   H1731     1.0  0.33338  0.96860  0.06731  1.0000
  C   C2158     1.0  0.37875  0.54186  0.17769  1.0000
  C   C2159     1.0  0.38609  0.55663  0.16503  1.0000
  C   C2160     1.0  0.38903  0.57237  0.17130  1.0000
  C   C2161     1.0  0.38495  0.57325  0.19042  1.0000
  C   C2162     1.0  0.37824  0.55812  0.20310  1.0000
  C   C2163     1.0  0.37507  0.54254  0.19678  1.0000
  H   H1732     1.0  0.38954  0.55584  0.15034  1.0000
  H   H1733     1.0  0.39443  0.58380  0.16141  1.0000
  H   H1734     1.0  0.37530  0.55861  0.21787  1.0000
  H   H1735     1.0  0.36976  0.53107  0.20660  1.0000
  H   H1736     1.0  0.36315  0.50737  0.24299  1.0000
  H   H1737     1.0  0.35587  0.91703  0.24953  1.0000
  C   C2164     1.0  0.25264  0.49005  0.22436  1.0000
  H   H1738     1.0  0.24936  0.52659  0.11486  1.0000
  H   H1739     1.0  0.27625  0.62555  0.24610  1.0000
  H   H1740     1.0  0.26519  0.51631  0.06552  1.0000
  C   C2165     1.0  0.23090  0.57928  0.24525  1.0000
  H   H1741     1.0  0.36172  0.61137  0.07888  1.0000
  C   C2166     1.0  0.30573  0.48360  0.26652  1.0000
  H   H1742     1.0  0.43585  0.57713  0.03722  1.0000
  C   C2167     1.0  0.28840  0.66803  0.96732  1.0000
  C   C2168     1.0  0.23788  0.93592  0.00543  1.0000
  C   C2169     1.0  0.41122  0.62922  0.03099  1.0000
  H   H1743     1.0  0.30645  0.70768  0.97686  1.0000
  C   C2170     1.0  0.36394  0.54797  0.25732  1.0000
  C   C2171     1.0  0.25896  0.71599  0.99198  1.0000
  H   H1744     1.0  0.30363  0.53184  0.25780  1.0000
  C   C2172     1.0  0.24039  0.95222  0.24525  1.0000
  Fe  Fe161     1.0  0.33614  0.96916  0.22444  1.0000
  C   C2173     1.0  0.33466  0.93062  0.26942  1.0000
  H   H1745     1.0  0.23408  0.48784  0.15294  1.0000
  H   H1746     1.0  0.45686  0.74922  0.15387  1.0000
  H   H1747     1.0  0.44106  0.73704  0.28864  1.0000
  H   H1748     1.0  0.39274  0.83099  0.29373  1.0000
  C   C2174     1.0  0.24109  0.88665  0.07862  1.0000
  C   C2175     1.0  0.25106  0.95144  0.02411  1.0000
  H   H1749     1.0  0.24290  0.61668  0.13856  1.0000
  H   H1750     1.0  0.40999  0.89392  0.29038  1.0000
  H   H1751     1.0  0.38193  0.91667  0.26595  1.0000
  C   C2176     1.0  0.46604  0.80587  0.27612  1.0000
  H   H1752     1.0  0.24773  0.56664  0.16464  1.0000
  H   H1753     1.0  0.24202  0.91680  0.28284  1.0000
  C   C2177     1.0  0.42896  0.59167  0.03549  1.0000
  C   C2178     1.0  0.42140  0.62153  0.01544  1.0000
  H   H1754     1.0  0.34216  0.65764  0.96620  1.0000
  H   H1755     1.0  0.27367  0.80020  0.27223  1.0000
  C   C2179     1.0  0.45346  0.47476  0.24383  1.0000
  C   C2180     1.0  0.24321  0.75442  0.98248  1.0000
  H   H1756     1.0  0.47038  0.74568  0.26951  1.0000
  H   H1757     1.0  0.35652  0.82606  0.28951  1.0000
  C   C2181     1.0  0.31966  0.50795  0.04563  1.0000
  S   S310      1.0  0.35178  0.78793  0.27757  1.0000
  C   C2182     1.0  0.28963  0.64407  0.13350  1.0000
  H   H1758     1.0  0.40452  0.64384  0.02900  1.0000
  H   H1759     1.0  0.35005  0.71927  0.25851  1.0000
  C   C2183     1.0  0.24353  0.93398  0.25540  1.0000
  C   C2184     1.0  0.23290  0.72707  0.96359  1.0000
  C   C2185     1.0  0.24216  0.59180  0.10521  1.0000
  H   H1760     1.0  0.47562  0.70028  0.23938  1.0000
  C   C2186     1.0  0.29151  0.61213  0.97580  1.0000
  C   C2187     1.0  0.23751  0.56811  0.99222  1.0000
  C   C2188     1.0  0.46026  0.78688  0.18186  1.0000
  C   C2189     1.0  0.44584  0.77676  0.18333  1.0000
  C   C2190     1.0  0.42741  0.78607  0.18278  1.0000
  C   C2191     1.0  0.42335  0.80562  0.18049  1.0000
  C   C2192     1.0  0.24914  0.54498  0.28415  1.0000
  C   C2193     1.0  0.35686  0.85547  0.24761  1.0000
  H   H1761     1.0  0.29313  0.60246  0.22594  1.0000
  H   H1762     1.0  0.35553  0.82602  0.25649  1.0000
  C   C2194     1.0  0.33655  0.55100  0.24276  1.0000
  S   S311      1.0  0.30754  0.96424  0.24068  1.0000
  H   H1763     1.0  0.44323  0.82634  0.20954  1.0000
  H   H1764     1.0  0.42852  0.71032  0.28321  1.0000
  C   C2195     1.0  0.32253  0.60624  0.99408  1.0000
  H   H1765     1.0  0.32324  0.93070  0.26230  1.0000
  C   C2196     1.0  0.41604  0.48115  0.18502  1.0000
  H   H1766     1.0  0.25342  0.96410  0.02778  1.0000
  H   H1767     1.0  0.44878  0.76159  0.18556  1.0000
  H   H1768     1.0  0.41626  0.77804  0.18466  1.0000
  H   H1769     1.0  0.40897  0.81284  0.18061  1.0000
  C   C2197     1.0  0.29791  0.96008  0.16131  1.0000
  C   C2198     1.0  0.33811  0.74203  0.27365  1.0000
  H   H1770     1.0  0.34284  0.52313  0.12247  1.0000
  H   H1771     1.0  0.24360  0.90558  0.01126  1.0000
  H   H1772     1.0  0.42357  0.76329  0.15294  1.0000
  C   C2199     1.0  0.32432  0.61359  0.97499  1.0000
  C   C2200     1.0  0.25895  0.93399  0.03329  1.0000
  C   C2201     1.0  0.35857  0.85553  0.28500  1.0000
  C   C2202     1.0  0.36569  0.58943  0.10225  1.0000
  H   H1773     1.0  0.26228  0.49321  0.23200  1.0000
  H   H1774     1.0  0.36848  0.50306  0.13770  1.0000
  C   C2203     1.0  0.23198  0.67108  0.97400  1.0000
  C   C2204     1.0  0.36770  0.92272  0.27152  1.0000
  H   H1775     1.0  0.27735  0.61877  0.28009  1.0000
  H   H1776     1.0  0.23897  0.47283  0.24839  1.0000
  H   H1777     1.0  0.27385  0.62764  0.12436  1.0000
  H   H1778     1.0  0.31185  0.56523  0.27415  1.0000
  C   C2205     1.0  0.34240  0.53246  0.23962  1.0000
  H   H1779     1.0  0.26460  0.50503  0.19790  1.0000
  C   C2206     1.0  0.32676  0.71249  0.28017  1.0000
  C   C2207     1.0  0.46346  0.48074  0.25492  1.0000
  C   C2208     1.0  0.24074  0.53680  0.07261  1.0000
  H   H1780     1.0  0.35192  0.58586  0.10355  1.0000
  C   C2209     1.0  0.27886  0.52085  0.14615  1.0000
  C   C2210     1.0  0.43025  0.60276  0.01768  1.0000
  H   H1781     1.0  0.26142  0.61364  0.18212  1.0000
  C   C2211     1.0  0.45145  0.70354  0.26105  1.0000
  H   H1782     1.0  0.33853  0.97042  0.12051  1.0000
  C   C2212     1.0  0.28401  0.61233  0.25216  1.0000
  C   C2213     1.0  0.34219  0.48198  0.10904  1.0000
  S   S312      1.0  0.23686  0.47351  0.11424  1.0000
  S   S313      1.0  0.30277  0.48194  0.17844  1.0000
  H   H1783     1.0  0.26439  0.55042  0.99436  1.0000
  C   C2214     1.0  0.35761  0.87215  0.25320  1.0000
  C   C2215     1.0  0.23569  0.85814  0.07001  1.0000
  C   C2216     1.0  0.25389  0.77704  0.99554  1.0000
  H   H1784     1.0  0.35708  0.85534  0.23303  1.0000
  H   H1785     1.0  0.42133  0.76368  0.11415  1.0000
  C   C2217     1.0  0.33114  0.93913  0.28522  1.0000
  H   H1786     1.0  0.34410  0.57346  0.25283  1.0000
  C   C2218     1.0  0.37729  0.58016  0.11517  1.0000
  C   C2219     1.0  0.24886  0.75946  0.99743  1.0000
  H   H1787     1.0  0.28735  0.65578  0.12219  1.0000
  Fe  Fe162     1.0  0.25061  0.92840  0.09106  1.0000
  C   C2220     1.0  0.41705  0.65284  0.10300  1.0000
  C   C2221     1.0  0.43427  0.65668  0.09247  1.0000
  C   C2222     1.0  0.43990  0.65234  0.07445  1.0000
  C   C2223     1.0  0.42839  0.64393  0.06705  1.0000
  C   C2224     1.0  0.41125  0.63963  0.07778  1.0000
  C   C2225     1.0  0.40563  0.64428  0.09574  1.0000
  P   P70       1.0  0.39638  0.62821  0.06889  1.0000
  C   C2226     1.0  0.40969  0.61813  0.04893  1.0000
  C   C2227     1.0  0.38872  0.60951  0.08708  1.0000
  C   C2228     1.0  0.46501  0.78688  0.28279  1.0000
  H   H1788     1.0  0.24892  0.92222  0.24809  1.0000
  H   H1789     1.0  0.46882  0.71651  0.14840  1.0000
  C   C2229     1.0  0.39466  0.58543  0.11408  1.0000
  C   C2230     1.0  0.40041  0.59997  0.10006  1.0000
  C   C2231     1.0  0.41875  0.59931  0.05109  1.0000
  H   H1790     1.0  0.27447  0.68562  0.02916  1.0000
  H   H1791     1.0  0.35886  0.88521  0.27603  1.0000
  C   C2232     1.0  0.37656  0.64483  0.06131  1.0000
  C   C2233     1.0  0.37197  0.66286  0.06604  1.0000
  C   C2234     1.0  0.35700  0.67577  0.05948  1.0000
  C   C2235     1.0  0.34645  0.67075  0.04827  1.0000
  C   C2236     1.0  0.35094  0.65287  0.04349  1.0000
  C   C2237     1.0  0.36597  0.64000  0.04988  1.0000
  H   H1792     1.0  0.41258  0.65641  0.11687  1.0000
  H   H1793     1.0  0.44324  0.66295  0.09837  1.0000
  H   H1794     1.0  0.31579  0.96455  0.17912  1.0000
  H   H1795     1.0  0.43304  0.64069  0.05309  1.0000
  H   H1796     1.0  0.39244  0.64116  0.10421  1.0000
  S   S314      1.0  0.32787  0.48970  0.25580  1.0000
  H   H1797     1.0  0.33497  0.47563  0.10140  1.0000
  C   C2238     1.0  0.30729  0.49098  0.08226  1.0000
  H   H1798     1.0  0.40363  0.57841  0.12423  1.0000
  H   H1799     1.0  0.41395  0.60381  0.09946  1.0000
  H   H1800     1.0  0.41797  0.59049  0.06475  1.0000
  C   C2239     1.0  0.24218  0.69827  0.05963  1.0000
  H   H1801     1.0  0.37971  0.66701  0.07494  1.0000
  H   H1802     1.0  0.35340  0.68958  0.06333  1.0000
  H   H1803     1.0  0.33473  0.68067  0.04333  1.0000
  H   H1804     1.0  0.34277  0.64900  0.03479  1.0000
  H   H1805     1.0  0.36932  0.62627  0.04585  1.0000
  C   C2240     1.0  0.27245  0.54901  0.21933  1.0000
  C   C2241     1.0  0.26897  0.53367  0.23337  1.0000
  C   C2242     1.0  0.28027  0.52758  0.24715  1.0000
  C   C2243     1.0  0.29511  0.53677  0.24692  1.0000
  C   C2244     1.0  0.29886  0.55206  0.23274  1.0000
  C   C2245     1.0  0.28720  0.55833  0.21912  1.0000
  P   P71       1.0  0.31637  0.56544  0.23379  1.0000
  C   C2246     1.0  0.32605  0.57650  0.21072  1.0000
  C   C2247     1.0  0.33222  0.59376  0.20816  1.0000
  C   C2248     1.0  0.34072  0.60178  0.19046  1.0000
  C   C2249     1.0  0.34346  0.59249  0.17529  1.0000
  C   C2250     1.0  0.33787  0.57508  0.17785  1.0000
  C   C2251     1.0  0.32927  0.56703  0.19550  1.0000
  H   H1806     1.0  0.26359  0.55378  0.20875  1.0000
  H   H1807     1.0  0.25750  0.52649  0.23365  1.0000
  H   H1808     1.0  0.27753  0.51570  0.25807  1.0000
  H   H1809     1.0  0.28943  0.57047  0.20840  1.0000
  H   H1810     1.0  0.33461  0.52637  0.23225  1.0000
  H   H1811     1.0  0.33120  0.60071  0.21990  1.0000
  H   H1812     1.0  0.34616  0.61471  0.18868  1.0000
  H   H1813     1.0  0.35082  0.59831  0.16179  1.0000
  H   H1814     1.0  0.34121  0.56737  0.16638  1.0000
  H   H1815     1.0  0.32592  0.55310  0.19736  1.0000
  C   C2252     1.0  0.36630  0.47828  0.12789  1.0000
  H   H1816     1.0  0.37262  0.55421  0.26357  1.0000
  C   C2253     1.0  0.31578  0.50691  0.07918  1.0000
  C   C2254     1.0  0.32199  0.51537  0.06072  1.0000
  P   P72       1.0  0.31867  0.51613  0.09892  1.0000
  C   C2255     1.0  0.29657  0.51843  0.11498  1.0000
  C   C2256     1.0  0.33706  0.50108  0.11051  1.0000
  H   H1817     1.0  0.25678  0.80351  0.97752  1.0000
  H   H1818     1.0  0.27070  0.48433  0.16181  1.0000
  C   C2257     1.0  0.24206  0.49187  0.19514  1.0000
  C   C2258     1.0  0.46815  0.70844  0.25005  1.0000
  C   C2259     1.0  0.34661  0.50853  0.12100  1.0000
  C   C2260     1.0  0.29610  0.51798  0.13406  1.0000
  C   C2261     1.0  0.32721  0.96749  0.13195  1.0000
  S   S315      1.0  0.36280  0.96733  0.23523  1.0000
  C   C2262     1.0  0.26234  0.52438  0.12034  1.0000
  C   C2263     1.0  0.27955  0.52169  0.10825  1.0000
  C   C2264     1.0  0.32471  0.53927  0.09084  1.0000
  C   C2265     1.0  0.34359  0.54150  0.08457  1.0000
  C   C2266     1.0  0.34822  0.55946  0.07862  1.0000
  C   C2267     1.0  0.33405  0.57526  0.07875  1.0000
  C   C2268     1.0  0.31525  0.57312  0.08465  1.0000
  C   C2269     1.0  0.31057  0.55521  0.09038  1.0000
  C   C2270     1.0  0.25247  0.64276  0.98551  1.0000
  H   H1819     1.0  0.45322  0.65542  0.06627  1.0000
  H   H1820     1.0  0.32833  0.52785  0.05785  1.0000
  C   C2271     1.0  0.33931  0.72413  0.26967  1.0000
  C   C2272     1.0  0.25625  0.91750  0.02863  1.0000
  H   H1821     1.0  0.42285  0.49855  0.22859  1.0000
  H   H1822     1.0  0.39199  0.87106  0.28595  1.0000
  C   C2273     1.0  0.45842  0.47732  0.27441  1.0000
  H   H1823     1.0  0.30898  0.51495  0.13975  1.0000
  C   C2274     1.0  0.46366  0.85308  0.12850  1.0000
  H   H1824     1.0  0.25545  0.57299  0.27866  1.0000
  C   C2275     1.0  0.26198  0.52396  0.13932  1.0000
  H   H1825     1.0  0.27958  0.52213  0.09362  1.0000
  H   H1826     1.0  0.35470  0.52937  0.08415  1.0000
  H   H1827     1.0  0.36278  0.56117  0.07383  1.0000
  H   H1828     1.0  0.33758  0.58921  0.07416  1.0000
  H   H1829     1.0  0.30422  0.58537  0.08445  1.0000
  H   H1830     1.0  0.29589  0.55389  0.09410  1.0000
  C   C2276     1.0  0.30501  0.62918  0.15992  1.0000
  C   C2277     1.0  0.30116  0.64468  0.14602  1.0000
  C   C2278     1.0  0.47479  0.72412  0.25241  1.0000
  C   C2279     1.0  0.28192  0.62798  0.13484  1.0000
  C   C2280     1.0  0.28552  0.61240  0.14892  1.0000
  C   C2281     1.0  0.29727  0.61308  0.16137  1.0000
  P   P73       1.0  0.27536  0.59155  0.15142  1.0000
  C   C2282     1.0  0.25698  0.58982  0.17176  1.0000
  C   C2283     1.0  0.26344  0.59227  0.13229  1.0000
  C   C2284     1.0  0.25805  0.57808  0.10757  1.0000
  C   C2285     1.0  0.26867  0.57825  0.12109  1.0000
  S   S316      1.0  0.44404  0.77793  0.28502  1.0000
  C   C2286     1.0  0.30424  0.58241  0.24845  1.0000
  H   H1831     1.0  0.38232  0.52113  0.25866  1.0000
  C   C2287     1.0  0.24553  0.87755  0.17122  1.0000
  H   H1832     1.0  0.24543  0.70394  0.01951  1.0000
  C   C2288     1.0  0.29434  0.57173  0.15244  1.0000
  C   C2289     1.0  0.31089  0.57228  0.13909  1.0000
  C   C2290     1.0  0.32582  0.55714  0.13985  1.0000
  C   C2291     1.0  0.32441  0.54147  0.15404  1.0000
  C   C2292     1.0  0.30786  0.54072  0.16716  1.0000
  C   C2293     1.0  0.29288  0.55578  0.16640  1.0000
  H   H1833     1.0  0.31442  0.62954  0.16922  1.0000
  H   H1834     1.0  0.47044  0.68630  0.17725  1.0000
  H   H1835     1.0  0.46571  0.72969  0.21658  1.0000
  C   C2294     1.0  0.24735  0.60591  0.12989  1.0000
  H   H1836     1.0  0.30062  0.60108  0.17205  1.0000
  H   H1837     1.0  0.26215  0.56736  0.09881  1.0000
  H   H1838     1.0  0.28074  0.56731  0.12284  1.0000
  S   S317      1.0  0.37082  0.48047  0.21480  1.0000
  C   C2295     1.0  0.45629  0.80656  0.17965  1.0000
  C   C2296     1.0  0.29305  0.70700  0.98610  1.0000
  C   C2297     1.0  0.25975  0.53105  0.06567  1.0000
  S   S318      1.0  0.24143  0.67417  0.06054  1.0000
  H   H1839     1.0  0.31225  0.58443  0.12809  1.0000
  H   H1840     1.0  0.33859  0.55768  0.12956  1.0000
  H   H1841     1.0  0.33612  0.52987  0.15494  1.0000
  H   H1842     1.0  0.30662  0.52833  0.17783  1.0000
  H   H1843     1.0  0.28027  0.55482  0.17667  1.0000
  C   C2298     1.0  0.27504  0.69443  0.01550  1.0000
  C   C2299     1.0  0.47278  0.82824  0.19970  1.0000
  H   H1844     1.0  0.30773  0.65689  0.14444  1.0000
  H   H1845     1.0  0.44732  0.69803  0.14167  1.0000
  H   H1846     1.0  0.28659  0.53975  0.05407  1.0000
  H   H1847     1.0  0.26178  0.89789  0.17343  1.0000
  C   C2300     1.0  0.37130  0.60408  0.08828  1.0000
  H   H1848     1.0  0.27476  0.95921  0.26829  1.0000
  C   C2301     1.0  0.25315  0.78979  0.97880  1.0000
  H   H1849     1.0  0.24370  0.49657  0.18019  1.0000
  C   C2302     1.0  0.35626  0.83896  0.26078  1.0000
  C   C2303     1.0  0.35699  0.83899  0.27947  1.0000
  C   C2304     1.0  0.35874  0.52167  0.24556  1.0000
  H   H1850     1.0  0.41416  0.71172  0.14062  1.0000
  C   C2305     1.0  0.27187  0.54439  0.05918  1.0000
  C   C2306     1.0  0.36948  0.52939  0.25444  1.0000
  C   C2307     1.0  0.47871  0.73106  0.20688  1.0000
  C   C2308     1.0  0.47894  0.73149  0.18792  1.0000
  C   C2309     1.0  0.25844  0.70465  0.00975  1.0000
  H   H1851     1.0  0.34792  0.75107  0.26567  1.0000
  C   C2310     1.0  0.29809  0.48662  0.28487  1.0000
  C   C2311     1.0  0.46385  0.66626  0.16332  1.0000
  C   C2312     1.0  0.28948  0.90403  0.13542  1.0000
  C   C2313     1.0  0.28573  0.88619  0.13584  1.0000
  C   C2314     1.0  0.29299  0.87094  0.14851  1.0000
  C   C2315     1.0  0.30399  0.87354  0.16075  1.0000
  C   C2316     1.0  0.30795  0.89146  0.16027  1.0000
  C   C2317     1.0  0.30057  0.90664  0.14750  1.0000
  P   P74       1.0  0.32287  0.89512  0.17529  1.0000
  C   C2318     1.0  0.33437  0.87279  0.18638  1.0000
  C   C2319     1.0  0.34080  0.90814  0.16138  1.0000
  C   C2320     1.0  0.35065  0.91725  0.17002  1.0000
  C   C2321     1.0  0.36436  0.92745  0.15934  1.0000
  C   C2322     1.0  0.36831  0.92876  0.13993  1.0000
  C   C2323     1.0  0.35894  0.91938  0.13121  1.0000
  C   C2324     1.0  0.34541  0.90891  0.14188  1.0000
  C   C2325     1.0  0.32474  0.86270  0.20244  1.0000
  C   C2326     1.0  0.33372  0.84561  0.21136  1.0000
  C   C2327     1.0  0.35235  0.83850  0.20431  1.0000
  C   C2328     1.0  0.36189  0.84829  0.18817  1.0000
  C   C2329     1.0  0.35296  0.86536  0.17919  1.0000
  C   C2330     1.0  0.30954  0.90802  0.19345  1.0000
  C   C2331     1.0  0.29192  0.91922  0.19154  1.0000
  C   C2332     1.0  0.28244  0.93012  0.20509  1.0000
  C   C2333     1.0  0.29049  0.93005  0.22057  1.0000
  C   C2334     1.0  0.30781  0.91869  0.22278  1.0000
  C   C2335     1.0  0.31721  0.90759  0.20941  1.0000
  H   H1852     1.0  0.28378  0.91591  0.12569  1.0000
  H   H1853     1.0  0.27712  0.88427  0.12638  1.0000
  H   H1854     1.0  0.29010  0.85710  0.14877  1.0000
  H   H1855     1.0  0.30953  0.86151  0.17033  1.0000
  H   H1856     1.0  0.30362  0.92051  0.14674  1.0000
  H   H1857     1.0  0.34777  0.91674  0.18496  1.0000
  H   H1858     1.0  0.37149  0.93493  0.16607  1.0000
  H   H1859     1.0  0.37843  0.93731  0.13169  1.0000
  H   H1860     1.0  0.36200  0.92043  0.11614  1.0000
  H   H1861     1.0  0.33853  0.90161  0.13479  1.0000
  H   H1862     1.0  0.31038  0.86816  0.20819  1.0000
  H   H1863     1.0  0.32642  0.83806  0.22400  1.0000
  H   H1864     1.0  0.35960  0.82567  0.21163  1.0000
  H   H1865     1.0  0.37646  0.84292  0.18297  1.0000
  H   H1866     1.0  0.36075  0.87282  0.16687  1.0000
  H   H1867     1.0  0.28564  0.92013  0.17937  1.0000
  H   H1868     1.0  0.26914  0.93917  0.20320  1.0000
  H   H1869     1.0  0.28355  0.93905  0.23069  1.0000
  H   H1870     1.0  0.31417  0.91895  0.23462  1.0000
  H   H1871     1.0  0.33077  0.89910  0.21129  1.0000
  H   H1872     1.0  0.46945  0.76633  0.23683  1.0000
  H   H1873     1.0  0.46036  0.85112  0.11554  1.0000
  S   S319      1.0  0.23943  0.93691  0.11907  1.0000
  C   C2336     1.0  0.31143  0.49189  0.04888  1.0000
  C   C2337     1.0  0.24017  0.95256  0.01036  1.0000
  C   C2338     1.0  0.30543  0.48332  0.06720  1.0000
  C   C2339     1.0  0.44160  0.71392  0.27486  1.0000
  H   H1874     1.0  0.23819  0.84300  0.07155  1.0000
  C   C2340     1.0  0.29480  0.59159  0.27912  1.0000
  C   C2341     1.0  0.25383  0.49682  0.20518  1.0000
  H   H1875     1.0  0.29541  0.58872  0.29394  1.0000
  P   P75       1.0  0.23804  0.73116  0.98507  1.0000
  Fe  Fe163     1.0  0.25684  0.96854  0.07302  1.0000
  C   C2342     1.0  0.29234  0.69570  0.00377  1.0000
  C   C2343     1.0  0.35833  0.87222  0.27187  1.0000
  C   C2344     1.0  0.36121  0.49722  0.12956  1.0000
  S   S320      1.0  0.27488  0.95320  0.13981  1.0000
  C   C2345     1.0  0.24512  0.57654  0.17420  1.0000
  C   C2346     1.0  0.28012  0.48255  0.29339  1.0000
  C   C2347     1.0  0.36035  0.70844  0.16887  1.0000
  C   C2348     1.0  0.35783  0.70182  0.15342  1.0000
  C   C2349     1.0  0.36571  0.70962  0.13541  1.0000
  C   C2350     1.0  0.37611  0.72402  0.13282  1.0000
  C   C2351     1.0  0.37829  0.73114  0.14824  1.0000
  C   C2352     1.0  0.37062  0.72295  0.16635  1.0000
  P   P76       1.0  0.39234  0.74933  0.14474  1.0000
  C   C2353     1.0  0.39136  0.76324  0.12168  1.0000
  C   C2354     1.0  0.38332  0.76418  0.16228  1.0000
  C   C2355     1.0  0.37283  0.78223  0.15799  1.0000
  C   C2356     1.0  0.36594  0.79338  0.17187  1.0000
  C   C2357     1.0  0.36942  0.78658  0.19009  1.0000
  C   C2358     1.0  0.37993  0.76873  0.19440  1.0000
  C   C2359     1.0  0.38697  0.75766  0.18053  1.0000
  C   C2360     1.0  0.37403  0.76906  0.11537  1.0000
  C   C2361     1.0  0.37312  0.77957  0.09746  1.0000
  C   C2362     1.0  0.38950  0.78434  0.08571  1.0000
  C   C2363     1.0  0.40679  0.77860  0.09187  1.0000
  C   C2364     1.0  0.40775  0.76809  0.10978  1.0000
  C   C2365     1.0  0.41634  0.73860  0.14670  1.0000
  C   C2366     1.0  0.42323  0.72013  0.14358  1.0000
  C   C2367     1.0  0.44208  0.71227  0.14417  1.0000
  C   C2368     1.0  0.45419  0.72271  0.14793  1.0000
  C   C2369     1.0  0.44743  0.74110  0.15108  1.0000
  C   C2370     1.0  0.42856  0.74901  0.15055  1.0000
  H   H1876     1.0  0.35476  0.70195  0.18289  1.0000
  H   H1877     1.0  0.35021  0.69029  0.15542  1.0000
  H   H1878     1.0  0.36413  0.70414  0.12347  1.0000
  H   H1879     1.0  0.38266  0.72932  0.11877  1.0000
  H   H1880     1.0  0.37278  0.72733  0.17863  1.0000
  H   H1881     1.0  0.36991  0.78783  0.14404  1.0000
  H   H1882     1.0  0.35784  0.80727  0.16853  1.0000
  H   H1883     1.0  0.36400  0.79509  0.20090  1.0000
  H   H1884     1.0  0.38282  0.76346  0.20847  1.0000
  H   H1885     1.0  0.39523  0.74392  0.18407  1.0000
  H   H1886     1.0  0.36122  0.76538  0.12429  1.0000
  H   H1887     1.0  0.35972  0.78392  0.09264  1.0000
  H   H1888     1.0  0.38880  0.79239  0.07179  1.0000
  H   H1889     1.0  0.41951  0.78219  0.08271  1.0000
  C   C2371     1.0  0.28985  0.60483  0.99506  1.0000
  H   H1890     1.0  0.26218  0.90396  0.03594  1.0000
  H   H1891     1.0  0.44113  0.83828  0.23842  1.0000
  H   H1892     1.0  0.41323  0.51026  0.17196  1.0000
  H   H1893     1.0  0.30219  0.48439  0.09637  1.0000
  H   H1894     1.0  0.24867  0.52559  0.14875  1.0000
  C   C2372     1.0  0.24232  0.73688  0.05844  1.0000
  C   C2373     1.0  0.25291  0.60289  0.18395  1.0000
  H   H1895     1.0  0.47524  0.48787  0.24840  1.0000
  C   C2374     1.0  0.46521  0.73401  0.26680  1.0000
  H   H1896     1.0  0.32379  0.76215  0.29110  1.0000
  H   H1897     1.0  0.27340  0.67161  0.96774  1.0000
  H   H1898     1.0  0.24196  0.54718  0.27239  1.0000
  C   C2375     1.0  0.30533  0.60182  0.00408  1.0000
  H   H1899     1.0  0.30391  0.59628  0.01891  1.0000
  H   H1900     1.0  0.32414  0.51471  0.03143  1.0000
  C   C2376     1.0  0.29370  0.59929  0.24077  1.0000
  C   C2377     1.0  0.45434  0.83703  0.22873  1.0000
  H   H1901     1.0  0.35812  0.88490  0.24293  1.0000
  C   C2378     1.0  0.23363  0.96759  0.25462  1.0000
  H   H1902     1.0  0.39643  0.48034  0.26044  1.0000
  C   C2379     1.0  0.25815  0.59684  0.97461  1.0000
  H   H1903     1.0  0.24055  0.58423  0.06510  1.0000
  H   H1904     1.0  0.29073  0.76836  0.28128  1.0000
  H   H1905     1.0  0.25235  0.85845  0.09066  1.0000
  C   C2380     1.0  0.23841  0.60043  0.97718  1.0000
  H   H1906     1.0  0.33750  0.61761  0.96740  1.0000
  C   C2381     1.0  0.25669  0.55946  0.28773  1.0000
  C   C2382     1.0  0.28289  0.77605  0.29214  1.0000
  H   H1907     1.0  0.43810  0.59682  0.00559  1.0000
  C   C2383     1.0  0.28220  0.47582  0.15427  1.0000
  H   H1908     1.0  0.41734  0.52128  0.19989  1.0000
  C   C2384     1.0  0.45566  0.83010  0.21228  1.0000
  H   H1909     1.0  0.42238  0.63015  0.00163  1.0000
  H   H1910     1.0  0.37266  0.56909  0.12616  1.0000
  H   H1911     1.0  0.43424  0.83102  0.17743  1.0000
  C   C2385     1.0  0.41579  0.50020  0.18446  1.0000
  C   C2386     1.0  0.29592  0.95936  0.14305  1.0000
  C   C2387     1.0  0.41822  0.50639  0.20021  1.0000
  H   H1912     1.0  0.44602  0.69185  0.25869  1.0000
  C   C2388     1.0  0.35298  0.92279  0.26232  1.0000
  H   H1913     1.0  0.28646  0.95758  0.17271  1.0000
  C   C2389     1.0  0.36423  0.93099  0.28746  1.0000
  H   H1914     1.0  0.28268  0.57546  0.97850  1.0000
  Fe  Fe164     1.0  0.33981  0.48309  0.22657  1.0000
  C   C2390     1.0  0.24371  0.86695  0.08083  1.0000
  C   C2391     1.0  0.44861  0.72900  0.27787  1.0000
  C   C2392     1.0  0.47191  0.85820  0.16205  1.0000
  H   H1915     1.0  0.33430  0.60455  0.00126  1.0000
  H   H1916     1.0  0.23380  0.61320  0.20726  1.0000
  C   C2393     1.0  0.31446  0.96421  0.16496  1.0000
  C   C2394     1.0  0.29544  0.47619  0.25688  1.0000
  C   C2395     1.0  0.31070  0.96304  0.12834  1.0000
  H   H1917     1.0  0.24888  0.59951  0.24288  1.0000
  C   C2396     1.0  0.24256  0.76724  0.96564  1.0000
  C   C2397     1.0  0.26746  0.57860  0.98051  1.0000
  C   C2398     1.0  0.23267  0.94608  0.28436  1.0000
  H   H1918     1.0  0.30615  0.49191  0.29258  1.0000
  C   C2399     1.0  0.42236  0.47417  0.21683  1.0000
  H   H1919     1.0  0.24939  0.74979  0.01059  1.0000
  C   C2400     1.0  0.46686  0.83765  0.14270  1.0000
  Fe  Fe165     1.0  0.23325  0.48847  0.08520  1.0000
  C   C2401     1.0  0.27300  0.79408  0.28690  1.0000
  C   C2402     1.0  0.23966  0.93091  0.27495  1.0000
  H   H1920     1.0  0.37596  0.93108  0.29395  1.0000
  C   C2403     1.0  0.25715  0.56435  0.98941  1.0000
  H   H1921     1.0  0.27734  0.72634  0.96675  1.0000
  H   H1922     1.0  0.31694  0.94594  0.28997  1.0000
  C   C2404     1.0  0.46453  0.87106  0.13107  1.0000
  H   H1923     1.0  0.24001  0.57215  0.23452  1.0000
  H   H1924     1.0  0.46595  0.82382  0.14058  1.0000
  H   H1925     1.0  0.30945  0.96241  0.11424  1.0000
  S   S321      1.0  0.23295  0.95285  0.07557  1.0000
  C   C2405     1.0  0.32957  0.51912  0.29413  1.0000
  H   H1926     1.0  0.23841  0.92534  0.16296  1.0000
  C   C2406     1.0  0.28136  0.96941  0.27193  1.0000
  C   C2407     1.0  0.23577  0.91121  0.16404  1.0000
  P   P77       1.0  0.27152  0.61548  0.96411  1.0000
  C   C2408     1.0  0.27757  0.47201  0.26546  1.0000
  C   C2409     1.0  0.46997  0.84235  0.23269  1.0000
  H   H1927     1.0  0.24323  0.95433  0.23011  1.0000
  H   H1928     1.0  0.23088  0.61428  0.97255  1.0000
  H   H1929     1.0  0.36322  0.47775  0.27407  1.0000
  C   C2410     1.0  0.32713  0.66033  0.96650  1.0000
  C   C2411     1.0  0.34594  0.93948  0.29431  1.0000
  H   H1930     1.0  0.23398  0.59174  0.09471  1.0000
  H   H1931     1.0  0.46881  0.84785  0.24540  1.0000
  H   H1932     1.0  0.30087  0.53137  0.29311  1.0000
  C   C2412     1.0  0.23392  0.55608  0.07241  1.0000
  H   H1933     1.0  0.45776  0.47717  0.22876  1.0000
  C   C2413     1.0  0.23686  0.60576  0.11629  1.0000
  H   H1934     1.0  0.46907  0.88759  0.14992  1.0000
  H   H1935     1.0  0.26552  0.47218  0.13509  1.0000
  C   C2414     1.0  0.23966  0.47837  0.23354  1.0000
  C   C2415     1.0  0.30889  0.61660  0.96588  1.0000
  H   H1936     1.0  0.46190  0.88304  0.12012  1.0000
  C   C2416     1.0  0.26966  0.47553  0.28357  1.0000
  C   C2417     1.0  0.46863  0.87361  0.14783  1.0000
  C   C2418     1.0  0.47109  0.84007  0.15957  1.0000
  C   C2419     1.0  0.47575  0.67721  0.16693  1.0000
  H   H1937     1.0  0.41341  0.47646  0.17305  1.0000
  P   P78       1.0  0.47457  0.82003  0.17798  1.0000
  H   H1938     1.0  0.47301  0.79839  0.23822  1.0000
  H   H1939     1.0  0.47430  0.77919  0.18275  1.0000
  H   H1940     1.0  0.46626  0.48185  0.28299  1.0000
  C   C2420     1.0  0.25637  0.63748  0.96778  1.0000
  H   H1941     1.0  0.47993  0.76015  0.29448  1.0000
  H   H1942     1.0  0.47479  0.86063  0.17497  1.0000
  S   S322      1.0  0.24672  0.47095  0.29322  1.0000
  C   C2421     1.0  0.37775  0.95313  0.31732  1.0000
  C   C2422     1.0  0.24075  0.67108  0.46771  1.0000
  H   H1943     1.0  0.23805  0.87322  0.42693  1.0000
  C   C2423     1.0  0.30737  0.83161  0.48861  1.0000
  H   H1944     1.0  0.40980  0.80924  0.57783  1.0000
  H   H1945     1.0  0.41945  0.78876  0.61047  1.0000
  H   H1946     1.0  0.23663  0.62256  0.62162  1.0000
  Fe  Fe166     1.0  0.46015  0.75922  0.58843  1.0000
  S   S323      1.0  0.43954  0.76989  0.56804  1.0000
  H   H1947     1.0  0.30532  0.83213  0.53475  1.0000
  C   C2424     1.0  0.25927  0.73439  0.32287  1.0000
  C   C2425     1.0  0.37711  0.89466  0.33006  1.0000
  Fe  Fe167     1.0  0.26014  0.82683  0.37683  1.0000
  S   S324      1.0  0.28419  0.82192  0.39257  1.0000
  S   S325      1.0  0.24846  0.85371  0.35854  1.0000
  Fe  Fe168     1.0  0.25816  0.78438  0.38314  1.0000
  S   S326      1.0  0.28211  0.77642  0.39927  1.0000
  C   C2426     1.0  0.34418  0.86565  0.58967  1.0000
  Fe  Fe169     1.0  0.26839  0.80118  0.41340  1.0000
  S   S327      1.0  0.26175  0.79911  0.44514  1.0000
  Fe  Fe170     1.0  0.29603  0.79763  0.37717  1.0000
  S   S328      1.0  0.32695  0.79212  0.36421  1.0000
  C   C2427     1.0  0.39629  0.80255  0.33560  1.0000
  S   S329      1.0  0.27311  0.80386  0.36022  1.0000
  Fe  Fe171     1.0  0.31668  0.77848  0.52941  1.0000
  S   S330      1.0  0.32224  0.74883  0.54466  1.0000
  S   S331      1.0  0.32355  0.78403  0.49757  1.0000
  Fe  Fe172     1.0  0.30444  0.79397  0.56581  1.0000
  S   S332      1.0  0.30832  0.76537  0.58377  1.0000
  S   S333      1.0  0.29503  0.82167  0.57654  1.0000
  Fe  Fe173     1.0  0.33556  0.76005  0.56375  1.0000
  S   S334      1.0  0.36126  0.74274  0.57558  1.0000
  Fe  Fe174     1.0  0.29462  0.75642  0.56333  1.0000
  S   S335      1.0  0.27670  0.73331  0.57099  1.0000
  S   S336      1.0  0.33244  0.78919  0.54689  1.0000
  S   S337      1.0  0.28830  0.78556  0.54691  1.0000
  H   H1948     1.0  0.29746  0.89478  0.32511  1.0000
  C   C2428     1.0  0.25301  0.73582  0.56815  1.0000
  C   C2429     1.0  0.24090  0.75309  0.56782  1.0000
  H   H1949     1.0  0.24604  0.76525  0.56937  1.0000
  P   P79       1.0  0.35947  0.85565  0.30906  1.0000
  H   H1950     1.0  0.30304  0.85975  0.62051  1.0000
  C   C2430     1.0  0.31438  0.81032  0.60635  1.0000
  C   C2431     1.0  0.30358  0.82506  0.59602  1.0000
  C   C2432     1.0  0.40042  0.80949  0.31646  1.0000
  H   H1951     1.0  0.31762  0.79654  0.60249  1.0000
  H   H1952     1.0  0.44856  0.77087  0.51660  1.0000
  C   C2433     1.0  0.23649  0.59437  0.61875  1.0000
  H   H1953     1.0  0.27395  0.92899  0.35710  1.0000
  C   C2434     1.0  0.26232  0.56512  0.34740  1.0000
  C   C2435     1.0  0.25140  0.71019  0.39551  1.0000
  C   C2436     1.0  0.25273  0.72944  0.39095  1.0000
  H   H1954     1.0  0.33304  0.91623  0.33566  1.0000
  C   C2437     1.0  0.34516  0.78930  0.30159  1.0000
  H   H1955     1.0  0.26215  0.70034  0.40207  1.0000
  H   H1956     1.0  0.26442  0.73432  0.39394  1.0000
  C   C2438     1.0  0.27919  0.79518  0.45938  1.0000
  C   C2439     1.0  0.29839  0.79291  0.45182  1.0000
  C   C2440     1.0  0.31184  0.78940  0.46368  1.0000
  C   C2441     1.0  0.30624  0.78828  0.48314  1.0000
  C   C2442     1.0  0.28707  0.79085  0.49063  1.0000
  C   C2443     1.0  0.27362  0.79401  0.47885  1.0000
  H   H1957     1.0  0.30286  0.79374  0.43687  1.0000
  H   H1958     1.0  0.32666  0.78759  0.45775  1.0000
  H   H1959     1.0  0.28269  0.79060  0.50548  1.0000
  H   H1960     1.0  0.25882  0.79561  0.48488  1.0000
  C   C2444     1.0  0.23801  0.83002  0.51245  1.0000
  C   C2445     1.0  0.35855  0.78625  0.31322  1.0000
  C   C2446     1.0  0.35274  0.78695  0.33241  1.0000
  C   C2447     1.0  0.33358  0.79102  0.34006  1.0000
  C   C2448     1.0  0.32023  0.79415  0.32834  1.0000
  C   C2449     1.0  0.32599  0.79323  0.30921  1.0000
  C   C2450     1.0  0.25317  0.88192  0.51404  1.0000
  H   H1961     1.0  0.36311  0.78408  0.34143  1.0000
  H   H1962     1.0  0.30547  0.79716  0.33395  1.0000
  C   C2451     1.0  0.24018  0.88215  0.45220  1.0000
  C   C2452     1.0  0.46482  0.74278  0.51651  1.0000
  C   C2453     1.0  0.30368  0.92066  0.34768  1.0000
  C   C2454     1.0  0.41763  0.76239  0.57092  1.0000
  C   C2455     1.0  0.41487  0.74441  0.58025  1.0000
  C   C2456     1.0  0.39750  0.73867  0.58161  1.0000
  C   C2457     1.0  0.38273  0.75081  0.57369  1.0000
  C   C2458     1.0  0.38549  0.76880  0.56438  1.0000
  C   C2459     1.0  0.40290  0.77451  0.56294  1.0000
  H   H1963     1.0  0.42617  0.73486  0.58623  1.0000
  H   H1964     1.0  0.39551  0.72471  0.58877  1.0000
  H   H1965     1.0  0.37425  0.77826  0.55821  1.0000
  H   H1966     1.0  0.40496  0.78837  0.55554  1.0000
  C   C2460     1.0  0.24569  0.87621  0.36444  1.0000
  H   H1967     1.0  0.27204  0.68785  0.35677  1.0000
  C   C2461     1.0  0.23968  0.91260  0.37330  1.0000
  S   S338      1.0  0.23630  0.67897  0.39586  1.0000
  C   C2462     1.0  0.24210  0.67932  0.48262  1.0000
  H   H1968     1.0  0.35752  0.83440  0.34760  1.0000
  C   C2463     1.0  0.26117  0.79616  0.31946  1.0000
  C   C2464     1.0  0.34336  0.51195  0.30531  1.0000
  C   C2465     1.0  0.32617  0.84422  0.32924  1.0000
  C   C2466     1.0  0.24598  0.71988  0.56701  1.0000
  C   C2467     1.0  0.32016  0.92640  0.33696  1.0000
  C   C2468     1.0  0.26389  0.48469  0.37729  1.0000
  C   C2469     1.0  0.23912  0.69888  0.48085  1.0000
  H   H1969     1.0  0.37144  0.93104  0.36999  1.0000
  H   H1970     1.0  0.31706  0.51816  0.34773  1.0000
  C   C2470     1.0  0.31131  0.52635  0.30211  1.0000
  H   H1971     1.0  0.33186  0.87485  0.58518  1.0000
  C   C2471     1.0  0.24411  0.84970  0.44865  1.0000
  H   H1972     1.0  0.26670  0.88136  0.50482  1.0000
  H   H1973     1.0  0.29253  0.49297  0.33532  1.0000
  H   H1974     1.0  0.43905  0.81143  0.55511  1.0000
  H   H1975     1.0  0.24739  0.48187  0.49138  1.0000
  H   H1976     1.0  0.41667  0.72633  0.53689  1.0000
  C   C2472     1.0  0.37327  0.93698  0.35521  1.0000
  C   C2473     1.0  0.28679  0.93343  0.34894  1.0000
  C   C2474     1.0  0.24210  0.86814  0.51563  1.0000
  C   C2475     1.0  0.26797  0.53879  0.31464  1.0000
  C   C2476     1.0  0.36933  0.82751  0.33870  1.0000
  H   H1977     1.0  0.37336  0.90081  0.34264  1.0000
  H   H1978     1.0  0.42423  0.84717  0.60754  1.0000
  C   C2477     1.0  0.30289  0.95775  0.32903  1.0000
  H   H1979     1.0  0.34494  0.93639  0.35314  1.0000
  C   C2478     1.0  0.27596  0.58708  0.35826  1.0000
  C   C2479     1.0  0.24812  0.74633  0.52079  1.0000
  C   C2480     1.0  0.24681  0.85718  0.47829  1.0000
  C   C2481     1.0  0.24918  0.72773  0.51897  1.0000
  C   C2482     1.0  0.32051  0.51880  0.33270  1.0000
  C   C2483     1.0  0.24701  0.89637  0.52455  1.0000
  H   H1980     1.0  0.40085  0.90880  0.31877  1.0000
  H   H1981     1.0  0.24990  0.56060  0.34545  1.0000
  H   H1982     1.0  0.25976  0.81336  0.52759  1.0000
  H   H1983     1.0  0.24508  0.89832  0.40056  1.0000
  C   C2484     1.0  0.38325  0.76451  0.61977  1.0000
  C   C2485     1.0  0.25048  0.70604  0.34287  1.0000
  C   C2486     1.0  0.38902  0.82543  0.30844  1.0000
  C   C2487     1.0  0.27526  0.84178  0.50333  1.0000
  C   C2488     1.0  0.28281  0.49605  0.34785  1.0000
  C   C2489     1.0  0.25634  0.73950  0.45421  1.0000
  C   C2490     1.0  0.26517  0.74646  0.46571  1.0000
  C   C2491     1.0  0.28383  0.74922  0.45994  1.0000
  C   C2492     1.0  0.29381  0.74494  0.44276  1.0000
  C   C2493     1.0  0.28544  0.73709  0.43170  1.0000
  C   C2494     1.0  0.26674  0.73446  0.43735  1.0000
  H   H1984     1.0  0.31732  0.82770  0.47650  1.0000
  C   C2495     1.0  0.43574  0.81940  0.56644  1.0000
  C   C2496     1.0  0.28159  0.84005  0.52033  1.0000
  S   S339      1.0  0.24136  0.76625  0.37386  1.0000
  C   C2497     1.0  0.26867  0.70065  0.34696  1.0000
  H   H1985     1.0  0.27188  0.56766  0.30554  1.0000
  C   C2498     1.0  0.35828  0.93987  0.34549  1.0000
  H   H1986     1.0  0.23746  0.89696  0.44633  1.0000
  C   C2499     1.0  0.39003  0.80112  0.61630  1.0000
  H   H1987     1.0  0.34973  0.94538  0.62637  1.0000
  H   H1988     1.0  0.24059  0.70508  0.49234  1.0000
  H   H1989     1.0  0.31552  0.79561  0.30032  1.0000
  H   H1990     1.0  0.45360  0.84902  0.58478  1.0000
  C   C2500     1.0  0.35492  0.87178  0.59990  1.0000
  H   H1991     1.0  0.30387  0.90628  0.35488  1.0000
  H   H1992     1.0  0.25780  0.74991  0.47906  1.0000
  H   H1993     1.0  0.29042  0.75509  0.46862  1.0000
  H   H1994     1.0  0.30795  0.74794  0.43795  1.0000
  H   H1995     1.0  0.29326  0.73356  0.41850  1.0000
  H   H1996     1.0  0.26027  0.72870  0.42849  1.0000
  C   C2501     1.0  0.28857  0.67893  0.47185  1.0000
  C   C2502     1.0  0.29628  0.66059  0.47906  1.0000
  C   C2503     1.0  0.30675  0.65732  0.49347  1.0000
  C   C2504     1.0  0.30961  0.67239  0.50064  1.0000
  C   C2505     1.0  0.30184  0.69084  0.49349  1.0000
  C   C2506     1.0  0.29120  0.69398  0.47913  1.0000
  P   P80       1.0  0.30564  0.71060  0.50217  1.0000
  C   C2507     1.0  0.31639  0.70284  0.52288  1.0000
  C   C2508     1.0  0.32170  0.72343  0.48475  1.0000
  C   C2509     1.0  0.33015  0.73654  0.48983  1.0000
  C   C2510     1.0  0.34343  0.74567  0.47682  1.0000
  C   C2511     1.0  0.34836  0.74193  0.45861  1.0000
  C   C2512     1.0  0.34030  0.72869  0.45347  1.0000
  C   C2513     1.0  0.32711  0.71940  0.46647  1.0000
  C   C2514     1.0  0.33599  0.69721  0.52114  1.0000
  C   C2515     1.0  0.34456  0.69243  0.53703  1.0000
  C   C2516     1.0  0.33362  0.69307  0.55477  1.0000
  C   C2517     1.0  0.31410  0.69822  0.55664  1.0000
  C   C2518     1.0  0.30547  0.70307  0.54080  1.0000
  C   C2519     1.0  0.28305  0.72499  0.50852  1.0000
  C   C2520     1.0  0.28183  0.74368  0.51057  1.0000
  C   C2521     1.0  0.26442  0.75423  0.51674  1.0000
  H   H1997     1.0  0.27874  0.48506  0.47206  1.0000
  C   C2522     1.0  0.31998  0.94516  0.32796  1.0000
  C   C2523     1.0  0.26656  0.71702  0.51307  1.0000
  H   H1998     1.0  0.28051  0.68153  0.46062  1.0000
  H   H1999     1.0  0.29415  0.64892  0.47347  1.0000
  H   H2000     1.0  0.31272  0.64309  0.49909  1.0000
  H   H2001     1.0  0.31780  0.66956  0.51175  1.0000
  H   H2002     1.0  0.28508  0.70812  0.47344  1.0000
  H   H2003     1.0  0.32672  0.73962  0.50393  1.0000
  H   H2004     1.0  0.34982  0.75582  0.48089  1.0000
  H   H2005     1.0  0.35846  0.74927  0.44853  1.0000
  H   H2006     1.0  0.34427  0.72567  0.43936  1.0000
  H   H2007     1.0  0.32133  0.70911  0.46208  1.0000
  H   H2008     1.0  0.34471  0.69695  0.50748  1.0000
  H   H2009     1.0  0.35972  0.68867  0.53559  1.0000
  H   H2010     1.0  0.23589  0.92255  0.34470  1.0000
  H   H2011     1.0  0.30562  0.69909  0.57036  1.0000
  H   H2012     1.0  0.29036  0.70752  0.54267  1.0000
  H   H2013     1.0  0.29426  0.75007  0.50790  1.0000
  H   H2014     1.0  0.26359  0.76841  0.51884  1.0000
  C   C2524     1.0  0.24719  0.84390  0.46710  1.0000
  C   C2525     1.0  0.25671  0.50318  0.37984  1.0000
  H   H2015     1.0  0.26710  0.70239  0.51264  1.0000
  H   H2016     1.0  0.25660  0.53226  0.36871  1.0000
  H   H2017     1.0  0.25053  0.86626  0.39271  1.0000
  H   H2018     1.0  0.24193  0.78799  0.54209  1.0000
  C   C2526     1.0  0.28640  0.95190  0.33947  1.0000
  C   C2527     1.0  0.36468  0.83540  0.59174  1.0000
  H   H2019     1.0  0.41827  0.76019  0.52905  1.0000
  H   H2020     1.0  0.27418  0.59927  0.36485  1.0000
  H   H2021     1.0  0.23719  0.76562  0.42825  1.0000
  H   H2022     1.0  0.25576  0.90679  0.52347  1.0000
  C   C2528     1.0  0.25092  0.52748  0.29579  1.0000
  C   C2529     1.0  0.24580  0.72285  0.33079  1.0000
  H   H2023     1.0  0.25885  0.47315  0.38741  1.0000
  H   H2024     1.0  0.26148  0.51084  0.31981  1.0000
  C   C2530     1.0  0.26022  0.52444  0.31101  1.0000
  H   H2025     1.0  0.40208  0.93990  0.35356  1.0000
  C   C2531     1.0  0.37162  0.87361  0.31137  1.0000
  S   S340      1.0  0.45199  0.76037  0.61895  1.0000
  H   H2026     1.0  0.37752  0.80618  0.36156  1.0000
  H   H2027     1.0  0.31022  0.55421  0.34011  1.0000
  H   H2028     1.0  0.30471  0.96854  0.61645  1.0000
  H   H2029     1.0  0.36832  0.82145  0.58820  1.0000
  C   C2532     1.0  0.23645  0.70355  0.39132  1.0000
  C   C2533     1.0  0.28031  0.55499  0.34202  1.0000
  H   H2030     1.0  0.23754  0.62583  0.33873  1.0000
  P   P81       1.0  0.25054  0.84934  0.50223  1.0000
  Fe  Fe175     1.0  0.47304  0.73380  0.62360  1.0000
  C   C2534     1.0  0.30660  0.52622  0.32150  1.0000
  H   H2031     1.0  0.47745  0.79849  0.54842  1.0000
  H   H2032     1.0  0.34081  0.84277  0.57751  1.0000
  H   H2033     1.0  0.28387  0.83832  0.47425  1.0000
  H   H2034     1.0  0.30620  0.58226  0.35443  1.0000
  S   S341      1.0  0.23562  0.48868  0.34422  1.0000
  C   C2535     1.0  0.23892  0.91035  0.35524  1.0000
  C   C2536     1.0  0.36825  0.77914  0.62280  1.0000
  H   H2035     1.0  0.27323  0.96168  0.34001  1.0000
  H   H2036     1.0  0.47638  0.71315  0.51861  1.0000
  C   C2537     1.0  0.27128  0.77827  0.32476  1.0000
  C   C2538     1.0  0.23629  0.60780  0.31972  1.0000
  H   H2037     1.0  0.30025  0.83545  0.34431  1.0000
  C   C2539     1.0  0.29690  0.86552  0.33598  1.0000
  H   H2038     1.0  0.23654  0.72149  0.52281  1.0000
  C   C2540     1.0  0.28831  0.83752  0.48744  1.0000
  H   H2039     1.0  0.24058  0.89057  0.33705  1.0000
  C   C2541     1.0  0.33885  0.51184  0.32459  1.0000
  S   S342      1.0  0.23496  0.93498  0.37993  1.0000
  H   H2040     1.0  0.35745  0.50621  0.29906  1.0000
  C   C2542     1.0  0.24416  0.89662  0.38668  1.0000
  C   C2543     1.0  0.30713  0.84728  0.33726  1.0000
  C   C2544     1.0  0.23575  0.79991  0.53279  1.0000
  H   H2041     1.0  0.28213  0.86784  0.34208  1.0000
  H   H2042     1.0  0.25522  0.70643  0.56747  1.0000
  C   C2545     1.0  0.23622  0.68239  0.45110  1.0000
  C   C2546     1.0  0.27559  0.51473  0.35026  1.0000
  H   H2043     1.0  0.35501  0.87820  0.33827  1.0000
  C   C2547     1.0  0.39268  0.89903  0.31669  1.0000
  H   H2044     1.0  0.34027  0.68993  0.56705  1.0000
  C   C2548     1.0  0.36665  0.88193  0.32747  1.0000
  C   C2549     1.0  0.23438  0.71032  0.46430  1.0000
  H   H2045     1.0  0.25007  0.59959  0.32091  1.0000
  P   P82       1.0  0.28266  0.53392  0.33233  1.0000
  H   H2046     1.0  0.33368  0.82994  0.32982  1.0000
  C   C2550     1.0  0.26257  0.51814  0.36644  1.0000
  C   C2551     1.0  0.29396  0.57744  0.35244  1.0000
  C   C2552     1.0  0.43095  0.74998  0.52646  1.0000
  H   H2047     1.0  0.25252  0.80379  0.33011  1.0000
  C   C2553     1.0  0.41507  0.82764  0.59470  1.0000
  H   H2048     1.0  0.24622  0.58834  0.36036  1.0000
  C   C2554     1.0  0.33526  0.85948  0.32047  1.0000
  C   C2555     1.0  0.44392  0.84051  0.58319  1.0000
  P   P83       1.0  0.34121  0.95216  0.31357  1.0000
  H   H2049     1.0  0.40507  0.79010  0.34176  1.0000
  C   C2556     1.0  0.44824  0.75597  0.51936  1.0000
  C   C2557     1.0  0.26018  0.58092  0.35572  1.0000
  C   C2558     1.0  0.40169  0.76798  0.61589  1.0000
  C   C2559     1.0  0.37314  0.83429  0.31939  1.0000
  H   H2050     1.0  0.35396  0.77652  0.62566  1.0000
  H   H2051     1.0  0.44574  0.70279  0.53140  1.0000
  H   H2052     1.0  0.27180  0.84300  0.53288  1.0000
  H   H2053     1.0  0.24293  0.88696  0.47891  1.0000
  C   C2560     1.0  0.28222  0.71208  0.33901  1.0000
  C   C2561     1.0  0.27753  0.72920  0.32713  1.0000
  H   H2054     1.0  0.30359  0.70939  0.30278  1.0000
  P   P84       1.0  0.29471  0.74462  0.31820  1.0000
  C   C2562     1.0  0.30626  0.74482  0.33742  1.0000
  H   H2055     1.0  0.23474  0.75444  0.52593  1.0000
  H   H2056     1.0  0.23368  0.56576  0.61953  1.0000
  H   H2057     1.0  0.24297  0.65594  0.46907  1.0000
  C   C2563     1.0  0.30062  0.83393  0.52146  1.0000
  C   C2564     1.0  0.38083  0.81163  0.34674  1.0000
  C   C2565     1.0  0.32475  0.87774  0.31873  1.0000
  C   C2566     1.0  0.29598  0.74353  0.35572  1.0000
  C   C2567     1.0  0.30482  0.74306  0.37076  1.0000
  C   C2568     1.0  0.32389  0.74424  0.36770  1.0000
  C   C2569     1.0  0.33425  0.74546  0.34959  1.0000
  C   C2570     1.0  0.32552  0.74576  0.33449  1.0000
  C   C2571     1.0  0.27235  0.47309  0.47213  1.0000
  C   C2572     1.0  0.37164  0.79731  0.62157  1.0000
  C   C2573     1.0  0.24587  0.81442  0.52448  1.0000
  H   H2058     1.0  0.33123  0.88962  0.31111  1.0000
  C   C2574     1.0  0.41916  0.81810  0.57945  1.0000
  H   H2059     1.0  0.27015  0.77234  0.33948  1.0000
  H   H2060     1.0  0.35101  0.88583  0.60319  1.0000
  C   C2575     1.0  0.44820  0.83046  0.56840  1.0000
  C   C2576     1.0  0.32087  0.81337  0.62183  1.0000
  H   H2061     1.0  0.29618  0.70785  0.34257  1.0000
  C   C2577     1.0  0.23929  0.74223  0.38183  1.0000
  C   C2578     1.0  0.24332  0.87638  0.47068  1.0000
  P   P85       1.0  0.39424  0.82494  0.61210  1.0000
  C   C2579     1.0  0.42731  0.83928  0.59619  1.0000
  H   H2062     1.0  0.32816  0.82433  0.50663  1.0000
  H   H2063     1.0  0.23099  0.60105  0.48415  1.0000
  H   H2064     1.0  0.28108  0.74294  0.35845  1.0000
  H   H2065     1.0  0.29676  0.74211  0.38474  1.0000
  H   H2066     1.0  0.33055  0.74472  0.37926  1.0000
  H   H2067     1.0  0.34895  0.74681  0.34715  1.0000
  H   H2068     1.0  0.33391  0.74708  0.32067  1.0000
  S   S343      1.0  0.23316  0.96737  0.32910  1.0000
  C   C2580     1.0  0.46376  0.72356  0.52062  1.0000
  C   C2581     1.0  0.43006  0.73085  0.53087  1.0000
  H   H2069     1.0  0.29098  0.85433  0.59347  1.0000
  C   C2582     1.0  0.37489  0.84106  0.60298  1.0000
  H   H2070     1.0  0.41252  0.80251  0.30785  1.0000
  C   C2583     1.0  0.44644  0.71763  0.52784  1.0000
  C   C2584     1.0  0.34920  0.84755  0.58538  1.0000
  C   C2585     1.0  0.29940  0.84286  0.60133  1.0000
  C   C2586     1.0  0.24726  0.87848  0.38226  1.0000
  C   C2587     1.0  0.31350  0.82967  0.50562  1.0000
  C   C2588     1.0  0.30615  0.84596  0.61669  1.0000
  C   C2589     1.0  0.39052  0.94202  0.34597  1.0000
  H   H2071     1.0  0.34949  0.50605  0.33332  1.0000
  H   H2072     1.0  0.25036  0.59366  0.45427  1.0000
  S   S344      1.0  0.46899  0.80213  0.62808  1.0000
  C   C2590     1.0  0.29616  0.56144  0.34437  1.0000
  C   C2591     1.0  0.39783  0.89066  0.30071  1.0000
  Fe  Fe176     1.0  0.47602  0.77553  0.61552  1.0000
  C   C2592     1.0  0.30563  0.88073  0.32653  1.0000
  C   C2593     1.0  0.28243  0.76813  0.31116  1.0000
  H   H2073     1.0  0.46122  0.83116  0.55855  1.0000
  S   S345      1.0  0.47938  0.73132  0.59300  1.0000
  C   C2594     1.0  0.37043  0.85964  0.60626  1.0000
  H   H2074     1.0  0.24548  0.67056  0.49554  1.0000
  S   S346      1.0  0.24331  0.80792  0.39862  1.0000
  C   C2595     1.0  0.40510  0.78623  0.61411  1.0000
  H   H2075     1.0  0.24549  0.59553  0.60516  1.0000
  H   H2076     1.0  0.24993  0.82903  0.47257  1.0000
  H   H2077     1.0  0.24624  0.50594  0.39201  1.0000
  C   C2596     1.0  0.26599  0.55641  0.30298  1.0000
  H   H2078     1.0  0.23988  0.69738  0.34949  1.0000
  H   H2079     1.0  0.27453  0.48436  0.30766  1.0000
  H   H2080     1.0  0.40594  0.95452  0.31996  1.0000
  C   C2597     1.0  0.25468  0.47131  0.48299  1.0000
  H   H2081     1.0  0.33629  0.73916  0.62312  1.0000
  H   H2082     1.0  0.37337  0.78311  0.30751  1.0000
  C   C2598     1.0  0.31706  0.83121  0.62692  1.0000
  C   C2599     1.0  0.24054  0.86880  0.44121  1.0000
  H   H2083     1.0  0.37863  0.86467  0.61410  1.0000
  C   C2600     1.0  0.39271  0.95020  0.32706  1.0000
  H   H2084     1.0  0.41334  0.75664  0.61360  1.0000
  C   C2601     1.0  0.27703  0.48113  0.36136  1.0000
  C   C2602     1.0  0.36055  0.94754  0.32631  1.0000
  C   C2603     1.0  0.24167  0.89221  0.35091  1.0000
  H   H2085     1.0  0.23059  0.59136  0.30159  1.0000
  H   H2086     1.0  0.38064  0.75052  0.62021  1.0000
  H   H2087     1.0  0.23155  0.72718  0.32800  1.0000
  H   H2088     1.0  0.24454  0.83932  0.44010  1.0000
  H   H2089     1.0  0.47468  0.73421  0.48114  1.0000
  H   H2090     1.0  0.30809  0.76383  0.62714  1.0000
  H   H2091     1.0  0.35990  0.80852  0.62413  1.0000
  C   C2604     1.0  0.23120  0.60976  0.62804  1.0000
  H   H2092     1.0  0.37957  0.95990  0.30275  1.0000
  C   C2605     1.0  0.38746  0.87786  0.29813  1.0000
  H   H2093     1.0  0.25522  0.74753  0.31386  1.0000
  H   H2094     1.0  0.47941  0.81943  0.48967  1.0000
  H   H2095     1.0  0.23300  0.84964  0.32546  1.0000
  H   H2096     1.0  0.47616  0.82528  0.52203  1.0000
  H   H2097     1.0  0.23645  0.58196  0.43210  1.0000
  C   C2606     1.0  0.23598  0.59117  0.45800  1.0000
  H   H2098     1.0  0.23507  0.67609  0.43949  1.0000
  C   C2607     1.0  0.26218  0.80416  0.30057  1.0000
  C   C2608     1.0  0.47940  0.79596  0.53425  1.0000
  C   C2609     1.0  0.23311  0.70193  0.44936  1.0000
  P   P86       1.0  0.23239  0.73546  0.46131  1.0000
  H   H2099     1.0  0.25450  0.81812  0.29656  1.0000
  C   C2610     1.0  0.31183  0.73663  0.29893  1.0000
  C   C2611     1.0  0.47857  0.81104  0.51938  1.0000
  C   C2612     1.0  0.28498  0.59913  0.91258  1.0000
  C   C2613     1.0  0.45081  0.93451  0.69960  1.0000
  Fe  Fe177     1.0  0.45797  0.72348  0.86646  1.0000
  C   C2614     1.0  0.35518  0.50073  0.77747  1.0000
  S   S347      1.0  0.42706  0.72642  0.88043  1.0000
  C   C2615     1.0  0.24717  0.88616  0.71433  1.0000
  C   C2616     1.0  0.25431  0.77584  0.82368  1.0000
  C   C2617     1.0  0.29216  0.61444  0.90097  1.0000
  Fe  Fe178     1.0  0.44078  0.61063  0.75212  1.0000
  S   S348      1.0  0.40953  0.60907  0.76221  1.0000
  S   S349      1.0  0.45866  0.60718  0.77427  1.0000
  S   S350      1.0  0.44938  0.63830  0.73751  1.0000
  H   H2100     1.0  0.42631  0.81495  0.63201  1.0000
  C   C2618     1.0  0.24089  0.89443  0.69747  1.0000
  S   S351      1.0  0.46464  0.84121  0.72435  1.0000
  Fe  Fe179     1.0  0.46329  0.87117  0.70981  1.0000
  S   S352      1.0  0.44013  0.88913  0.69455  1.0000
  C   C2619     1.0  0.25008  0.94880  0.68908  1.0000
  C   C2620     1.0  0.30514  0.96941  0.63073  1.0000
  C   C2621     1.0  0.41909  0.48512  0.72949  1.0000
  H   H2101     1.0  0.35772  0.73079  0.64601  1.0000
  Fe  Fe180     1.0  0.28887  0.54503  0.78318  1.0000
  S   S353      1.0  0.30420  0.54586  0.75378  1.0000
  S   S354      1.0  0.27823  0.51867  0.80045  1.0000
  Fe  Fe181     1.0  0.28802  0.58716  0.78118  1.0000
  S   S355      1.0  0.30273  0.59070  0.75106  1.0000
  S   S356      1.0  0.27701  0.61267  0.79569  1.0000
  Fe  Fe182     1.0  0.28364  0.57218  0.74680  1.0000
  S   S357      1.0  0.27120  0.57465  0.72036  1.0000
  Fe  Fe183     1.0  0.32191  0.56410  0.76077  1.0000
  S   S358      1.0  0.35384  0.55799  0.75109  1.0000
  S   S359      1.0  0.26747  0.57073  0.77603  1.0000
  S   S360      1.0  0.30798  0.56128  0.79108  1.0000
  Fe  Fe184     1.0  0.33240  0.69744  0.86517  1.0000
  S   S361      1.0  0.32891  0.66906  0.88237  1.0000
  S   S362      1.0  0.36078  0.70513  0.84984  1.0000
  Fe  Fe185     1.0  0.28973  0.70891  0.86560  1.0000
  S   S363      1.0  0.28371  0.68105  0.88194  1.0000
  S   S364      1.0  0.26706  0.73404  0.85892  1.0000
  Fe  Fe186     1.0  0.30387  0.68437  0.89949  1.0000
  S   S365      1.0  0.29019  0.68056  0.93004  1.0000
  Fe  Fe187     1.0  0.30910  0.66817  0.86328  1.0000
  S   S366      1.0  0.31475  0.64005  0.85314  1.0000
  S   S367      1.0  0.30886  0.71290  0.88383  1.0000
  S   S368      1.0  0.31358  0.69594  0.84530  1.0000
  Fe  Fe188     1.0  0.33778  0.87656  0.68483  1.0000
  S   S369      1.0  0.34082  0.88055  0.65349  1.0000
  S   S370      1.0  0.35961  0.86674  0.70403  1.0000
  Fe  Fe189     1.0  0.29469  0.88005  0.69042  1.0000
  S   S371      1.0  0.29431  0.88379  0.65964  1.0000
  S   S372      1.0  0.27120  0.87784  0.71551  1.0000
  Fe  Fe190     1.0  0.31986  0.86101  0.65848  1.0000
  C   C2622     1.0  0.23326  0.94628  0.74821  1.0000
  Fe  Fe191     1.0  0.31508  0.90318  0.65696  1.0000
  H   H2102     1.0  0.25168  0.70435  0.92655  1.0000
  S   S373      1.0  0.31844  0.85567  0.68961  1.0000
  S   S374      1.0  0.31386  0.90076  0.68789  1.0000
  H   H2103     1.0  0.24211  0.74729  0.81303  1.0000
  H   H2104     1.0  0.47750  0.55272  0.74594  1.0000
  C   C2623     1.0  0.27329  0.77662  0.82258  1.0000
  H   H2105     1.0  0.37740  0.51737  0.77236  1.0000
  C   C2624     1.0  0.26386  0.93566  0.68038  1.0000
  C   C2625     1.0  0.26366  0.49509  0.88819  1.0000
  C   C2626     1.0  0.30771  0.95281  0.64394  1.0000
  C   C2627     1.0  0.30820  0.95408  0.66235  1.0000
  H   H2106     1.0  0.42704  0.70403  0.64794  1.0000
  H   H2107     1.0  0.31018  0.94148  0.67265  1.0000
  C   C2628     1.0  0.24355  0.73141  0.86861  1.0000
  H   H2108     1.0  0.24817  0.70165  0.86892  1.0000
  C   C2629     1.0  0.24765  0.57273  0.71997  1.0000
  H   H2109     1.0  0.40394  0.93755  0.70664  1.0000
  C   C2630     1.0  0.25432  0.88480  0.79696  1.0000
  H   H2110     1.0  0.30131  0.78020  0.65435  1.0000
  H   H2111     1.0  0.25350  0.57107  0.69061  1.0000
  C   C2631     1.0  0.28240  0.49777  0.79092  1.0000
  C   C2632     1.0  0.23958  0.91089  0.81333  1.0000
  C   C2633     1.0  0.45297  0.95536  0.77513  1.0000
  C   C2634     1.0  0.29652  0.49475  0.77552  1.0000
  C   C2635     1.0  0.36132  0.63194  0.89822  1.0000
  C   C2636     1.0  0.45727  0.78932  0.88050  1.0000
  H   H2112     1.0  0.30457  0.50567  0.76863  1.0000
  C   C2637     1.0  0.28828  0.62046  0.81095  1.0000
  C   C2638     1.0  0.28036  0.63753  0.81730  1.0000
  C   C2639     1.0  0.28849  0.64398  0.82986  1.0000
  C   C2640     1.0  0.30457  0.63329  0.83640  1.0000
  C   C2641     1.0  0.31259  0.61630  0.82994  1.0000
  C   C2642     1.0  0.30458  0.60996  0.81722  1.0000
  H   H2113     1.0  0.26775  0.64575  0.81256  1.0000
  H   H2114     1.0  0.28211  0.65702  0.83476  1.0000
  H   H2115     1.0  0.32505  0.60795  0.83487  1.0000
  H   H2116     1.0  0.31086  0.59684  0.81244  1.0000
  C   C2643     1.0  0.30048  0.67122  0.95017  1.0000
  C   C2644     1.0  0.26316  0.89736  0.78255  1.0000
  H   H2117     1.0  0.31613  0.50586  0.81120  1.0000
  H   H2118     1.0  0.32933  0.66997  0.93654  1.0000
  C   C2645     1.0  0.41868  0.88136  0.69587  1.0000
  C   C2646     1.0  0.41320  0.86654  0.70968  1.0000
  C   C2647     1.0  0.39521  0.86198  0.71167  1.0000
  C   C2648     1.0  0.38268  0.87190  0.69966  1.0000
  C   C2649     1.0  0.38850  0.88608  0.68524  1.0000
  C   C2650     1.0  0.40634  0.89098  0.68353  1.0000
  H   H2119     1.0  0.42254  0.85907  0.71929  1.0000
  H   H2120     1.0  0.39084  0.85094  0.72283  1.0000
  H   H2121     1.0  0.37911  0.89355  0.67570  1.0000
  H   H2122     1.0  0.41048  0.90242  0.67276  1.0000
  H   H2123     1.0  0.24502  0.95020  0.75218  1.0000
  H   H2124     1.0  0.28428  0.58713  0.90668  1.0000
  H   H2125     1.0  0.28863  0.96399  0.71151  1.0000
  C   C2651     1.0  0.27307  0.94083  0.71903  1.0000
  C   C2652     1.0  0.39449  0.59466  0.75862  1.0000
  C   C2653     1.0  0.40104  0.57988  0.74852  1.0000
  C   C2654     1.0  0.38848  0.56871  0.74642  1.0000
  C   C2655     1.0  0.36922  0.57234  0.75413  1.0000
  C   C2656     1.0  0.36270  0.58714  0.76416  1.0000
  C   C2657     1.0  0.37528  0.59816  0.76643  1.0000
  H   H2126     1.0  0.41575  0.57712  0.74232  1.0000
  H   H2127     1.0  0.39367  0.55732  0.73863  1.0000
  H   H2128     1.0  0.34794  0.59012  0.77018  1.0000
  H   H2129     1.0  0.37001  0.60957  0.77420  1.0000
  C   C2658     1.0  0.47610  0.89241  0.77456  1.0000
  C   C2659     1.0  0.27505  0.52295  0.86967  1.0000
  Fe  Fe192     1.0  0.46902  0.63343  0.75814  1.0000
  H   H2130     1.0  0.24956  0.96650  0.96179  1.0000
  H   H2131     1.0  0.23469  0.47517  0.63122  1.0000
  C   C2660     1.0  0.40917  0.71926  0.87211  1.0000
  C   C2661     1.0  0.39215  0.71663  0.88427  1.0000
  C   C2662     1.0  0.37729  0.71185  0.87790  1.0000
  C   C2663     1.0  0.37919  0.71006  0.85916  1.0000
  C   C2664     1.0  0.39616  0.71274  0.84706  1.0000
  C   C2665     1.0  0.41117  0.71707  0.85349  1.0000
  H   H2132     1.0  0.39041  0.71839  0.89868  1.0000
  H   H2133     1.0  0.36427  0.70993  0.88737  1.0000
  H   H2134     1.0  0.39761  0.71156  0.83256  1.0000
  H   H2135     1.0  0.42411  0.71913  0.84396  1.0000
  C   C2666     1.0  0.46805  0.92362  0.70295  1.0000
  H   H2136     1.0  0.24518  0.76161  0.90691  1.0000
  C   C2667     1.0  0.48006  0.82150  0.67123  1.0000
  H   H2137     1.0  0.23584  0.77396  0.77553  1.0000
  H   H2138     1.0  0.34229  0.64623  0.80702  1.0000
  C   C2668     1.0  0.46909  0.69126  0.66048  1.0000
  C   C2669     1.0  0.46705  0.80736  0.80244  1.0000
  H   H2139     1.0  0.45393  0.81454  0.80925  1.0000
  H   H2140     1.0  0.27688  0.47221  0.74251  1.0000
  H   H2141     1.0  0.28068  0.76861  0.83372  1.0000
  H   H2142     1.0  0.26465  0.49712  0.84158  1.0000
  H   H2143     1.0  0.36929  0.61978  0.87324  1.0000
  C   C2670     1.0  0.33846  0.52202  0.80572  1.0000
  S   S375      1.0  0.46784  0.84005  0.77643  1.0000
  H   H2144     1.0  0.35496  0.95623  0.73449  1.0000
  C   C2671     1.0  0.23794  0.71391  0.87183  1.0000
  H   H2145     1.0  0.28733  0.64252  0.93310  1.0000
  P   P87       1.0  0.36763  0.95583  0.69428  1.0000
  H   H2146     1.0  0.47904  0.75870  0.90231  1.0000
  C   C2672     1.0  0.34487  0.96606  0.72697  1.0000
  H   H2147     1.0  0.46248  0.72378  0.77689  1.0000
  C   C2673     1.0  0.27867  0.59935  0.93171  1.0000
  H   H2148     1.0  0.24188  0.80705  0.84567  1.0000
  C   C2674     1.0  0.34538  0.74140  0.64832  1.0000
  C   C2675     1.0  0.34741  0.96884  0.70733  1.0000
  C   C2676     1.0  0.24283  0.57109  0.70306  1.0000
  C   C2677     1.0  0.31348  0.76916  0.65286  1.0000
  P   P88       1.0  0.48005  0.94522  0.74476  1.0000
  H   H2149     1.0  0.28025  0.53585  0.86879  1.0000
  C   C2678     1.0  0.23555  0.66580  0.95642  1.0000
  C   C2679     1.0  0.25693  0.84645  0.81896  1.0000
  C   C2680     1.0  0.24834  0.83045  0.82407  1.0000
  P   P89       1.0  0.25763  0.86007  0.79561  1.0000
  H   H2150     1.0  0.33849  0.51925  0.74649  1.0000
  C   C2681     1.0  0.23331  0.80707  0.91387  1.0000
  H   H2151     1.0  0.42415  0.73829  0.64598  1.0000
  C   C2682     1.0  0.47800  0.49201  0.71348  1.0000
  C   C2683     1.0  0.35364  0.94720  0.63911  1.0000
  C   C2684     1.0  0.47871  0.80366  0.64745  1.0000
  C   C2685     1.0  0.35912  0.93463  0.67076  1.0000
  C   C2686     1.0  0.27045  0.51171  0.88706  1.0000
  H   H2152     1.0  0.41319  0.90781  0.72708  1.0000
  H   H2153     1.0  0.36219  0.53643  0.79645  1.0000
  C   C2687     1.0  0.47234  0.48141  0.70275  1.0000
  C   C2688     1.0  0.41402  0.71203  0.65413  1.0000
  C   C2689     1.0  0.27992  0.85282  0.78109  1.0000
  C   C2690     1.0  0.29506  0.84152  0.78910  1.0000
  C   C2691     1.0  0.31230  0.83625  0.77778  1.0000
  C   C2692     1.0  0.31459  0.84214  0.75840  1.0000
  C   C2693     1.0  0.29960  0.85320  0.75031  1.0000
  C   C2694     1.0  0.28237  0.85853  0.76157  1.0000
  C   C2695     1.0  0.26612  0.85102  0.83177  1.0000
  H   H2154     1.0  0.24689  0.79479  0.95094  1.0000
  H   H2155     1.0  0.46025  0.51625  0.66715  1.0000
  C   C2696     1.0  0.35655  0.96474  0.64096  1.0000
  C   C2697     1.0  0.24859  0.81938  0.84181  1.0000
  H   H2156     1.0  0.35989  0.92274  0.68198  1.0000
  C   C2698     1.0  0.41711  0.82599  0.65757  1.0000
  H   H2157     1.0  0.24563  0.47421  0.76237  1.0000
  H   H2158     1.0  0.27371  0.84334  0.85926  1.0000
  C   C2699     1.0  0.26063  0.50615  0.68988  1.0000
  H   H2159     1.0  0.25456  0.83858  0.76700  1.0000
  C   C2700     1.0  0.24579  0.71554  0.95217  1.0000
  C   C2701     1.0  0.32965  0.50812  0.80284  1.0000
  H   H2160     1.0  0.23715  0.57410  0.74906  1.0000
  H   H2161     1.0  0.46282  0.56160  0.70850  1.0000
  H   H2162     1.0  0.29372  0.83675  0.80404  1.0000
  H   H2163     1.0  0.32397  0.82766  0.78402  1.0000
  H   H2164     1.0  0.32797  0.83821  0.74957  1.0000
  H   H2165     1.0  0.30136  0.85768  0.73524  1.0000
  H   H2166     1.0  0.27093  0.86714  0.75499  1.0000
  C   C2702     1.0  0.24070  0.84546  0.77249  1.0000
  C   C2703     1.0  0.33802  0.49747  0.78884  1.0000
  C   C2704     1.0  0.46384  0.74558  0.68166  1.0000
  C   C2705     1.0  0.40320  0.51740  0.72486  1.0000
  H   H2167     1.0  0.33101  0.48675  0.78683  1.0000
  C   C2706     1.0  0.32866  0.49824  0.71390  1.0000
  C   C2707     1.0  0.36211  0.95221  0.67277  1.0000
  C   C2708     1.0  0.43198  0.65082  0.85190  1.0000
  H   H2168     1.0  0.46075  0.79514  0.85022  1.0000
  H   H2169     1.0  0.26727  0.92598  0.77242  1.0000
  H   H2170     1.0  0.25093  0.89603  0.68458  1.0000
  C   C2709     1.0  0.36096  0.96721  0.65762  1.0000
  C   C2710     1.0  0.45171  0.95292  0.72279  1.0000
  H   H2171     1.0  0.42465  0.69399  0.81282  1.0000
  C   C2711     1.0  0.36920  0.65706  0.83403  1.0000
  S   S376      1.0  0.47380  0.88032  0.73227  1.0000
  H   H2172     1.0  0.25816  0.81520  0.86812  1.0000
  H   H2173     1.0  0.24070  0.54780  0.80146  1.0000
  C   C2712     1.0  0.24801  0.94246  0.65360  1.0000
  C   C2713     1.0  0.25009  0.48699  0.75426  1.0000
  H   H2174     1.0  0.27538  0.50736  0.68686  1.0000
  C   C2714     1.0  0.41458  0.61456  0.85003  1.0000
  C   C2715     1.0  0.25533  0.48853  0.69264  1.0000
  H   H2175     1.0  0.46687  0.88222  0.77645  1.0000
  H   H2176     1.0  0.42929  0.95762  0.70690  1.0000
  H   H2177     1.0  0.37033  0.70615  0.67749  1.0000
  C   C2716     1.0  0.24524  0.52082  0.74502  1.0000
  C   C2717     1.0  0.47702  0.92719  0.71638  1.0000
  H   H2178     1.0  0.42091  0.52250  0.75966  1.0000
  C   C2718     1.0  0.38649  0.64036  0.87280  1.0000
  C   C2719     1.0  0.25774  0.82400  0.85448  1.0000
  C   C2720     1.0  0.39890  0.70299  0.66309  1.0000
  H   H2179     1.0  0.32045  0.50123  0.70277  1.0000
  C   C2721     1.0  0.23620  0.48683  0.69696  1.0000
  H   H2180     1.0  0.27367  0.92277  0.65584  1.0000
  H   H2181     1.0  0.36812  0.84171  0.64254  1.0000
  H   H2182     1.0  0.31745  0.94525  0.72159  1.0000
  C   C2722     1.0  0.35494  0.93217  0.65398  1.0000
  C   C2723     1.0  0.27307  0.79771  0.79286  1.0000
  C   C2724     1.0  0.45487  0.83017  0.89062  1.0000
  H   H2183     1.0  0.35762  0.89515  0.73460  1.0000
  C   C2725     1.0  0.37464  0.78378  0.70398  1.0000
  C   C2726     1.0  0.36904  0.80098  0.69288  1.0000
  C   C2727     1.0  0.36077  0.80150  0.67744  1.0000
  C   C2728     1.0  0.35799  0.78489  0.67311  1.0000
  C   C2729     1.0  0.36270  0.76759  0.68471  1.0000
  C   C2730     1.0  0.37150  0.76713  0.69993  1.0000
  P   P90       1.0  0.35839  0.74600  0.67981  1.0000
  C   C2731     1.0  0.34930  0.73215  0.70176  1.0000
  C   C2732     1.0  0.34184  0.75080  0.66368  1.0000
  C   C2733     1.0  0.32561  0.76455  0.66595  1.0000
  C   C2734     1.0  0.46519  0.50947  0.68010  1.0000
  C   C2735     1.0  0.26282  0.93262  0.66268  1.0000
  H   H2184     1.0  0.25973  0.78798  0.91003  1.0000
  C   C2736     1.0  0.23249  0.94725  0.72925  1.0000
  C   C2737     1.0  0.32989  0.73231  0.70756  1.0000
  C   C2738     1.0  0.32315  0.72135  0.72448  1.0000
  C   C2739     1.0  0.33569  0.71013  0.73572  1.0000
  C   C2740     1.0  0.35501  0.70988  0.73008  1.0000
  C   C2741     1.0  0.36179  0.72089  0.71325  1.0000
  C   C2742     1.0  0.38031  0.73279  0.66990  1.0000
  C   C2743     1.0  0.39559  0.74178  0.66092  1.0000
  H   H2185     1.0  0.45667  0.90698  0.65638  1.0000
  C   C2744     1.0  0.30085  0.47725  0.76951  1.0000
  C   C2745     1.0  0.47310  0.82207  0.88308  1.0000
  C   C2746     1.0  0.38205  0.71333  0.67088  1.0000
  H   H2186     1.0  0.38129  0.78340  0.71580  1.0000
  H   H2187     1.0  0.37111  0.81395  0.69620  1.0000
  H   H2188     1.0  0.35632  0.81482  0.66883  1.0000
  H   H2189     1.0  0.35195  0.78582  0.66079  1.0000
  H   H2190     1.0  0.37594  0.75399  0.70871  1.0000
  H   H2191     1.0  0.32254  0.77210  0.67758  1.0000
  H   H2192     1.0  0.23877  0.87817  0.74405  1.0000
  P   P91       1.0  0.25181  0.95414  0.71130  1.0000
  H   H2193     1.0  0.26210  0.91480  0.72747  1.0000
  Fe  Fe193     1.0  0.47310  0.62148  0.72058  1.0000
  H   H2194     1.0  0.31989  0.74072  0.69907  1.0000
  H   H2195     1.0  0.30817  0.72141  0.72879  1.0000
  H   H2196     1.0  0.33044  0.70150  0.74873  1.0000
  H   H2197     1.0  0.36474  0.70103  0.73872  1.0000
  H   H2198     1.0  0.37683  0.72045  0.70912  1.0000
  H   H2199     1.0  0.39454  0.75681  0.65969  1.0000
  C   C2747     1.0  0.24859  0.92320  0.79901  1.0000
  H   H2200     1.0  0.44382  0.82181  0.89556  1.0000
  C   C2748     1.0  0.45073  0.84927  0.89182  1.0000
  C   C2749     1.0  0.40217  0.96387  0.67427  1.0000
  C   C2750     1.0  0.39726  0.65233  0.78012  1.0000
  C   C2751     1.0  0.41392  0.64311  0.78637  1.0000
  C   C2752     1.0  0.42746  0.65339  0.78729  1.0000
  C   C2753     1.0  0.42442  0.67290  0.78189  1.0000
  C   C2754     1.0  0.40749  0.68237  0.77608  1.0000
  C   C2755     1.0  0.39396  0.67187  0.77513  1.0000
  P   P92       1.0  0.40337  0.70756  0.76866  1.0000
  C   C2756     1.0  0.37861  0.71572  0.77602  1.0000
  C   C2757     1.0  0.41711  0.71866  0.77932  1.0000
  C   C2758     1.0  0.40861  0.72894  0.79376  1.0000
  C   C2759     1.0  0.41953  0.73706  0.80211  1.0000
  C   C2760     1.0  0.43895  0.73518  0.79603  1.0000
  C   C2761     1.0  0.44745  0.72527  0.78150  1.0000
  C   C2762     1.0  0.43662  0.71711  0.77310  1.0000
  C   C2763     1.0  0.36786  0.72837  0.76374  1.0000
  C   C2764     1.0  0.34861  0.73425  0.76962  1.0000
  C   C2765     1.0  0.34005  0.72769  0.78784  1.0000
  C   C2766     1.0  0.35072  0.71522  0.80016  1.0000
  C   C2767     1.0  0.36987  0.70915  0.79428  1.0000
  C   C2768     1.0  0.40993  0.71318  0.74351  1.0000
  C   C2769     1.0  0.41077  0.69991  0.73216  1.0000
  C   C2770     1.0  0.41600  0.70438  0.71274  1.0000
  C   C2771     1.0  0.42057  0.72203  0.70449  1.0000
  C   C2772     1.0  0.41964  0.73536  0.71566  1.0000
  C   C2773     1.0  0.41428  0.73100  0.73510  1.0000
  H   H2201     1.0  0.38705  0.64420  0.77890  1.0000
  H   H2202     1.0  0.41645  0.62794  0.79014  1.0000
  H   H2203     1.0  0.44052  0.64624  0.79188  1.0000
  H   H2204     1.0  0.43538  0.68035  0.78239  1.0000
  H   H2205     1.0  0.38095  0.67870  0.77030  1.0000
  H   H2206     1.0  0.39364  0.73057  0.79891  1.0000
  H   H2207     1.0  0.41296  0.74464  0.81350  1.0000
  H   H2208     1.0  0.44744  0.74135  0.80262  1.0000
  C   C2774     1.0  0.26647  0.83985  0.84948  1.0000
  H   H2209     1.0  0.44355  0.70930  0.76198  1.0000
  H   H2210     1.0  0.37422  0.73368  0.74962  1.0000
  H   H2211     1.0  0.34032  0.74394  0.76008  1.0000
  H   H2212     1.0  0.32518  0.73231  0.79251  1.0000
  H   H2213     1.0  0.34422  0.71034  0.81441  1.0000
  H   H2214     1.0  0.37789  0.69952  0.80413  1.0000
  H   H2215     1.0  0.40767  0.68601  0.73819  1.0000
  H   H2216     1.0  0.41675  0.69400  0.70409  1.0000
  H   H2217     1.0  0.42509  0.72526  0.68946  1.0000
  H   H2218     1.0  0.42334  0.74900  0.70927  1.0000
  H   H2219     1.0  0.41374  0.74146  0.74357  1.0000
  C   C2775     1.0  0.36427  0.64525  0.90770  1.0000
  C   C2776     1.0  0.37801  0.65640  0.89963  1.0000
  H   H2220     1.0  0.36676  0.61762  0.80782  1.0000
  H   H2221     1.0  0.35551  0.64734  0.92103  1.0000
  H   H2222     1.0  0.37985  0.66722  0.90663  1.0000
  H   H2223     1.0  0.39919  0.66328  0.87611  1.0000
  H   H2224     1.0  0.29740  0.78809  0.80639  1.0000
  C   C2777     1.0  0.47241  0.81960  0.65601  1.0000
  H   H2225     1.0  0.47026  0.77671  0.70684  1.0000
  H   H2226     1.0  0.26617  0.47631  0.69134  1.0000
  C   C2778     1.0  0.25833  0.61270  0.68323  1.0000
  C   C2779     1.0  0.35106  0.47710  0.73156  1.0000
  H   H2227     1.0  0.43070  0.82139  0.66195  1.0000
  C   C2780     1.0  0.47893  0.65382  0.67869  1.0000
  H   H2228     1.0  0.23378  0.71626  0.82719  1.0000
  H   H2229     1.0  0.35220  0.91872  0.65261  1.0000
  H   H2230     1.0  0.45933  0.71986  0.72370  1.0000
  H   H2231     1.0  0.25036  0.60676  0.65925  1.0000
  H   H2232     1.0  0.27150  0.60291  0.68197  1.0000
  C   C2781     1.0  0.24620  0.61488  0.67044  1.0000
  H   H2233     1.0  0.42279  0.57132  0.87706  1.0000
  S   S377      1.0  0.47790  0.69910  0.87898  1.0000
  C   C2782     1.0  0.41458  0.82247  0.64054  1.0000
  C   C2783     1.0  0.37221  0.62966  0.88073  1.0000
  H   H2234     1.0  0.29701  0.61437  0.88612  1.0000
  H   H2235     1.0  0.43147  0.50803  0.71165  1.0000
  C   C2784     1.0  0.42663  0.68189  0.82366  1.0000
  H   H2236     1.0  0.24684  0.80500  0.78280  1.0000
  H   H2237     1.0  0.43311  0.78205  0.84885  1.0000
  C   C2785     1.0  0.39347  0.92877  0.71285  1.0000
  C   C2786     1.0  0.23603  0.63480  0.70022  1.0000
  H   H2238     1.0  0.23994  0.48173  0.66083  1.0000
  C   C2787     1.0  0.26308  0.51957  0.73390  1.0000
  H   H2239     1.0  0.45795  0.87325  0.65665  1.0000
  C   C2788     1.0  0.29055  0.91103  0.73206  1.0000
  C   C2789     1.0  0.43648  0.78238  0.86230  1.0000
  C   C2790     1.0  0.31731  0.75998  0.63748  1.0000
  C   C2791     1.0  0.38703  0.49334  0.74559  1.0000
  C   C2792     1.0  0.26616  0.50101  0.85443  1.0000
  H   H2240     1.0  0.27213  0.51590  0.89969  1.0000
  C   C2793     1.0  0.23423  0.95555  0.66216  1.0000
  H   H2241     1.0  0.27326  0.86305  0.82796  1.0000
  C   C2794     1.0  0.33320  0.74605  0.63526  1.0000
  H   H2242     1.0  0.31930  0.52566  0.72155  1.0000
  H   H2243     1.0  0.28838  0.50109  0.72466  1.0000
  C   C2795     1.0  0.38202  0.83767  0.64630  1.0000
  C   C2796     1.0  0.38464  0.84128  0.66325  1.0000
  C   C2797     1.0  0.40221  0.83560  0.66883  1.0000
  H   H2244     1.0  0.23430  0.76080  0.86997  1.0000
  C   C2798     1.0  0.27935  0.61503  0.93934  1.0000
  H   H2245     1.0  0.44598  0.56544  0.84851  1.0000
  H   H2246     1.0  0.27218  0.89264  0.77040  1.0000
  H   H2247     1.0  0.27321  0.58733  0.94040  1.0000
  H   H2248     1.0  0.24989  0.64519  0.93963  1.0000
  C   C2799     1.0  0.28662  0.63031  0.92754  1.0000
  C   C2800     1.0  0.23370  0.57283  0.73595  1.0000
  C   C2801     1.0  0.25318  0.62249  0.69820  1.0000
  C   C2802     1.0  0.39716  0.82884  0.63449  1.0000
  C   C2803     1.0  0.44270  0.94923  0.70944  1.0000
  H   H2249     1.0  0.46151  0.87519  0.88648  1.0000
  C   C2804     1.0  0.30531  0.93865  0.72314  1.0000
  C   C2805     1.0  0.37501  0.93382  0.70906  1.0000
  H   H2250     1.0  0.46033  0.91298  0.75616  1.0000
  C   C2806     1.0  0.35391  0.64492  0.81434  1.0000
  H   H2251     1.0  0.33178  0.53057  0.81629  1.0000
  H   H2252     1.0  0.37298  0.84845  0.67211  1.0000
  H   H2253     1.0  0.40422  0.83857  0.68192  1.0000
  H   H2254     1.0  0.24629  0.93803  0.79978  1.0000
  H   H2255     1.0  0.31064  0.62274  0.95123  1.0000
  C   C2807     1.0  0.44325  0.77542  0.67557  1.0000
  C   C2808     1.0  0.44979  0.75704  0.67242  1.0000
  H   H2256     1.0  0.39011  0.88668  0.74140  1.0000
  H   H2257     1.0  0.43282  0.78447  0.66790  1.0000
  H   H2258     1.0  0.44436  0.75177  0.66242  1.0000
  H   H2259     1.0  0.23674  0.53451  0.74583  1.0000
  C   C2809     1.0  0.39877  0.91196  0.72469  1.0000
  H   H2260     1.0  0.46169  0.83061  0.65075  1.0000
  C   C2810     1.0  0.46468  0.77080  0.69750  1.0000
  Fe  Fe194     1.0  0.47779  0.84965  0.74541  1.0000
  H   H2261     1.0  0.26081  0.48568  0.81132  1.0000
  H   H2262     1.0  0.23530  0.88251  0.82360  1.0000
  C   C2811     1.0  0.44201  0.67890  0.83277  1.0000
  S   S378      1.0  0.32669  0.83432  0.64584  1.0000
  C   C2812     1.0  0.42790  0.61116  0.83403  1.0000
  H   H2263     1.0  0.46653  0.78151  0.82264  1.0000
  C   C2813     1.0  0.23401  0.88423  0.73094  1.0000
  C   C2814     1.0  0.24692  0.52222  0.69101  1.0000
  H   H2264     1.0  0.43426  0.63885  0.86291  1.0000
  C   C2815     1.0  0.36760  0.62873  0.81496  1.0000
  C   C2816     1.0  0.38906  0.65403  0.88224  1.0000
  C   C2817     1.0  0.24157  0.71316  0.93536  1.0000
  C   C2818     1.0  0.28885  0.94928  0.71741  1.0000
  C   C2819     1.0  0.47741  0.51143  0.70752  1.0000
  C   C2820     1.0  0.25411  0.79681  0.79386  1.0000
  H   H2265     1.0  0.45459  0.66035  0.69942  1.0000
  H   H2266     1.0  0.39226  0.61381  0.82565  1.0000
  H   H2267     1.0  0.24722  0.76749  0.83584  1.0000
  C   C2821     1.0  0.45057  0.78223  0.68825  1.0000
  H   H2268     1.0  0.44582  0.79661  0.69045  1.0000
  S   S379      1.0  0.46300  0.59397  0.73337  1.0000
  C   C2822     1.0  0.26788  0.48577  0.74296  1.0000
  S   S380      1.0  0.31173  0.93078  0.63658  1.0000
  C   C2823     1.0  0.46316  0.66557  0.68646  1.0000
  H   H2269     1.0  0.28033  0.80629  0.78098  1.0000
  H   H2270     1.0  0.45331  0.94051  0.78037  1.0000
  S   S381      1.0  0.46931  0.71916  0.83683  1.0000
  C   C2824     1.0  0.27442  0.50204  0.73292  1.0000
  H   H2271     1.0  0.31911  0.91112  0.73439  1.0000
  C   C2825     1.0  0.40302  0.47980  0.74152  1.0000
  S   S382      1.0  0.46162  0.71473  0.64996  1.0000
  H   H2272     1.0  0.43662  0.85545  0.89759  1.0000
  H   H2273     1.0  0.24735  0.94003  0.63987  1.0000
  H   H2274     1.0  0.36920  0.66784  0.84192  1.0000
  C   C2826     1.0  0.35565  0.52524  0.79462  1.0000
  H   H2275     1.0  0.47504  0.83380  0.67779  1.0000
  C   C2827     1.0  0.42992  0.77508  0.89610  1.0000
  C   C2828     1.0  0.45226  0.78968  0.86315  1.0000
  C   C2829     1.0  0.38304  0.64086  0.83473  1.0000
  C   C2830     1.0  0.38213  0.62667  0.82509  1.0000
  C   C2831     1.0  0.46489  0.53152  0.73946  1.0000
  H   H2276     1.0  0.29139  0.89607  0.73701  1.0000
  H   H2277     1.0  0.24287  0.52003  0.78731  1.0000
  C   C2832     1.0  0.32797  0.51198  0.72451  1.0000
  H   H2278     1.0  0.42955  0.62220  0.82195  1.0000
  H   H2279     1.0  0.45674  0.66108  0.85385  1.0000
  C   C2833     1.0  0.43339  0.52891  0.75675  1.0000
  C   C2834     1.0  0.36202  0.92175  0.71733  1.0000
  C   C2835     1.0  0.44473  0.66335  0.84686  1.0000
  H   H2280     1.0  0.26239  0.62023  0.70842  1.0000
  H   H2281     1.0  0.27557  0.92791  0.68698  1.0000
  C   C2836     1.0  0.27294  0.51757  0.85337  1.0000
  C   C2837     1.0  0.44985  0.55185  0.76215  1.0000
  H   H2282     1.0  0.32881  0.80182  0.62996  1.0000
  C   C2838     1.0  0.31993  0.66726  0.94971  1.0000
  H   H2283     1.0  0.45180  0.68869  0.82897  1.0000
  C   C2839     1.0  0.35000  0.49064  0.74267  1.0000
  H   H2284     1.0  0.44504  0.96421  0.73040  1.0000
  C   C2840     1.0  0.43915  0.59351  0.83348  1.0000
  H   H2285     1.0  0.35014  0.62384  0.90411  1.0000
  H   H2286     1.0  0.44368  0.93128  0.68958  1.0000
  C   C2841     1.0  0.36412  0.51452  0.78067  1.0000
  H   H2287     1.0  0.34390  0.67143  0.82369  1.0000
  C   C2842     1.0  0.41368  0.66954  0.82880  1.0000
  C   C2843     1.0  0.24463  0.78987  0.91088  1.0000
  C   C2844     1.0  0.26037  0.91644  0.78363  1.0000
  C   C2845     1.0  0.23535  0.95883  0.67975  1.0000
  H   H2288     1.0  0.45022  0.56318  0.76922  1.0000
  H   H2289     1.0  0.45489  0.68663  0.73158  1.0000
  C   C2846     1.0  0.35481  0.65914  0.82374  1.0000
  P   P93       1.0  0.40008  0.63748  0.84998  1.0000
  H   H2290     1.0  0.42896  0.96986  0.65862  1.0000
  C   C2847     1.0  0.41629  0.65390  0.84298  1.0000
  C   C2848     1.0  0.36743  0.90484  0.72899  1.0000
  C   C2849     1.0  0.23799  0.85672  0.78626  1.0000
  C   C2850     1.0  0.26137  0.48966  0.87187  1.0000
  H   H2291     1.0  0.43138  0.47462  0.72639  1.0000
  H   H2292     1.0  0.41364  0.76856  0.87806  1.0000
  C   C2851     1.0  0.44564  0.78246  0.89701  1.0000
  H   H2293     1.0  0.42143  0.76903  0.90881  1.0000
  C   C2852     1.0  0.44892  0.52283  0.74367  1.0000
  C   C2853     1.0  0.42545  0.77488  0.87875  1.0000
  C   C2854     1.0  0.45836  0.68416  0.67744  1.0000
  H   H2294     1.0  0.25104  0.53584  0.68901  1.0000
  H   H2295     1.0  0.44892  0.78240  0.91058  1.0000
  P   P94       1.0  0.36546  0.48666  0.75951  1.0000
  C   C2855     1.0  0.28268  0.78754  0.80719  1.0000
  C   C2856     1.0  0.43727  0.57913  0.84897  1.0000
  H   H2296     1.0  0.44930  0.59100  0.82101  1.0000
  H   H2297     1.0  0.46164  0.48191  0.67769  1.0000
  C   C2857     1.0  0.47170  0.75242  0.69405  1.0000
  H   H2298     1.0  0.40308  0.53197  0.71826  1.0000
  C   C2858     1.0  0.24466  0.78563  0.80917  1.0000
  C   C2859     1.0  0.41287  0.60011  0.86560  1.0000
  C   C2860     1.0  0.38715  0.51213  0.73685  1.0000
  C   C2861     1.0  0.29305  0.62997  0.90849  1.0000
  H   H2299     1.0  0.40175  0.67227  0.82170  1.0000
  H   H2300     1.0  0.37472  0.52274  0.73910  1.0000
  H   H2301     1.0  0.44623  0.69312  0.68361  1.0000
  C   C2862     1.0  0.43384  0.54345  0.76595  1.0000
  H   H2302     1.0  0.42171  0.54842  0.77584  1.0000
  C   C2863     1.0  0.33870  0.50826  0.73877  1.0000
  H   H2303     1.0  0.40298  0.60238  0.87822  1.0000
  C   C2864     1.0  0.42418  0.58244  0.86503  1.0000
  H   H2304     1.0  0.27652  0.52625  0.83983  1.0000
  C   C2865     1.0  0.38576  0.90001  0.73276  1.0000
  H   H2305     1.0  0.44831  0.51151  0.73684  1.0000
  H   H2306     1.0  0.34784  0.92519  0.71438  1.0000
  C   C2866     1.0  0.27401  0.92165  0.72648  1.0000
  C   C2867     1.0  0.30620  0.91951  0.73042  1.0000
  H   H2307     1.0  0.24159  0.82640  0.81430  1.0000
  C   C2868     1.0  0.46475  0.86040  0.88556  1.0000
  H   H2308     1.0  0.26821  0.53227  0.72636  1.0000
  C   C2869     1.0  0.38651  0.96931  0.68762  1.0000
  H   H2309     1.0  0.29869  0.64179  0.89947  1.0000
  C   C2870     1.0  0.41916  0.50391  0.72115  1.0000
  C   C2871     1.0  0.47417  0.78873  0.81010  1.0000
  C   C2872     1.0  0.27185  0.48350  0.79949  1.0000
  H   H2310     1.0  0.47015  0.53505  0.68591  1.0000
  H   H2311     1.0  0.23823  0.76373  0.95392  1.0000
  C   C2873     1.0  0.46527  0.54594  0.74894  1.0000
  C   C2874     1.0  0.47055  0.87945  0.65134  1.0000
  C   C2875     1.0  0.34018  0.48079  0.71744  1.0000
  C   C2876     1.0  0.41237  0.73138  0.65305  1.0000
  H   H2312     1.0  0.23205  0.64227  0.71194  1.0000
  C   C2877     1.0  0.47975  0.66132  0.78733  1.0000
  H   H2313     1.0  0.31209  0.47498  0.75785  1.0000
  C   C2878     1.0  0.46791  0.69036  0.72320  1.0000
  H   H2314     1.0  0.46895  0.73149  0.67870  1.0000
  H   H2315     1.0  0.40022  0.68799  0.66382  1.0000
  H   H2316     1.0  0.40294  0.95164  0.66803  1.0000
  C   C2879     1.0  0.44088  0.96828  0.78540  1.0000
  C   C2880     1.0  0.47049  0.70909  0.71872  1.0000
  C   C2881     1.0  0.47257  0.90981  0.76292  1.0000
  H   H2317     1.0  0.47427  0.91205  0.69549  1.0000
  C   C2882     1.0  0.46596  0.49013  0.68605  1.0000
  H   H2318     1.0  0.23986  0.81843  0.91522  1.0000
  C   C2883     1.0  0.47757  0.56203  0.70303  1.0000
  C   C2884     1.0  0.24756  0.64902  0.95333  1.0000
  C   C2885     1.0  0.24246  0.89177  0.81237  1.0000
  P   P95       1.0  0.47851  0.79742  0.88146  1.0000
  S   S383      1.0  0.47682  0.74428  0.86598  1.0000
  C   C2886     1.0  0.46892  0.94183  0.72644  1.0000
  H   H2319     1.0  0.25905  0.70818  0.95608  1.0000
  C   C2887     1.0  0.46985  0.89849  0.65129  1.0000
  H   H2320     1.0  0.43209  0.96334  0.79841  1.0000
  C   C2888     1.0  0.23866  0.50458  0.75544  1.0000
  H   H2321     1.0  0.47200  0.59092  0.68930  1.0000
  C   C2889     1.0  0.46447  0.96167  0.75831  1.0000
  C   C2890     1.0  0.23647  0.77499  0.90916  1.0000
  C   C2891     1.0  0.47672  0.81660  0.78580  1.0000
  H   H2322     1.0  0.26030  0.48658  0.90178  1.0000
  H   H2323     1.0  0.47924  0.69112  0.77961  1.0000
  C   C2892     1.0  0.47087  0.52010  0.69079  1.0000
  S   S384      1.0  0.47262  0.66010  0.76643  1.0000
  C   C2893     1.0  0.23202  0.47082  0.66127  1.0000
  Fe  Fe195     1.0  0.50172  0.31537  0.18675  1.0000
  Fe  Fe196     1.0  0.52913  0.34102  0.18867  1.0000
  S   S385      1.0  0.50794  0.35633  0.20937  1.0000
  S   S386      1.0  0.56014  0.34221  0.17687  1.0000
  H   H2324     1.0  0.62418  0.31126  0.16919  1.0000
  S   S387      1.0  0.52390  0.31262  0.20417  1.0000
  S   S388      1.0  0.50846  0.34273  0.16964  1.0000
  H   H2325     1.0  0.49567  0.10623  0.27469  1.0000
  C   C2894     1.0  0.71637  0.08949  0.96515  1.0000
  C   C2895     1.0  0.55168  0.42523  0.07384  1.0000
  H   H2326     1.0  0.56675  0.12586  0.25356  1.0000
  Fe  Fe197     1.0  0.50742  0.06875  0.23822  1.0000
  S   S389      1.0  0.53210  0.05033  0.25095  1.0000
  C   C2896     1.0  0.53387  0.39403  0.08815  1.0000
  H   H2327     1.0  0.56064  0.27935  0.97550  1.0000
  C   C2897     1.0  0.55891  0.27613  0.01337  1.0000
  C   C2898     1.0  0.50132  0.14778  0.15263  1.0000
  P   P96       1.0  0.51118  0.17272  0.21503  1.0000
  Fe  Fe198     1.0  0.50759  0.22135  0.08467  1.0000
  S   S390      1.0  0.53966  0.21515  0.07730  1.0000
  C   C2899     1.0  0.55887  0.41102  0.08747  1.0000
  H   H2328     1.0  0.64353  0.27900  0.97421  1.0000
  C   C2900     1.0  0.55227  0.33435  0.22941  1.0000
  Fe  Fe199     1.0  0.64817  0.29333  0.08357  1.0000
  S   S391      1.0  0.64057  0.26451  0.08873  1.0000
  S   S392      1.0  0.64576  0.30538  0.10996  1.0000
  Fe  Fe200     1.0  0.65336  0.29617  0.04091  1.0000
  S   S393      1.0  0.64591  0.26777  0.04317  1.0000
  S   S394      1.0  0.66250  0.31510  0.01355  1.0000
  Fe  Fe201     1.0  0.62265  0.27602  0.06654  1.0000
  S   S395      1.0  0.59100  0.27667  0.07076  1.0000
  Fe  Fe202     1.0  0.66457  0.25873  0.06514  1.0000
  S   S396      1.0  0.68550  0.23122  0.06631  1.0000
  S   S397      1.0  0.62894  0.30529  0.06267  1.0000
  S   S398      1.0  0.67331  0.28674  0.06157  1.0000
  Fe  Fe203     1.0  0.64200  0.39739  0.17501  1.0000
  S   S399      1.0  0.65048  0.40928  0.14460  1.0000
  S   S400      1.0  0.61137  0.39692  0.18886  1.0000
  Fe  Fe204     1.0  0.68237  0.39043  0.18253  1.0000
  S   S401      1.0  0.69382  0.40124  0.15263  1.0000
  S   S402      1.0  0.70057  0.37737  0.20487  1.0000
  Fe  Fe205     1.0  0.66897  0.42459  0.15445  1.0000
  S   S403      1.0  0.67358  0.45360  0.13848  1.0000
  Fe  Fe206     1.0  0.67461  0.38514  0.14504  1.0000
  S   S404      1.0  0.68565  0.37024  0.12005  1.0000
  S   S405      1.0  0.65855  0.41482  0.18499  1.0000
  S   S406      1.0  0.66509  0.37216  0.17483  1.0000
  Fe  Fe207     1.0  0.63443  0.05897  0.26305  1.0000
  C   C2901     1.0  0.59829  0.29381  0.00075  1.0000
  S   S407      1.0  0.61241  0.07298  0.24471  1.0000
  Fe  Fe208     1.0  0.67624  0.04182  0.26235  1.0000
  C   C2902     1.0  0.61630  0.25632  0.99282  1.0000
  S   S408      1.0  0.70280  0.02732  0.24607  1.0000
  C   C2903     1.0  0.60173  0.22917  0.28880  1.0000
  C   C2904     1.0  0.50248  0.25429  0.27733  1.0000
  C   C2905     1.0  0.54859  0.40219  0.15885  1.0000
  S   S409      1.0  0.65011  0.02922  0.26610  1.0000
  S   S410      1.0  0.66098  0.07140  0.25670  1.0000
  H   H2329     1.0  0.48894  0.31477  0.14673  1.0000
  H   H2330     1.0  0.49363  0.25568  0.16796  1.0000
  C   C2906     1.0  0.54811  0.38547  0.13402  1.0000
  H   H2331     1.0  0.52654  0.38226  0.09387  1.0000
  C   C2907     1.0  0.68898  0.98043  0.26719  1.0000
  H   H2332     1.0  0.52827  0.34350  0.24948  1.0000
  H   H2333     1.0  0.65592  0.05872  0.97806  1.0000
  H   H2334     1.0  0.70278  0.31378  0.04290  1.0000
  H   H2335     1.0  0.71168  0.41432  0.19147  1.0000
  C   C2908     1.0  0.59466  0.29402  0.02008  1.0000
  C   C2909     1.0  0.57164  0.32796  0.22598  1.0000
  H   H2336     1.0  0.60670  0.24534  0.26078  1.0000
  C   C2910     1.0  0.56150  0.23738  0.02542  1.0000
  H   H2337     1.0  0.65120  0.23910  0.01882  1.0000
  H   H2338     1.0  0.68232  0.01746  0.18541  1.0000
  C   C2911     1.0  0.65012  0.23051  0.99314  1.0000
  C   C2912     1.0  0.72044  0.40640  0.20145  1.0000
  C   C2913     1.0  0.70997  0.23183  0.05976  1.0000
  H   H2339     1.0  0.52645  0.15306  0.27910  1.0000
  C   C2914     1.0  0.66062  0.30952  0.99202  1.0000
  C   C2915     1.0  0.65143  0.29496  0.99156  1.0000
  H   H2340     1.0  0.68574  0.45311  0.09696  1.0000
  C   C2916     1.0  0.66863  0.31971  0.97506  1.0000
  H   H2341     1.0  0.64499  0.28719  0.00446  1.0000
  H   H2342     1.0  0.67570  0.33108  0.97529  1.0000
  C   C2917     1.0  0.65731  0.32325  0.11228  1.0000
  C   C2918     1.0  0.67038  0.33096  0.09774  1.0000
  C   C2919     1.0  0.67901  0.34536  0.10027  1.0000
  C   C2920     1.0  0.67450  0.35224  0.11725  1.0000
  C   C2921     1.0  0.66152  0.34442  0.13179  1.0000
  C   C2922     1.0  0.65308  0.32992  0.12933  1.0000
  H   H2343     1.0  0.67376  0.32591  0.08456  1.0000
  H   H2344     1.0  0.68913  0.35127  0.08899  1.0000
  H   H2345     1.0  0.65799  0.34954  0.14494  1.0000
  H   H2346     1.0  0.64298  0.32402  0.14059  1.0000
  C   C2923     1.0  0.55395  0.23238  0.07504  1.0000
  C   C2924     1.0  0.57361  0.22700  0.07323  1.0000
  C   C2925     1.0  0.58529  0.24035  0.07168  1.0000
  C   C2926     1.0  0.57734  0.25921  0.07198  1.0000
  C   C2927     1.0  0.55773  0.26460  0.07356  1.0000
  C   C2928     1.0  0.54611  0.25131  0.07496  1.0000
  H   H2347     1.0  0.57981  0.21241  0.07312  1.0000
  H   H2348     1.0  0.60036  0.23604  0.07038  1.0000
  H   H2349     1.0  0.55144  0.27915  0.07378  1.0000
  H   H2350     1.0  0.53105  0.25570  0.07605  1.0000
  C   C2929     1.0  0.55424  0.05703  0.24921  1.0000
  C   C2930     1.0  0.55930  0.07308  0.23705  1.0000
  C   C2931     1.0  0.57712  0.07779  0.23592  1.0000
  C   C2932     1.0  0.59005  0.06656  0.24692  1.0000
  C   C2933     1.0  0.58502  0.05049  0.25904  1.0000
  C   C2934     1.0  0.56720  0.04577  0.26019  1.0000
  H   H2351     1.0  0.54950  0.08180  0.22846  1.0000
  H   H2352     1.0  0.58094  0.09020  0.22650  1.0000
  H   H2353     1.0  0.59497  0.04156  0.26730  1.0000
  H   H2354     1.0  0.56349  0.03326  0.26954  1.0000
  H   H2355     1.0  0.57040  0.11225  0.19890  1.0000
  H   H2356     1.0  0.54688  0.34604  0.14137  1.0000
  C   C2935     1.0  0.54863  0.15520  0.20908  1.0000
  H   H2357     1.0  0.67798  0.46850  0.97313  1.0000
  C   C2936     1.0  0.63242  0.23482  0.27126  1.0000
  H   H2358     1.0  0.51653  0.14493  0.14964  1.0000
  C   C2937     1.0  0.68082  0.02976  0.19171  1.0000
  H   H2359     1.0  0.61014  0.26151  0.20670  1.0000
  C   C2938     1.0  0.57429  0.35690  0.18140  1.0000
  C   C2939     1.0  0.56692  0.37084  0.19237  1.0000
  C   C2940     1.0  0.57854  0.38278  0.19477  1.0000
  C   C2941     1.0  0.59759  0.38093  0.18623  1.0000
  C   C2942     1.0  0.60508  0.36662  0.17572  1.0000
  C   C2943     1.0  0.59350  0.35461  0.17345  1.0000
  H   H2360     1.0  0.55222  0.37265  0.19871  1.0000
  H   H2361     1.0  0.57267  0.39372  0.20304  1.0000
  H   H2362     1.0  0.61975  0.36494  0.16923  1.0000
  H   H2363     1.0  0.59941  0.34370  0.16517  1.0000
  C   C2944     1.0  0.57231  0.28234  0.96448  1.0000
  C   C2945     1.0  0.50862  0.26088  0.25832  1.0000
  C   C2946     1.0  0.49430  0.18751  0.24724  1.0000
  C   C2947     1.0  0.54499  0.24945  0.03109  1.0000
  H   H2364     1.0  0.65608  0.22281  0.28539  1.0000
  H   H2365     1.0  0.61913  0.32787  0.19581  1.0000
  H   H2366     1.0  0.60506  0.27787  0.23360  1.0000
  H   H2367     1.0  0.57766  0.14149  0.20505  1.0000
  C   C2948     1.0  0.61810  0.22714  0.11368  1.0000
  C   C2949     1.0  0.63177  0.22063  0.12510  1.0000
  C   C2950     1.0  0.62830  0.22484  0.14315  1.0000
  C   C2951     1.0  0.61105  0.23535  0.14988  1.0000
  C   C2952     1.0  0.59696  0.24134  0.13875  1.0000
  C   C2953     1.0  0.60091  0.23773  0.12032  1.0000
  P   P97       1.0  0.57552  0.25657  0.14666  1.0000
  C   C2954     1.0  0.56612  0.25087  0.17130  1.0000
  C   C2955     1.0  0.58140  0.27985  0.13986  1.0000
  C   C2956     1.0  0.58309  0.29016  0.15315  1.0000
  C   C2957     1.0  0.58896  0.30760  0.14733  1.0000
  C   C2958     1.0  0.59367  0.31462  0.12826  1.0000
  C   C2959     1.0  0.59211  0.30440  0.11498  1.0000
  C   C2960     1.0  0.58589  0.28716  0.12074  1.0000
  C   C2961     1.0  0.55217  0.26391  0.17999  1.0000
  C   C2962     1.0  0.54422  0.25942  0.19885  1.0000
  C   C2963     1.0  0.54984  0.24174  0.20913  1.0000
  C   C2964     1.0  0.56323  0.22843  0.20044  1.0000
  C   C2965     1.0  0.57121  0.23289  0.18155  1.0000
  C   C2966     1.0  0.55679  0.25523  0.13509  1.0000
  C   C2967     1.0  0.55545  0.23839  0.12989  1.0000
  C   C2968     1.0  0.54065  0.23766  0.12109  1.0000
  C   C2969     1.0  0.52709  0.25363  0.11760  1.0000
  C   C2970     1.0  0.52823  0.27026  0.12300  1.0000
  C   C2971     1.0  0.54278  0.27095  0.13208  1.0000
  H   H2368     1.0  0.62100  0.22447  0.09944  1.0000
  H   H2369     1.0  0.64521  0.21270  0.11975  1.0000
  H   H2370     1.0  0.63912  0.22023  0.15179  1.0000
  H   H2371     1.0  0.60884  0.23911  0.16361  1.0000
  H   H2372     1.0  0.59094  0.24342  0.11085  1.0000
  H   H2373     1.0  0.58018  0.28478  0.16798  1.0000
  H   H2374     1.0  0.59001  0.31564  0.15759  1.0000
  H   H2375     1.0  0.59876  0.32784  0.12374  1.0000
  H   H2376     1.0  0.59596  0.30971  0.10019  1.0000
  H   H2377     1.0  0.58495  0.27936  0.11022  1.0000
  H   H2378     1.0  0.54714  0.27749  0.17213  1.0000
  H   H2379     1.0  0.53329  0.26953  0.20530  1.0000
  H   H2380     1.0  0.54342  0.23821  0.22367  1.0000
  H   H2381     1.0  0.56711  0.21451  0.20824  1.0000
  H   H2382     1.0  0.58097  0.22216  0.17489  1.0000
  H   H2383     1.0  0.56577  0.22586  0.13257  1.0000
  H   H2384     1.0  0.53983  0.22484  0.11661  1.0000
  H   H2385     1.0  0.51578  0.25324  0.11052  1.0000
  H   H2386     1.0  0.51769  0.28259  0.12027  1.0000
  H   H2387     1.0  0.54302  0.28372  0.13684  1.0000
  H   H2388     1.0  0.64094  0.24116  0.25874  1.0000
  H   H2389     1.0  0.52652  0.23894  0.16355  1.0000
  H   H2390     1.0  0.63135  0.13468  0.28088  1.0000
  C   C2972     1.0  0.54778  0.34254  0.12771  1.0000
  C   C2973     1.0  0.56321  0.14029  0.20536  1.0000
  S   S411      1.0  0.67459  0.04201  0.29285  1.0000
  H   H2391     1.0  0.49269  0.26378  0.22471  1.0000
  S   S412      1.0  0.50257  0.10020  0.23292  1.0000
  H   H2392     1.0  0.59195  0.27051  0.29341  1.0000
  C   C2974     1.0  0.50418  0.17690  0.27733  1.0000
  C   C2975     1.0  0.55298  0.28202  0.24796  1.0000
  H   H2393     1.0  0.70686  0.21964  0.10338  1.0000
  H   H2394     1.0  0.64057  0.30654  0.25519  1.0000
  H   H2395     1.0  0.61659  0.33427  0.98588  1.0000
  C   C2976     1.0  0.56428  0.26605  0.24186  1.0000
  C   C2977     1.0  0.67530  0.46946  0.16863  1.0000
  C   C2978     1.0  0.72815  0.03234  0.28865  1.0000
  C   C2979     1.0  0.55916  0.12380  0.20192  1.0000
  H   H2396     1.0  0.51322  0.24108  0.19659  1.0000
  H   H2397     1.0  0.56734  0.26533  0.22707  1.0000
  S   S413      1.0  0.50005  0.06683  0.21087  1.0000
  H   H2398     1.0  0.49911  0.17258  0.13117  1.0000
  C   C2980     1.0  0.57344  0.33102  0.25742  1.0000
  C   C2981     1.0  0.64332  0.24090  0.00758  1.0000
  C   C2982     1.0  0.63352  0.28652  0.27968  1.0000
  C   C2983     1.0  0.49561  0.26722  0.28953  1.0000
  H   H2399     1.0  0.55478  0.16520  0.28221  1.0000
  C   C2984     1.0  0.61231  0.27591  0.20444  1.0000
  C   C2985     1.0  0.55736  0.39558  0.14229  1.0000
  C   C2986     1.0  0.56931  0.11055  0.28130  1.0000
  C   C2987     1.0  0.71525  0.07982  0.27811  1.0000
  C   C2988     1.0  0.61002  0.32328  0.99540  1.0000
  C   C2989     1.0  0.48278  0.26505  0.14221  1.0000
  H   H2400     1.0  0.67933  0.27087  0.00402  1.0000
  C   C2990     1.0  0.71866  0.01705  0.29346  1.0000
  C   C2991     1.0  0.48717  0.08924  0.15589  1.0000
  H   H2401     1.0  0.52714  0.17949  0.17544  1.0000
  S   S414      1.0  0.50339  0.22982  0.28481  1.0000
  H   H2402     1.0  0.54715  0.29358  0.23799  1.0000
  H   H2403     1.0  0.51435  0.25097  0.24888  1.0000
  C   C2992     1.0  0.71672  0.01976  0.15782  1.0000
  C   C2993     1.0  0.71534  0.29870  0.06670  1.0000
  C   C2994     1.0  0.57039  0.21098  0.28678  1.0000
  H   H2404     1.0  0.71606  0.24156  0.96262  1.0000
  C   C2995     1.0  0.72048  0.29862  0.97352  1.0000
  C   C2996     1.0  0.72297  0.21498  0.05941  1.0000
  C   C2997     1.0  0.52805  0.20895  0.16761  1.0000
  C   C2998     1.0  0.49226  0.18902  0.26605  1.0000
  C   C2999     1.0  0.71703  0.22819  0.99134  1.0000
  C   C3000     1.0  0.71044  0.24227  0.97714  1.0000
  H   H2405     1.0  0.72150  0.46641  0.16392  1.0000
  C   C3001     1.0  0.68960  0.25892  0.00035  1.0000
  C   C3002     1.0  0.69643  0.24532  0.01451  1.0000
  C   C3003     1.0  0.71025  0.23010  0.01011  1.0000
  H   H2406     1.0  0.64500  0.22442  0.96768  1.0000
  H   H2407     1.0  0.61610  0.38236  0.23019  1.0000
  H   H2408     1.0  0.55213  0.26898  0.29474  1.0000
  C   C3004     1.0  0.69657  0.25746  0.98164  1.0000
  H   H2409     1.0  0.59591  0.30870  0.04186  1.0000
  H   H2410     1.0  0.72321  0.97450  0.22749  1.0000
  H   H2411     1.0  0.70507  0.45036  0.25660  1.0000
  H   H2412     1.0  0.67364  0.23377  0.11301  1.0000
  C   C3005     1.0  0.50709  0.28022  0.25130  1.0000
  H   H2413     1.0  0.70189  0.29829  0.07582  1.0000
  H   H2414     1.0  0.69139  0.26828  0.97069  1.0000
  C   C3006     1.0  0.70210  0.02744  0.14757  1.0000
  C   C3007     1.0  0.64098  0.22453  0.28626  1.0000
  H   H2415     1.0  0.48555  0.14766  0.23710  1.0000
  H   H2416     1.0  0.54709  0.34089  0.27431  1.0000
  H   H2417     1.0  0.71554  0.01107  0.28254  1.0000
  H   H2418     1.0  0.53044  0.08522  0.27523  1.0000
  C   C3008     1.0  0.70031  0.45457  0.09578  1.0000
  H   H2419     1.0  0.69116  0.24687  0.02891  1.0000
  H   H2420     1.0  0.70869  0.42566  0.10780  1.0000
  H   H2421     1.0  0.71795  0.20172  0.06304  1.0000
  C   C3009     1.0  0.57550  0.26407  0.00741  1.0000
  H   H2422     1.0  0.55845  0.43742  0.06845  1.0000
  H   H2423     1.0  0.51149  0.28505  0.23657  1.0000
  H   H2424     1.0  0.58564  0.29113  0.26392  1.0000
  C   C3010     1.0  0.60259  0.27826  0.28490  1.0000
  H   H2425     1.0  0.70328  0.08539  0.97283  1.0000
  H   H2426     1.0  0.53543  0.19631  0.27290  1.0000
  C   C3011     1.0  0.72220  0.05714  0.23745  1.0000
  H   H2427     1.0  0.71216  0.99758  0.11612  1.0000
  H   H2428     1.0  0.54139  0.11000  0.25028  1.0000
  H   H2429     1.0  0.61022  0.33426  0.02004  1.0000
  C   C3012     1.0  0.61227  0.30392  0.21680  1.0000
  C   C3013     1.0  0.68462  0.24214  0.11067  1.0000
  H   H2430     1.0  0.54491  0.22518  0.27617  1.0000
  C   C3014     1.0  0.54875  0.08742  0.29388  1.0000
  H   H2431     1.0  0.66234  0.97213  0.26864  1.0000
  H   H2432     1.0  0.53868  0.31608  0.13935  1.0000
  C   C3015     1.0  0.62643  0.25368  0.00749  1.0000
  C   C3016     1.0  0.72963  0.09183  0.97513  1.0000
  Fe  Fe209     1.0  0.49290  0.09840  0.20657  1.0000
  H   H2433     1.0  0.71752  0.34611  0.16583  1.0000
  H   H2434     1.0  0.61507  0.24658  0.96755  1.0000
  H   H2435     1.0  0.63669  0.16502  0.28645  1.0000
  H   H2436     1.0  0.52181  0.37606  0.13551  1.0000
  P   P98       1.0  0.71896  0.03004  0.17717  1.0000
  C   C3017     1.0  0.60956  0.28521  0.21968  1.0000
  H   H2437     1.0  0.55192  0.16792  0.21171  1.0000
  C   C3018     1.0  0.71349  0.00389  0.12761  1.0000
  H   H2438     1.0  0.60935  0.30887  0.97356  1.0000
  C   C3019     1.0  0.54727  0.10647  0.26307  1.0000
  H   H2439     1.0  0.62137  0.26159  0.01881  1.0000
  H   H2440     1.0  0.53003  0.43488  0.05680  1.0000
  H   H2441     1.0  0.51411  0.40730  0.06967  1.0000
  H   H2442     1.0  0.72333  0.36448  0.13371  1.0000
  C   C3020     1.0  0.71583  0.30767  0.04807  1.0000
  C   C3021     1.0  0.61247  0.30068  0.25734  1.0000
  C   C3022     1.0  0.54866  0.28292  0.26703  1.0000
  C   C3023     1.0  0.52596  0.13707  0.20600  1.0000
  C   C3024     1.0  0.59902  0.29007  0.26821  1.0000
  C   C3025     1.0  0.72387  0.44085  0.15350  1.0000
  C   C3026     1.0  0.62289  0.24529  0.97871  1.0000
  C   C3027     1.0  0.53565  0.42382  0.06730  1.0000
  C   C3028     1.0  0.49461  0.28662  0.28257  1.0000
  H   H2443     1.0  0.62053  0.35992  0.13376  1.0000
  H   H2444     1.0  0.70578  0.19179  0.01253  1.0000
  H   H2445     1.0  0.68906  0.02536  0.12480  1.0000
  C   C3029     1.0  0.72000  0.32867  0.11670  1.0000
  S   S415      1.0  0.50472  0.11598  0.17929  1.0000
  C   C3030     1.0  0.54056  0.12223  0.20220  1.0000
  C   C3031     1.0  0.58236  0.32601  0.24004  1.0000
  C   C3032     1.0  0.71749  0.24514  0.10143  1.0000
  C   C3033     1.0  0.49240  0.28548  0.15906  1.0000
  C   C3034     1.0  0.56150  0.11544  0.26495  1.0000
  C   C3035     1.0  0.55398  0.33725  0.26083  1.0000
  P   P99       1.0  0.60720  0.31652  0.23617  1.0000
  C   C3036     1.0  0.62077  0.33535  0.23070  1.0000
  C   C3037     1.0  0.67658  0.06081  0.20914  1.0000
  C   C3038     1.0  0.66126  0.05185  0.21072  1.0000
  C   C3039     1.0  0.66340  0.03630  0.20204  1.0000
  H   H2446     1.0  0.67502  0.07267  0.21610  1.0000
  H   H2447     1.0  0.64780  0.05682  0.21890  1.0000
  H   H2448     1.0  0.65157  0.02920  0.20357  1.0000
  C   C3040     1.0  0.49261  0.07111  0.16530  1.0000
  C   C3041     1.0  0.71738  0.45580  0.25741  1.0000
  C   C3042     1.0  0.48709  0.30094  0.14560  1.0000
  H   H2449     1.0  0.70582  0.06102  0.19854  1.0000
  H   H2450     1.0  0.55776  0.29119  0.00899  1.0000
  H   H2451     1.0  0.55605  0.40942  0.16547  1.0000
  C   C3043     1.0  0.64017  0.33173  0.22373  1.0000
  H   H2452     1.0  0.70715  0.16513  0.03885  1.0000
  C   C3044     1.0  0.70694  0.09454  0.26564  1.0000
  C   C3045     1.0  0.52671  0.40826  0.07452  1.0000
  H   H2453     1.0  0.58916  0.28260  0.02998  1.0000
  C   C3046     1.0  0.69405  0.05423  0.19897  1.0000
  C   C3047     1.0  0.52079  0.38984  0.15850  1.0000
  C   C3048     1.0  0.55021  0.39515  0.09445  1.0000
  H   H2454     1.0  0.67131  0.45679  0.17748  1.0000
  C   C3049     1.0  0.71933  0.18387  0.01521  1.0000
  C   C3050     1.0  0.55586  0.26797  0.28004  1.0000
  H   H2455     1.0  0.69214  0.09602  0.26504  1.0000
  H   H2456     1.0  0.64706  0.31780  0.22133  1.0000
  C   C3051     1.0  0.67998  0.26107  0.11233  1.0000
  C   C3052     1.0  0.72131  0.99954  0.20654  1.0000
  H   H2457     1.0  0.72672  0.08949  0.99029  1.0000
  H   H2458     1.0  0.52367  0.40404  0.18002  1.0000
  C   C3053     1.0  0.50882  0.17441  0.23939  1.0000
  C   C3054     1.0  0.69403  0.27213  0.10837  1.0000
  C   C3055     1.0  0.54109  0.09233  0.27733  1.0000
  H   H2459     1.0  0.50730  0.06588  0.16619  1.0000
  H   H2460     1.0  0.57961  0.23845  0.24998  1.0000
  H   H2461     1.0  0.58937  0.23498  0.00942  1.0000
  C   C3056     1.0  0.48876  0.16873  0.21194  1.0000
  C   C3057     1.0  0.51666  0.22748  0.19221  1.0000
  H   H2462     1.0  0.48131  0.19937  0.27207  1.0000
  H   H2463     1.0  0.58405  0.16337  0.29451  1.0000
  C   C3058     1.0  0.65044  0.29046  0.97436  1.0000
  Fe  Fe210     1.0  0.48659  0.35635  0.19145  1.0000
  H   H2464     1.0  0.66541  0.26731  0.11632  1.0000
  H   H2465     1.0  0.70502  0.33479  0.14349  1.0000
  Fe  Fe211     1.0  0.65720  0.07068  0.28774  1.0000
  Fe  Fe212     1.0  0.50129  0.32767  0.22348  1.0000
  H   H2466     1.0  0.68993  0.28690  0.10931  1.0000
  C   C3059     1.0  0.55393  0.21185  0.27971  1.0000
  H   H2467     1.0  0.70654  0.07027  0.28719  1.0000
  H   H2468     1.0  0.50657  0.38771  0.16472  1.0000
  C   C3060     1.0  0.51800  0.16311  0.26996  1.0000
  H   H2469     1.0  0.56254  0.22241  0.03057  1.0000
  C   C3061     1.0  0.71573  0.29147  0.13130  1.0000
  H   H2470     1.0  0.66585  0.34331  0.21456  1.0000
  C   C3062     1.0  0.58135  0.19335  0.29183  1.0000
  C   C3063     1.0  0.52454  0.19275  0.18041  1.0000
  S   S416      1.0  0.49857  0.31764  0.25488  1.0000
  C   C3064     1.0  0.71667  0.24886  0.05488  1.0000
  C   C3065     1.0  0.72065  0.28301  0.00569  1.0000
  C   C3066     1.0  0.61290  0.23711  0.27249  1.0000
  H   H2471     1.0  0.53334  0.24376  0.04049  1.0000
  H   H2472     1.0  0.50761  0.21269  0.21947  1.0000
  C   C3067     1.0  0.71788  0.38816  0.21001  1.0000
  C   C3068     1.0  0.54338  0.32534  0.12660  1.0000
  C   C3069     1.0  0.54528  0.32009  0.10916  1.0000
  C   C3070     1.0  0.55176  0.33194  0.09285  1.0000
  C   C3071     1.0  0.55584  0.34929  0.09391  1.0000
  C   C3072     1.0  0.55335  0.35494  0.11133  1.0000
  P   P100      1.0  0.55917  0.37715  0.11243  1.0000
  C   C3073     1.0  0.58449  0.37345  0.10898  1.0000
  C   C3074     1.0  0.59510  0.37561  0.09084  1.0000
  C   C3075     1.0  0.61476  0.37244  0.08824  1.0000
  C   C3076     1.0  0.62391  0.36704  0.10372  1.0000
  C   C3077     1.0  0.61343  0.36435  0.12177  1.0000
  C   C3078     1.0  0.59380  0.36721  0.12437  1.0000
  H   H2473     1.0  0.54206  0.30675  0.10817  1.0000
  H   H2474     1.0  0.55374  0.32756  0.07940  1.0000
  H   H2475     1.0  0.56098  0.35826  0.08114  1.0000
  H   H2476     1.0  0.58823  0.37957  0.07870  1.0000
  H   H2477     1.0  0.62297  0.37404  0.07425  1.0000
  H   H2478     1.0  0.63913  0.36471  0.10171  1.0000
  H   H2479     1.0  0.71113  0.11878  0.24442  1.0000
  H   H2480     1.0  0.58585  0.36449  0.13835  1.0000
  H   H2481     1.0  0.57136  0.39835  0.13609  1.0000
  H   H2482     1.0  0.57109  0.41246  0.09267  1.0000
  C   C3079     1.0  0.52987  0.15360  0.20959  1.0000
  C   C3080     1.0  0.49148  0.16344  0.14213  1.0000
  C   C3081     1.0  0.51719  0.19373  0.19932  1.0000
  H   H2483     1.0  0.64692  0.28512  0.28414  1.0000
  H   H2484     1.0  0.70135  0.30802  0.99727  1.0000
  H   H2485     1.0  0.58066  0.11719  0.28256  1.0000
  H   H2486     1.0  0.51169  0.13556  0.20598  1.0000
  H   H2487     1.0  0.58149  0.32997  0.26836  1.0000
  C   C3082     1.0  0.71099  0.32392  0.13513  1.0000
  C   C3083     1.0  0.51332  0.21127  0.20514  1.0000
  C   C3084     1.0  0.57127  0.25094  0.25485  1.0000
  S   S417      1.0  0.49339  0.22413  0.11417  1.0000
  C   C3085     1.0  0.62986  0.29867  0.26315  1.0000
  C   C3086     1.0  0.56738  0.25188  0.27404  1.0000
  C   C3087     1.0  0.63983  0.23259  0.97880  1.0000
  H   H2488     1.0  0.54421  0.33590  0.21842  1.0000
  H   H2489     1.0  0.72117  0.05742  0.14197  1.0000
  C   C3088     1.0  0.53037  0.39916  0.16705  1.0000
  H   H2490     1.0  0.61973  0.27818  0.17439  1.0000
  H   H2491     1.0  0.53939  0.29512  0.27171  1.0000
  H   H2492     1.0  0.71466  0.28206  0.02044  1.0000
  H   H2493     1.0  0.65045  0.37548  0.21907  1.0000
  C   C3089     1.0  0.64531  0.08825  0.97094  1.0000
  H   H2494     1.0  0.70696  0.26190  0.05504  1.0000
  C   C3090     1.0  0.54845  0.19542  0.27788  1.0000
  S   S418      1.0  0.48865  0.20215  0.08131  1.0000
  C   C3091     1.0  0.71299  0.26421  0.10310  1.0000
  C   C3092     1.0  0.70336  0.23418  0.10529  1.0000
  C   C3093     1.0  0.64221  0.36427  0.22243  1.0000
  C   C3094     1.0  0.52413  0.22630  0.17351  1.0000
  C   C3095     1.0  0.62287  0.36809  0.22889  1.0000
  C   C3096     1.0  0.70903  0.30530  0.14250  1.0000
  C   C3097     1.0  0.71763  0.10742  0.25408  1.0000
  H   H2495     1.0  0.70899  0.06582  0.24201  1.0000
  C   C3098     1.0  0.70786  0.97439  0.26903  1.0000
  H   H2496     1.0  0.71933  0.44838  0.05612  1.0000
  S   S419      1.0  0.50255  0.28761  0.17789  1.0000
  H   H2497     1.0  0.53739  0.10953  0.19932  1.0000
  H   H2498     1.0  0.70229  0.21207  0.96727  1.0000
  C   C3099     1.0  0.69626  0.03879  0.18997  1.0000
  C   C3100     1.0  0.61215  0.35374  0.23300  1.0000
  C   C3101     1.0  0.65086  0.34610  0.21983  1.0000
  C   C3102     1.0  0.62028  0.30392  0.18330  1.0000
  H   H2499     1.0  0.59715  0.35724  0.23762  1.0000
  C   C3103     1.0  0.54338  0.33880  0.24686  1.0000
  H   H2500     1.0  0.57809  0.32464  0.21230  1.0000
  C   C3104     1.0  0.61769  0.28527  0.18626  1.0000
  C   C3105     1.0  0.61753  0.31325  0.19847  1.0000
  C   C3106     1.0  0.52955  0.38313  0.14198  1.0000
  C   C3107     1.0  0.57671  0.24461  0.01356  1.0000
  H   H2501     1.0  0.49767  0.09804  0.14948  1.0000
  H   H2502     1.0  0.71383  0.27714  0.13711  1.0000
  C   C3108     1.0  0.60649  0.32325  0.01464  1.0000
  C   C3109     1.0  0.59046  0.28071  0.96843  1.0000
  C   C3110     1.0  0.54372  0.26882  0.02515  1.0000
  H   H2503     1.0  0.68361  0.99529  0.26360  1.0000
  C   C3111     1.0  0.70049  0.01950  0.13254  1.0000
  C   C3112     1.0  0.48863  0.11755  0.28214  1.0000
  C   C3113     1.0  0.59860  0.30876  0.02693  1.0000
  H   H2504     1.0  0.53102  0.27813  0.02994  1.0000
  H   H2505     1.0  0.72971  0.41444  0.14429  1.0000
  S   S420      1.0  0.49019  0.24726  0.07123  1.0000
  C   C3114     1.0  0.49793  0.12358  0.29397  1.0000
  H   H2506     1.0  0.53340  0.20806  0.15301  1.0000
  C   C3115     1.0  0.55929  0.17794  0.28319  1.0000
  H   H2507     1.0  0.53088  0.15075  0.24587  1.0000
  C   C3116     1.0  0.61987  0.27638  0.29060  1.0000
  H   H2508     1.0  0.71675  0.98485  0.26660  1.0000
  H   H2509     1.0  0.70956  0.44387  0.15088  1.0000
  P   P101      1.0  0.57634  0.23219  0.29079  1.0000
  C   C3117     1.0  0.50008  0.29321  0.26337  1.0000
  P   P102      1.0  0.59507  0.27366  0.99220  1.0000
  C   C3118     1.0  0.71326  0.43906  0.10203  1.0000
  C   C3119     1.0  0.71313  0.29762  0.99261  1.0000
  C   C3120     1.0  0.52039  0.16186  0.25105  1.0000
  C   C3121     1.0  0.60591  0.30867  0.98846  1.0000
  H   H2510     1.0  0.70610  0.00186  0.20916  1.0000
  C   C3122     1.0  0.72005  0.16869  0.03007  1.0000
  H   H2511     1.0  0.63182  0.08749  0.98003  1.0000
  H   H2512     1.0  0.66331  0.22078  0.99317  1.0000
  H   H2513     1.0  0.50238  0.17788  0.29195  1.0000
  C   C3123     1.0  0.72294  0.03798  0.23812  1.0000
  C   C3124     1.0  0.49164  0.13575  0.16690  1.0000
  H   H2514     1.0  0.69192  0.03953  0.15121  1.0000
  H   H2515     1.0  0.70188  0.30170  0.15674  1.0000
  H   H2516     1.0  0.53115  0.04387  0.29210  1.0000
  C   C3125     1.0  0.65888  0.07206  0.96983  1.0000
  H   H2517     1.0  0.71576  0.22009  0.02139  1.0000
  C   C3126     1.0  0.57576  0.17692  0.29011  1.0000
  H   H2518     1.0  0.48927  0.29658  0.29202  1.0000
  C   C3127     1.0  0.72065  0.45833  0.04310  1.0000
  C   C3128     1.0  0.48052  0.25728  0.22590  1.0000
  H   H2519     1.0  0.72113  0.34320  0.11093  1.0000
  C   C3129     1.0  0.72421  0.29627  0.11255  1.0000
  C   C3130     1.0  0.72657  0.31493  0.10540  1.0000
  C   C3131     1.0  0.62646  0.13871  0.29454  1.0000
  S   S421      1.0  0.62970  0.06013  0.29367  1.0000
  C   C3132     1.0  0.48998  0.26761  0.15741  1.0000
  H   H2520     1.0  0.50129  0.03977  0.28509  1.0000
  C   C3133     1.0  0.48036  0.17873  0.19662  1.0000
  C   C3134     1.0  0.72817  0.99627  0.13764  1.0000
  C   C3135     1.0  0.72799  0.35517  0.16212  1.0000
  C   C3136     1.0  0.50120  0.04970  0.29401  1.0000
  C   C3137     1.0  0.72942  0.37810  0.22298  1.0000
  H   H2521     1.0  0.72757  0.36398  0.22969  1.0000
  H   H2522     1.0  0.48447  0.19643  0.23880  1.0000
  H   H2523     1.0  0.48711  0.23596  0.24948  1.0000
  H   H2524     1.0  0.48313  0.04612  0.18193  1.0000
  H   H2525     1.0  0.71402  0.30973  0.96361  1.0000
  H   H2526     1.0  0.48730  0.18866  0.18601  1.0000
  C   C3138     1.0  0.72984  0.00418  0.15263  1.0000
  H   H2527     1.0  0.48131  0.25116  0.14099  1.0000
  H   H2528     1.0  0.51218  0.11701  0.29533  1.0000
  Fe  Fe213     1.0  0.49429  0.21419  0.31413  1.0000
  S   S422      1.0  0.51628  0.18964  0.32246  1.0000
  H   H2529     1.0  0.53960  0.24087  0.36488  1.0000
  C   C3139     1.0  0.69982  0.46261  0.58399  1.0000
  Fe  Fe214     1.0  0.50700  0.19567  0.35161  1.0000
  S   S423      1.0  0.52593  0.19480  0.37257  1.0000
  H   H2530     1.0  0.62485  0.03320  0.55325  1.0000
  H   H2531     1.0  0.70123  0.14344  0.61210  1.0000
  S   S424      1.0  0.64282  0.00710  0.32027  1.0000
  Fe  Fe215     1.0  0.70646  0.14591  0.55917  1.0000
  S   S425      1.0  0.68509  0.14258  0.54307  1.0000
  H   H2532     1.0  0.66503  0.39631  0.61941  1.0000
  Fe  Fe216     1.0  0.70155  0.18894  0.54673  1.0000
  S   S426      1.0  0.67949  0.18854  0.52995  1.0000
  C   C3140     1.0  0.68168  0.09383  0.57221  1.0000
  Fe  Fe217     1.0  0.66803  0.16800  0.55439  1.0000
  S   S427      1.0  0.63690  0.17052  0.56606  1.0000
  Fe  Fe218     1.0  0.69844  0.16337  0.52006  1.0000
  S   S428      1.0  0.70732  0.16108  0.48926  1.0000
  S   S429      1.0  0.68856  0.17022  0.57181  1.0000
  H   H2533     1.0  0.72976  0.23504  0.47662  1.0000
  H   H2534     1.0  0.72919  0.15711  0.41750  1.0000
  Fe  Fe219     1.0  0.63810  0.18081  0.36997  1.0000
  S   S430      1.0  0.64094  0.15385  0.39059  1.0000
  S   S431      1.0  0.61504  0.18988  0.35184  1.0000
  Fe  Fe220     1.0  0.67774  0.18731  0.37241  1.0000
  S   S432      1.0  0.68339  0.16024  0.39235  1.0000
  S   S433      1.0  0.69780  0.20848  0.36156  1.0000
  Fe  Fe221     1.0  0.67013  0.14742  0.37434  1.0000
  S   S434      1.0  0.68064  0.11769  0.36804  1.0000
  Fe  Fe222     1.0  0.65394  0.16900  0.40671  1.0000
  S   S435      1.0  0.64622  0.16637  0.43832  1.0000
  S   S436      1.0  0.66701  0.17376  0.35302  1.0000
  S   S437      1.0  0.64855  0.19675  0.38747  1.0000
  H   H2535     1.0  0.71975  0.11062  0.38234  1.0000
  C   C3141     1.0  0.57673  0.04809  0.30633  1.0000
  H   H2536     1.0  0.52304  0.23129  0.34368  1.0000
  C   C3142     1.0  0.54803  0.13741  0.32959  1.0000
  C   C3143     1.0  0.69737  0.24225  0.61104  1.0000
  H   H2537     1.0  0.50840  0.13474  0.55217  1.0000
  C   C3144     1.0  0.69535  0.43229  0.61361  1.0000
  P   P103      1.0  0.67849  0.06724  0.53018  1.0000
  C   C3145     1.0  0.66654  0.10248  0.31599  1.0000
  C   C3146     1.0  0.67114  0.08836  0.33095  1.0000
  C   C3147     1.0  0.67523  0.09315  0.34697  1.0000
  C   C3148     1.0  0.67477  0.11202  0.34812  1.0000
  C   C3149     1.0  0.67022  0.12601  0.33314  1.0000
  C   C3150     1.0  0.66635  0.12123  0.31714  1.0000
  H   H2538     1.0  0.67863  0.08222  0.35853  1.0000
  H   H2539     1.0  0.66997  0.14055  0.33372  1.0000
  H   H2540     1.0  0.70125  0.07190  0.45985  1.0000
  S   S438      1.0  0.72140  0.16471  0.53538  1.0000
  C   C3151     1.0  0.71105  0.43112  0.59923  1.0000
  H   H2541     1.0  0.51787  0.11731  0.35344  1.0000
  H   H2542     1.0  0.64026  0.11262  0.58336  1.0000
  C   C3152     1.0  0.61524  0.14823  0.33023  1.0000
  H   H2543     1.0  0.52516  0.09555  0.38232  1.0000
  P   P104      1.0  0.54052  0.06952  0.31264  1.0000
  C   C3153     1.0  0.68213  0.44901  0.61324  1.0000
  C   C3154     1.0  0.69015  0.16283  0.47527  1.0000
  C   C3155     1.0  0.69571  0.16387  0.45582  1.0000
  C   C3156     1.0  0.68247  0.16468  0.44435  1.0000
  C   C3157     1.0  0.66354  0.16443  0.45226  1.0000
  C   C3158     1.0  0.65805  0.16319  0.47172  1.0000
  C   C3159     1.0  0.67126  0.16248  0.48319  1.0000
  H   H2544     1.0  0.71029  0.16415  0.44960  1.0000
  H   H2545     1.0  0.68687  0.16592  0.42938  1.0000
  H   H2546     1.0  0.64343  0.16305  0.47795  1.0000
  H   H2547     1.0  0.66685  0.16157  0.49816  1.0000
  S   S439      1.0  0.48651  0.22177  0.34298  1.0000
  H   H2548     1.0  0.53863  0.22765  0.31165  1.0000
  C   C3160     1.0  0.61227  0.17129  0.59941  1.0000
  C   C3161     1.0  0.63095  0.16612  0.59070  1.0000
  C   C3162     1.0  0.64455  0.15722  0.60173  1.0000
  H   H2549     1.0  0.61023  0.13433  0.58995  1.0000
  C   C3163     1.0  0.55758  0.04797  0.31376  1.0000
  H   H2550     1.0  0.60166  0.17807  0.59093  1.0000
  H   H2551     1.0  0.65883  0.15271  0.59522  1.0000
  H   H2552     1.0  0.68043  0.20898  0.59059  1.0000
  C   C3164     1.0  0.65790  0.21353  0.57528  1.0000
  H   H2553     1.0  0.48863  0.19956  0.40049  1.0000
  H   H2554     1.0  0.72919  0.08543  0.60110  1.0000
  H   H2555     1.0  0.56052  0.00117  0.33170  1.0000
  H   H2556     1.0  0.72439  0.23388  0.35086  1.0000
  C   C3165     1.0  0.48435  0.06086  0.30052  1.0000
  H   H2557     1.0  0.71366  0.11766  0.49524  1.0000
  C   C3166     1.0  0.61778  0.12642  0.30921  1.0000
  C   C3167     1.0  0.55087  0.19202  0.36696  1.0000
  C   C3168     1.0  0.56121  0.19224  0.38084  1.0000
  C   C3169     1.0  0.58097  0.19082  0.37670  1.0000
  C   C3170     1.0  0.59057  0.18925  0.35858  1.0000
  C   C3171     1.0  0.58025  0.18845  0.34490  1.0000
  C   C3172     1.0  0.56056  0.18982  0.34902  1.0000
  H   H2558     1.0  0.55388  0.19384  0.39479  1.0000
  H   H2559     1.0  0.58869  0.19149  0.38738  1.0000
  H   H2560     1.0  0.58751  0.18677  0.33100  1.0000
  H   H2561     1.0  0.55286  0.18938  0.33824  1.0000
  H   H2562     1.0  0.57411  0.12104  0.31881  1.0000
  H   H2563     1.0  0.68903  0.04242  0.56421  1.0000
  H   H2564     1.0  0.54133  0.13730  0.31793  1.0000
  C   C3173     1.0  0.53659  0.07777  0.33468  1.0000
  C   C3174     1.0  0.66627  0.21224  0.42747  1.0000
  C   C3175     1.0  0.67874  0.22172  0.41377  1.0000
  C   C3176     1.0  0.69216  0.22961  0.41895  1.0000
  C   C3177     1.0  0.69324  0.22801  0.43794  1.0000
  C   C3178     1.0  0.71879  0.11668  0.40994  1.0000
  P   P105      1.0  0.71103  0.23741  0.44492  1.0000
  C   C3179     1.0  0.51816  0.05202  0.29809  1.0000
  C   C3180     1.0  0.70260  0.24327  0.46804  1.0000
  C   C3181     1.0  0.71503  0.24027  0.48072  1.0000
  C   C3182     1.0  0.70843  0.24357  0.49900  1.0000
  C   C3183     1.0  0.68930  0.24977  0.50483  1.0000
  C   C3184     1.0  0.67686  0.25341  0.49211  1.0000
  C   C3185     1.0  0.68352  0.25044  0.47367  1.0000
  C   C3186     1.0  0.69369  0.04620  0.52390  1.0000
  H   H2565     1.0  0.68447  0.32476  0.44881  1.0000
  C   C3187     1.0  0.72738  0.25622  0.41076  1.0000
  S   S440      1.0  0.48532  0.17662  0.35922  1.0000
  H   H2566     1.0  0.65600  0.20595  0.42350  1.0000
  H   H2567     1.0  0.67822  0.22270  0.39908  1.0000
  H   H2568     1.0  0.70173  0.23660  0.40798  1.0000
  C   C3188     1.0  0.63867  0.21443  0.57614  1.0000
  H   H2569     1.0  0.56911  0.09291  0.30831  1.0000
  H   H2570     1.0  0.71808  0.24084  0.50884  1.0000
  H   H2571     1.0  0.68418  0.25155  0.51926  1.0000
  H   H2572     1.0  0.66202  0.25820  0.49663  1.0000
  H   H2573     1.0  0.67372  0.25320  0.46399  1.0000
  C   C3189     1.0  0.60559  0.12335  0.61952  1.0000
  H   H2574     1.0  0.66523  0.30700  0.47542  1.0000
  C   C3190     1.0  0.68499  0.16898  0.62062  1.0000
  C   C3191     1.0  0.50135  0.07662  0.31535  1.0000
  H   H2575     1.0  0.68226  0.21530  0.46621  1.0000
  H   H2576     1.0  0.58166  0.06086  0.29891  1.0000
  H   H2577     1.0  0.65795  0.20270  0.45692  1.0000
  H   H2578     1.0  0.51242  0.10078  0.56571  1.0000
  C   C3192     1.0  0.54613  0.23218  0.32052  1.0000
  H   H2579     1.0  0.61869  0.35615  0.62622  1.0000
  H   H2580     1.0  0.69065  0.97420  0.58149  1.0000
  C   C3193     1.0  0.71736  0.01323  0.51476  1.0000
  C   C3194     1.0  0.72653  0.08827  0.33967  1.0000
  H   H2581     1.0  0.73009  0.34512  0.60603  1.0000
  H   H2582     1.0  0.72524  0.10932  0.54380  1.0000
  C   C3195     1.0  0.71449  0.06288  0.38272  1.0000
  C   C3196     1.0  0.63003  0.21648  0.30247  1.0000
  C   C3197     1.0  0.68689  0.07889  0.58614  1.0000
  C   C3198     1.0  0.55185  0.03088  0.32286  1.0000
  Fe  Fe223     1.0  0.49301  0.17261  0.32908  1.0000
  C   C3199     1.0  0.53633  0.07181  0.36827  1.0000
  H   H2583     1.0  0.68911  0.08172  0.59910  1.0000
  H   H2584     1.0  0.61568  0.11324  0.30647  1.0000
  H   H2585     1.0  0.57327  0.09011  0.34666  1.0000
  C   C3200     1.0  0.52848  0.09058  0.36907  1.0000
  C   C3201     1.0  0.56470  0.23542  0.31421  1.0000
  H   H2586     1.0  0.65857  0.03547  0.54581  1.0000
  H   H2587     1.0  0.70669  0.09206  0.52159  1.0000
  H   H2588     1.0  0.69483  0.08491  0.39445  1.0000
  H   H2589     1.0  0.67496  0.10209  0.54462  1.0000
  H   H2590     1.0  0.60075  0.06168  0.54754  1.0000
  C   C3202     1.0  0.54013  0.06535  0.35120  1.0000
  C   C3203     1.0  0.63429  0.98095  0.30318  1.0000
  H   H2591     1.0  0.71694  0.06106  0.48721  1.0000
  C   C3204     1.0  0.52459  0.10291  0.35279  1.0000
  C   C3205     1.0  0.68440  0.46409  0.59851  1.0000
  H   H2592     1.0  0.70417  0.27791  0.44737  1.0000
  C   C3206     1.0  0.52896  0.09665  0.33562  1.0000
  C   C3207     1.0  0.64021  0.08144  0.53211  1.0000
  H   H2593     1.0  0.59701  0.38443  0.61413  1.0000
  C   C3208     1.0  0.54671  0.14727  0.35902  1.0000
  H   H2594     1.0  0.70505  0.99822  0.31590  1.0000
  C   C3209     1.0  0.71669  0.01772  0.32628  1.0000
  C   C3210     1.0  0.62402  0.16043  0.31556  1.0000
  H   H2595     1.0  0.65249  0.08927  0.60900  1.0000
  H   H2596     1.0  0.66707  0.21529  0.56181  1.0000
  H   H2597     1.0  0.60242  0.21241  0.31648  1.0000
  Fe  Fe224     1.0  0.71373  0.99776  0.60824  1.0000
  H   H2598     1.0  0.57971  0.05651  0.34391  1.0000
  H   H2599     1.0  0.71781  0.06014  0.62784  1.0000
  H   H2600     1.0  0.58763  0.24524  0.32144  1.0000
  H   H2601     1.0  0.62519  0.99252  0.29621  1.0000
  H   H2602     1.0  0.66998  0.10850  0.46977  1.0000
  H   H2603     1.0  0.60462  0.03156  0.30247  1.0000
  H   H2604     1.0  0.59400  0.19209  0.29746  1.0000
  H   H2605     1.0  0.67980  0.10814  0.57459  1.0000
  C   C3211     1.0  0.49702  0.12907  0.56198  1.0000
  C   C3212     1.0  0.72060  0.19928  0.38888  1.0000
  C   C3213     1.0  0.72351  0.02478  0.52407  1.0000
  H   H2606     1.0  0.71387  0.32727  0.50672  1.0000
  S   S441      1.0  0.68404  0.00599  0.62307  1.0000
  C   C3214     1.0  0.69224  0.14976  0.62352  1.0000
  C   C3215     1.0  0.49928  0.10994  0.56960  1.0000
  C   C3216     1.0  0.61056  0.21873  0.30371  1.0000
  C   C3217     1.0  0.68108  0.21781  0.45155  1.0000
  C   C3218     1.0  0.70837  0.07584  0.39493  1.0000
  H   H2607     1.0  0.66323  0.13219  0.30552  1.0000
  H   H2608     1.0  0.63299  0.21653  0.56336  1.0000
  C   C3219     1.0  0.70929  0.31781  0.46161  1.0000
  C   C3220     1.0  0.72098  0.13024  0.41972  1.0000
  C   C3221     1.0  0.61552  0.12406  0.60122  1.0000
  H   H2609     1.0  0.49097  0.26229  0.30423  1.0000
  C   C3222     1.0  0.66541  0.20983  0.59175  1.0000
  C   C3223     1.0  0.48888  0.13797  0.30410  1.0000
  C   C3224     1.0  0.67973  0.30735  0.47594  1.0000
  C   C3225     1.0  0.63253  0.11188  0.59754  1.0000
  C   C3226     1.0  0.72914  0.34323  0.51733  1.0000
  C   C3227     1.0  0.63958  0.09893  0.61215  1.0000
  C   C3228     1.0  0.72718  0.07802  0.32561  1.0000
  H   H2610     1.0  0.71413  0.07564  0.32271  1.0000
  C   C3229     1.0  0.67927  0.09033  0.55515  1.0000
  H   H2611     1.0  0.48389  0.26143  0.45052  1.0000
  S   S442      1.0  0.71954  0.12191  0.57958  1.0000
  S   S443      1.0  0.72949  0.46864  0.61037  1.0000
  H   H2612     1.0  0.68892  0.17739  0.60716  1.0000
  C   C3230     1.0  0.70269  0.10984  0.49540  1.0000
  H   H2613     1.0  0.62270  0.26706  0.30346  1.0000
  H   H2614     1.0  0.72184  0.41875  0.59964  1.0000
  C   C3231     1.0  0.61557  0.06268  0.54395  1.0000
  H   H2615     1.0  0.71199  0.37000  0.58578  1.0000
  C   C3232     1.0  0.65394  0.06529  0.53473  1.0000
  S   S444      1.0  0.72064  0.99945  0.57697  1.0000
  C   C3233     1.0  0.53804  0.14663  0.34421  1.0000
  C   C3234     1.0  0.69855  0.09546  0.51038  1.0000
  C   C3235     1.0  0.48458  0.10264  0.58226  1.0000
  C   C3236     1.0  0.72328  0.08671  0.44306  1.0000
  C   C3237     1.0  0.60731  0.16781  0.61906  1.0000
  H   H2616     1.0  0.71187  0.18895  0.39594  1.0000
  C   C3238     1.0  0.68687  0.09695  0.42949  1.0000
  C   C3239     1.0  0.67842  0.08081  0.43472  1.0000
  C   C3240     1.0  0.65898  0.08234  0.44072  1.0000
  C   C3241     1.0  0.64780  0.10000  0.44123  1.0000
  C   C3242     1.0  0.65599  0.11613  0.43541  1.0000
  C   C3243     1.0  0.67547  0.11468  0.42969  1.0000
  C   C3244     1.0  0.63957  0.15361  0.62129  1.0000
  H   H2617     1.0  0.72950  0.20231  0.51264  1.0000
  C   C3245     1.0  0.72362  0.06948  0.47482  1.0000
  H   H2618     1.0  0.71378  0.30542  0.42493  1.0000
  C   C3246     1.0  0.71210  0.37172  0.59993  1.0000
  S   S445      1.0  0.50075  0.14412  0.31981  1.0000
  C   C3247     1.0  0.71977  0.07727  0.40739  1.0000
  C   C3248     1.0  0.71476  0.07569  0.45916  1.0000
  H   H2619     1.0  0.71686  0.05014  0.53554  1.0000
  C   C3249     1.0  0.72124  0.22877  0.55525  1.0000
  H   H2620     1.0  0.69562  0.12557  0.46918  1.0000
  H   H2621     1.0  0.63052  0.40020  0.62657  1.0000
  C   C3250     1.0  0.68259  0.07183  0.55177  1.0000
  C   C3251     1.0  0.59879  0.38173  0.62865  1.0000
  H   H2622     1.0  0.53911  0.15499  0.37001  1.0000
  H   H2623     1.0  0.68690  0.06701  0.43430  1.0000
  H   H2624     1.0  0.65260  0.06983  0.44490  1.0000
  H   H2625     1.0  0.63275  0.10128  0.44601  1.0000
  H   H2626     1.0  0.64720  0.12980  0.43544  1.0000
  H   H2627     1.0  0.68146  0.12742  0.42555  1.0000
  H   H2628     1.0  0.48633  0.08781  0.58817  1.0000
  C   C3252     1.0  0.59122  0.06396  0.34245  1.0000
  C   C3253     1.0  0.60970  0.05428  0.33958  1.0000
  C   C3254     1.0  0.62469  0.06373  0.33780  1.0000
  C   C3255     1.0  0.62123  0.08287  0.33864  1.0000
  C   C3256     1.0  0.60276  0.09271  0.34149  1.0000
  C   C3257     1.0  0.58769  0.08307  0.34369  1.0000
  P   P106      1.0  0.59898  0.11650  0.34559  1.0000
  C   C3258     1.0  0.57503  0.12809  0.34541  1.0000
  C   C3259     1.0  0.60585  0.11391  0.36802  1.0000
  C   C3260     1.0  0.62402  0.11598  0.36918  1.0000
  C   C3261     1.0  0.62983  0.11220  0.38656  1.0000
  C   C3262     1.0  0.61752  0.10653  0.40285  1.0000
  C   C3263     1.0  0.59952  0.10412  0.40177  1.0000
  C   C3264     1.0  0.59381  0.10749  0.38438  1.0000
  C   C3265     1.0  0.56646  0.12812  0.33020  1.0000
  H   H2629     1.0  0.72539  0.44521  0.57341  1.0000
  C   C3266     1.0  0.72633  0.03297  0.32151  1.0000
  C   C3267     1.0  0.48444  0.07437  0.31111  1.0000
  C   C3268     1.0  0.56531  0.13841  0.35943  1.0000
  C   C3269     1.0  0.61222  0.13106  0.32718  1.0000
  C   C3270     1.0  0.67396  0.09021  0.49589  1.0000
  C   C3271     1.0  0.71195  0.27600  0.43364  1.0000
  H   H2630     1.0  0.66332  0.98377  0.60544  1.0000
  H   H2631     1.0  0.69668  0.25590  0.60208  1.0000
  H   H2632     1.0  0.63658  0.20854  0.31422  1.0000
  C   C3272     1.0  0.68943  0.06041  0.58323  1.0000
  H   H2633     1.0  0.61249  0.03948  0.33857  1.0000
  H   H2634     1.0  0.63905  0.05626  0.33548  1.0000
  H   H2635     1.0  0.63296  0.08999  0.33737  1.0000
  C   C3273     1.0  0.70278  0.38825  0.60638  1.0000
  H   H2636     1.0  0.63385  0.12018  0.35670  1.0000
  H   H2637     1.0  0.64391  0.11368  0.38740  1.0000
  H   H2638     1.0  0.62202  0.10390  0.41625  1.0000
  H   H2639     1.0  0.59006  0.09950  0.41439  1.0000
  H   H2640     1.0  0.58004  0.10498  0.38367  1.0000
  C   C3274     1.0  0.71312  0.44611  0.58435  1.0000
  S   S446      1.0  0.70628  0.21892  0.54547  1.0000
  C   C3275     1.0  0.69961  0.01839  0.50950  1.0000
  C   C3276     1.0  0.53708  0.23445  0.33863  1.0000
  H   H2641     1.0  0.57205  0.13999  0.37051  1.0000
  C   C3277     1.0  0.70384  0.39093  0.62433  1.0000
  H   H2642     1.0  0.62482  0.20580  0.62311  1.0000
  C   C3278     1.0  0.64826  0.04794  0.54269  1.0000
  H   H2643     1.0  0.52578  0.10647  0.32319  1.0000
  H   H2644     1.0  0.61077  0.15223  0.34393  1.0000
  C   C3279     1.0  0.64539  0.98438  0.31484  1.0000
  H   H2645     1.0  0.62666  0.17345  0.31816  1.0000
  C   C3280     1.0  0.62956  0.15572  0.29770  1.0000
  H   H2646     1.0  0.67915  0.29021  0.50331  1.0000
  H   H2647     1.0  0.69522  0.39915  0.59713  1.0000
  H   H2648     1.0  0.71740  0.32563  0.44985  1.0000
  C   C3281     1.0  0.71645  0.21089  0.37225  1.0000
  H   H2649     1.0  0.53718  0.03041  0.32870  1.0000
  H   H2650     1.0  0.61202  0.21219  0.59411  1.0000
  H   H2651     1.0  0.66551  0.97168  0.33310  1.0000
  C   C3282     1.0  0.65369  0.20707  0.60933  1.0000
  C   C3283     1.0  0.72753  0.28965  0.40317  1.0000
  H   H2652     1.0  0.71676  0.19613  0.45386  1.0000
  C   C3284     1.0  0.69057  0.31734  0.46096  1.0000
  Fe  Fe225     1.0  0.64753  0.03120  0.29630  1.0000
  P   P107      1.0  0.71211  0.09465  0.42253  1.0000
  H   H2653     1.0  0.67416  0.03873  0.50971  1.0000
  H   H2654     1.0  0.66293  0.08264  0.49572  1.0000
  C   C3285     1.0  0.62110  0.08009  0.53655  1.0000
  H   H2655     1.0  0.67138  0.07385  0.33024  1.0000
  C   C3286     1.0  0.68714  0.05686  0.56615  1.0000
  H   H2656     1.0  0.71452  0.25616  0.53868  1.0000
  C   C3287     1.0  0.71399  0.23376  0.61778  1.0000
  H   H2657     1.0  0.71314  0.09362  0.34762  1.0000
  H   H2658     1.0  0.59292  0.17185  0.62570  1.0000
  C   C3288     1.0  0.63431  0.20815  0.61000  1.0000
  H   H2659     1.0  0.61058  0.09262  0.53449  1.0000
  H   H2660     1.0  0.67018  0.45057  0.62438  1.0000
  H   H2661     1.0  0.54571  0.05066  0.35107  1.0000
  H   H2662     1.0  0.70560  0.06189  0.37316  1.0000
  C   C3289     1.0  0.72757  0.22471  0.36364  1.0000
  H   H2663     1.0  0.59435  0.00181  0.31892  1.0000
  C   C3290     1.0  0.71733  0.30816  0.47726  1.0000
  C   C3291     1.0  0.62914  0.04663  0.54710  1.0000
  C   C3292     1.0  0.68758  0.29783  0.49162  1.0000
  C   C3293     1.0  0.70633  0.29810  0.49224  1.0000
  C   C3294     1.0  0.62688  0.21191  0.59348  1.0000
  C   C3295     1.0  0.56503  0.01430  0.32469  1.0000
  H   H2664     1.0  0.53915  0.06217  0.38093  1.0000
  C   C3296     1.0  0.68784  0.03490  0.51392  1.0000
  H   H2665     1.0  0.71772  0.12813  0.43487  1.0000
  H   H2666     1.0  0.69338  0.04881  0.59412  1.0000
  C   C3297     1.0  0.71733  0.29168  0.42097  1.0000
  C   C3298     1.0  0.58986  0.03147  0.30826  1.0000
  C   C3299     1.0  0.68312  0.21483  0.62625  1.0000
  C   C3300     1.0  0.68391  0.08578  0.51089  1.0000
  C   C3301     1.0  0.56460  0.24387  0.34423  1.0000
  H   H2667     1.0  0.64423  0.09514  0.52694  1.0000
  C   C3302     1.0  0.72236  0.35764  0.61137  1.0000
  C   C3303     1.0  0.57360  0.24197  0.32600  1.0000
  H   H2668     1.0  0.71222  0.29052  0.50447  1.0000
  C   C3304     1.0  0.72872  0.13674  0.38058  1.0000
  C   C3305     1.0  0.56284  0.09671  0.29579  1.0000
  C   C3306     1.0  0.54640  0.23996  0.35058  1.0000
  C   C3307     1.0  0.71693  0.25810  0.42857  1.0000
  C   C3308     1.0  0.71279  0.00982  0.31225  1.0000
  C   C3309     1.0  0.72249  0.24790  0.54919  1.0000
  H   H2669     1.0  0.72944  0.03873  0.33255  1.0000
  H   H2670     1.0  0.57188  0.24800  0.35357  1.0000
  C   C3310     1.0  0.69246  0.11440  0.48073  1.0000
  C   C3311     1.0  0.67806  0.10467  0.48102  1.0000
  H   H2671     1.0  0.52355  0.15327  0.34410  1.0000
  C   C3312     1.0  0.58405  0.01461  0.31747  1.0000
  C   C3313     1.0  0.72731  0.33150  0.50547  1.0000
  H   H2672     1.0  0.69494  0.00943  0.50218  1.0000
  H   H2673     1.0  0.50101  0.08759  0.32306  1.0000
  C   C3314     1.0  0.66739  0.21039  0.44634  1.0000
  C   C3315     1.0  0.51836  0.06531  0.30903  1.0000
  H   H2674     1.0  0.71212  0.01207  0.34085  1.0000
  H   H2675     1.0  0.48282  0.17859  0.61534  1.0000
  C   C3316     1.0  0.71181  0.04132  0.52841  1.0000
  H   H2676     1.0  0.66918  0.23969  0.60998  1.0000
  C   C3317     1.0  0.72225  0.12029  0.39028  1.0000
  H   H2677     1.0  0.71727  0.34789  0.52759  1.0000
  C   C3318     1.0  0.72648  0.09953  0.57304  1.0000
  C   C3319     1.0  0.72750  0.14666  0.40996  1.0000
  H   H2678     1.0  0.61286  0.07066  0.62878  1.0000
  H   H2679     1.0  0.72608  0.24088  0.61403  1.0000
  H   H2680     1.0  0.59254  0.13300  0.62243  1.0000
  C   C3320     1.0  0.68190  0.23295  0.61545  1.0000
  C   C3321     1.0  0.72827  0.09723  0.55447  1.0000
  H   H2681     1.0  0.72636  0.00025  0.51168  1.0000
  S   S447      1.0  0.66044  0.09779  0.29573  1.0000
  Fe  Fe226     1.0  0.59262  0.99885  0.71756  1.0000
  S   S448      1.0  0.57941  0.98609  0.74622  1.0000
  S   S449      1.0  0.57988  0.02491  0.69926  1.0000
  S   S450      1.0  0.62098  0.99675  0.72517  1.0000
  C   C3322     1.0  0.61889  0.21949  0.68062  1.0000
  C   C3323     1.0  0.50877  0.12263  0.72774  1.0000
  C   C3324     1.0  0.69493  0.08281  0.63331  1.0000
  S   S451      1.0  0.68783  0.01002  0.85060  1.0000
  Fe  Fe227     1.0  0.70051  0.00074  0.82297  1.0000
  S   S452      1.0  0.68973  0.00282  0.79573  1.0000
  H   H2682     1.0  0.69355  0.20869  0.84537  1.0000
  H   H2683     1.0  0.64861  0.00826  0.64763  1.0000
  H   H2684     1.0  0.62229  0.34953  0.65946  1.0000
  S   S453      1.0  0.62630  0.44687  0.74611  1.0000
  Fe  Fe228     1.0  0.59490  0.45228  0.75332  1.0000
  S   S454      1.0  0.57746  0.43023  0.76955  1.0000
  H   H2685     1.0  0.53204  0.27427  0.83147  1.0000
  C   C3325     1.0  0.57320  0.35192  0.69702  1.0000
  Fe  Fe229     1.0  0.57692  0.32234  0.76578  1.0000
  S   S455      1.0  0.56414  0.31485  0.79606  1.0000
  S   S456      1.0  0.59098  0.34762  0.75113  1.0000
  Fe  Fe230     1.0  0.57355  0.28395  0.75705  1.0000
  S   S457      1.0  0.56122  0.27343  0.78687  1.0000
  S   S458      1.0  0.57737  0.27015  0.73133  1.0000
  Fe  Fe231     1.0  0.54361  0.30222  0.78572  1.0000
  S   S459      1.0  0.51212  0.30761  0.79664  1.0000
  Fe  Fe232     1.0  0.58277  0.28680  0.79473  1.0000
  S   S460      1.0  0.60013  0.27265  0.81739  1.0000
  S   S461      1.0  0.55479  0.31227  0.75548  1.0000
  S   S462      1.0  0.59669  0.29474  0.76496  1.0000
  Fe  Fe233     1.0  0.69930  0.29549  0.87674  1.0000
  S   S463      1.0  0.66973  0.29000  0.88580  1.0000
  H   H2686     1.0  0.65012  0.14647  0.62968  1.0000
  Fe  Fe234     1.0  0.68770  0.33791  0.87933  1.0000
  S   S464      1.0  0.65726  0.33490  0.88941  1.0000
  S   S465      1.0  0.69848  0.36512  0.86503  1.0000
  Fe  Fe235     1.0  0.66839  0.30797  0.90735  1.0000
  S   S466      1.0  0.65504  0.29524  0.93634  1.0000
  Fe  Fe236     1.0  0.66126  0.31726  0.86709  1.0000
  S   S467      1.0  0.64241  0.32579  0.84500  1.0000
  S   S468      1.0  0.69855  0.31216  0.89905  1.0000
  S   S469      1.0  0.69105  0.32134  0.85639  1.0000
  Fe  Fe237     1.0  0.56152  0.13382  0.70163  1.0000
  S   S470      1.0  0.56256  0.14170  0.67043  1.0000
  S   S471      1.0  0.56000  0.10605  0.72158  1.0000
  Fe  Fe238     1.0  0.56558  0.17342  0.70607  1.0000
  S   S472      1.0  0.56715  0.18442  0.67530  1.0000
  S   S473      1.0  0.56903  0.18621  0.73029  1.0000
  Fe  Fe239     1.0  0.54343  0.16847  0.67721  1.0000
  S   S474      1.0  0.51808  0.18475  0.66420  1.0000
  Fe  Fe240     1.0  0.58588  0.15706  0.67081  1.0000
  S   S475      1.0  0.54067  0.15946  0.70843  1.0000
  S   S476      1.0  0.58605  0.14723  0.70145  1.0000
  C   C3326     1.0  0.63338  0.22985  0.67300  1.0000
  C   C3327     1.0  0.49885  0.15615  0.66376  1.0000
  C   C3328     1.0  0.49854  0.17545  0.66171  1.0000
  H   H2687     1.0  0.51156  0.14642  0.66625  1.0000
  H   H2688     1.0  0.57895  0.40619  0.63544  1.0000
  H   H2689     1.0  0.69872  0.15755  0.87664  1.0000
  C   C3329     1.0  0.70627  0.22424  0.88141  1.0000
  C   C3330     1.0  0.70677  0.24359  0.87837  1.0000
  H   H2690     1.0  0.69286  0.21945  0.88530  1.0000
  H   H2691     1.0  0.69386  0.25355  0.88009  1.0000
  C   C3331     1.0  0.57441  0.24692  0.73143  1.0000
  C   C3332     1.0  0.57212  0.24206  0.71477  1.0000
  C   C3333     1.0  0.57017  0.22362  0.71418  1.0000
  C   C3334     1.0  0.57098  0.20975  0.73016  1.0000
  C   C3335     1.0  0.57353  0.21458  0.74671  1.0000
  C   C3336     1.0  0.57494  0.23312  0.74746  1.0000
  H   H2692     1.0  0.57172  0.25265  0.70228  1.0000
  H   H2693     1.0  0.56822  0.22010  0.70135  1.0000
  H   H2694     1.0  0.57432  0.20391  0.75910  1.0000
  H   H2695     1.0  0.57681  0.23662  0.76032  1.0000
  C   C3337     1.0  0.61171  0.28734  0.82537  1.0000
  C   C3338     1.0  0.61102  0.30618  0.81700  1.0000
  C   C3339     1.0  0.62034  0.31774  0.82332  1.0000
  C   C3340     1.0  0.63061  0.31061  0.83798  1.0000
  C   C3341     1.0  0.63137  0.29174  0.84639  1.0000
  C   C3342     1.0  0.62191  0.28014  0.84012  1.0000
  H   H2696     1.0  0.60319  0.31190  0.80569  1.0000
  H   H2697     1.0  0.61943  0.33229  0.81681  1.0000
  H   H2698     1.0  0.63912  0.28618  0.85776  1.0000
  H   H2699     1.0  0.62242  0.26559  0.84675  1.0000
  S   S477      1.0  0.72481  0.01594  0.81908  1.0000
  C   C3343     1.0  0.50507  0.27386  0.79119  1.0000
  C   C3344     1.0  0.49754  0.29150  0.79614  1.0000
  P   P108      1.0  0.60483  0.36873  0.69087  1.0000
  H   H2700     1.0  0.49899  0.24778  0.78722  1.0000
  H   H2701     1.0  0.52012  0.26984  0.78746  1.0000
  H   H2702     1.0  0.67231  0.26162  0.85747  1.0000
  C   C3345     1.0  0.67238  0.23543  0.77333  1.0000
  H   H2703     1.0  0.72398  0.18745  0.84433  1.0000
  H   H2704     1.0  0.69895  0.09829  0.89199  1.0000
  H   H2705     1.0  0.66022  0.17218  0.66440  1.0000
  C   C3346     1.0  0.66717  0.41286  0.63955  1.0000
  H   H2706     1.0  0.65126  0.46443  0.85028  1.0000
  C   C3347     1.0  0.70380  0.38520  0.89091  1.0000
  C   C3348     1.0  0.70311  0.38488  0.87228  1.0000
  C   C3349     1.0  0.48280  0.26285  0.85660  1.0000
  P   P109      1.0  0.66361  0.20222  0.63062  1.0000
  C   C3350     1.0  0.65172  0.98608  0.67144  1.0000
  Fe  Fe241     1.0  0.70517  0.98330  0.86367  1.0000
  C   C3351     1.0  0.58258  0.40658  0.76593  1.0000
  C   C3352     1.0  0.57010  0.39425  0.77531  1.0000
  C   C3353     1.0  0.57287  0.37582  0.77159  1.0000
  C   C3354     1.0  0.58810  0.36965  0.75832  1.0000
  C   C3355     1.0  0.60093  0.38178  0.74947  1.0000
  C   C3356     1.0  0.59833  0.40007  0.75337  1.0000
  H   H2707     1.0  0.55795  0.39910  0.78517  1.0000
  H   H2708     1.0  0.56288  0.36665  0.77852  1.0000
  H   H2709     1.0  0.61252  0.37728  0.73897  1.0000
  H   H2710     1.0  0.60806  0.40938  0.74607  1.0000
  C   C3357     1.0  0.60316  0.40469  0.69751  1.0000
  C   C3358     1.0  0.68777  0.13873  0.64102  1.0000
  C   C3359     1.0  0.48894  0.14987  0.71331  1.0000
  H   H2711     1.0  0.60498  0.08815  0.71373  1.0000
  H   H2712     1.0  0.61422  0.45399  0.79086  1.0000
  C   C3360     1.0  0.52468  0.28756  0.73695  1.0000
  C   C3361     1.0  0.57809  0.42094  0.71807  1.0000
  C   C3362     1.0  0.49374  0.25253  0.84303  1.0000
  S   S478      1.0  0.73011  0.99702  0.86264  1.0000
  C   C3363     1.0  0.70332  0.40942  0.68498  1.0000
  S   S479      1.0  0.71089  0.05369  0.85103  1.0000
  H   H2713     1.0  0.61250  0.41957  0.65021  1.0000
  H   H2714     1.0  0.68129  0.35216  0.70152  1.0000
  C   C3364     1.0  0.57579  0.04738  0.70553  1.0000
  C   C3365     1.0  0.57458  0.06341  0.69149  1.0000
  C   C3366     1.0  0.57021  0.08153  0.69612  1.0000
  C   C3367     1.0  0.56661  0.08370  0.71488  1.0000
  C   C3368     1.0  0.56798  0.06766  0.72890  1.0000
  C   C3369     1.0  0.57277  0.04957  0.72424  1.0000
  H   H2715     1.0  0.57689  0.06180  0.67698  1.0000
  H   H2716     1.0  0.56922  0.09379  0.68522  1.0000
  H   H2717     1.0  0.56516  0.06921  0.74346  1.0000
  H   H2718     1.0  0.57355  0.03731  0.73516  1.0000
  C   C3370     1.0  0.68883  0.97716  0.65309  1.0000
  C   C3371     1.0  0.66053  0.42116  0.87685  1.0000
  C   C3372     1.0  0.66569  0.99895  0.77360  1.0000
  C   C3373     1.0  0.66789  0.99912  0.79194  1.0000
  C   C3374     1.0  0.59510  0.42066  0.70551  1.0000
  C   C3375     1.0  0.57264  0.31882  0.70806  1.0000
  H   H2719     1.0  0.60847  0.22339  0.69246  1.0000
  H   H2720     1.0  0.67727  0.00103  0.76218  1.0000
  C   C3376     1.0  0.63089  0.44368  0.81243  1.0000
  H   H2721     1.0  0.70366  0.13033  0.93278  1.0000
  H   H2722     1.0  0.63730  0.98928  0.67832  1.0000
  H   H2723     1.0  0.72311  0.43135  0.63427  1.0000
  C   C3377     1.0  0.63571  0.99359  0.80287  1.0000
  C   C3378     1.0  0.61496  0.09338  0.70184  1.0000
  C   C3379     1.0  0.69238  0.41540  0.79643  1.0000
  C   C3380     1.0  0.51482  0.22332  0.74486  1.0000
  C   C3381     1.0  0.65266  0.99683  0.80650  1.0000
  H   H2724     1.0  0.55499  0.28908  0.94308  1.0000
  C   C3382     1.0  0.53092  0.19246  0.76905  1.0000
  C   C3383     1.0  0.52115  0.18964  0.75592  1.0000
  C   C3384     1.0  0.51278  0.20502  0.74415  1.0000
  H   H2725     1.0  0.52533  0.21363  0.70775  1.0000
  H   H2726     1.0  0.53579  0.21457  0.67406  1.0000
  H   H2727     1.0  0.61912  0.45454  0.85630  1.0000
  C   C3385     1.0  0.52727  0.24439  0.66685  1.0000
  S   S480      1.0  0.72522  0.27417  0.86879  1.0000
  H   H2728     1.0  0.52045  0.17550  0.75459  1.0000
  H   H2729     1.0  0.50491  0.20263  0.73434  1.0000
  C   C3386     1.0  0.49306  0.26139  0.79103  1.0000
  H   H2730     1.0  0.61646  0.40456  0.68804  1.0000
  H   H2731     1.0  0.68077  0.23034  0.76099  1.0000
  H   H2732     1.0  0.66341  0.04457  0.64480  1.0000
  H   H2733     1.0  0.63867  0.12989  0.68596  1.0000
  P   P110      1.0  0.65145  0.42783  0.84106  1.0000
  C   C3387     1.0  0.64691  0.22474  0.65780  1.0000
  H   H2734     1.0  0.68665  0.06034  0.95737  1.0000
  C   C3388     1.0  0.51202  0.26051  0.69269  1.0000
  C   C3389     1.0  0.66449  0.25029  0.85939  1.0000
  C   C3390     1.0  0.65256  0.24609  0.87644  1.0000
  C   C3391     1.0  0.64206  0.23173  0.87921  1.0000
  C   C3392     1.0  0.64359  0.22148  0.86497  1.0000
  C   C3393     1.0  0.65557  0.22560  0.84793  1.0000
  C   C3394     1.0  0.63374  0.99277  0.78463  1.0000
  H   H2735     1.0  0.51198  0.13281  0.69813  1.0000
  H   H2736     1.0  0.66336  0.31450  0.80589  1.0000
  C   C3395     1.0  0.63787  0.40652  0.63415  1.0000
  H   H2737     1.0  0.67328  0.04296  0.72693  1.0000
  C   C3396     1.0  0.62988  0.09841  0.63062  1.0000
  C   C3397     1.0  0.61278  0.11068  0.63421  1.0000
  H   H2738     1.0  0.66891  0.41605  0.90385  1.0000
  H   H2739     1.0  0.48848  0.24178  0.83873  1.0000
  C   C3398     1.0  0.60666  0.04391  0.64348  1.0000
  C   C3399     1.0  0.64383  0.40536  0.84769  1.0000
  H   H2740     1.0  0.63267  0.22864  0.89235  1.0000
  H   H2741     1.0  0.63536  0.21042  0.86707  1.0000
  C   C3400     1.0  0.61104  0.36583  0.63545  1.0000
  C   C3401     1.0  0.56343  0.33681  0.70174  1.0000
  H   H2742     1.0  0.61826  0.11606  0.71418  1.0000
  H   H2743     1.0  0.66124  0.03253  0.80844  1.0000
  H   H2744     1.0  0.67332  0.32346  0.94478  1.0000
  H   H2745     1.0  0.60230  0.01756  0.66132  1.0000
  H   H2746     1.0  0.53218  0.24460  0.65199  1.0000
  S   S481      1.0  0.71907  0.43586  0.88825  1.0000
  C   C3402     1.0  0.69394  0.36365  0.81295  1.0000
  C   C3403     1.0  0.67744  0.36643  0.80553  1.0000
  C   C3404     1.0  0.67805  0.37020  0.78607  1.0000
  C   C3405     1.0  0.69558  0.37046  0.77419  1.0000
  P   P111      1.0  0.65687  0.37318  0.77629  1.0000
  C   C3406     1.0  0.65380  0.35064  0.77260  1.0000
  C   C3407     1.0  0.63655  0.38233  0.79219  1.0000
  C   C3408     1.0  0.62942  0.37042  0.80830  1.0000
  C   C3409     1.0  0.61289  0.37673  0.81998  1.0000
  C   C3410     1.0  0.60346  0.39513  0.81585  1.0000
  C   C3411     1.0  0.61060  0.40720  0.80004  1.0000
  C   C3412     1.0  0.62703  0.40086  0.78817  1.0000
  C   C3413     1.0  0.63565  0.34685  0.77375  1.0000
  C   C3414     1.0  0.63322  0.32931  0.77133  1.0000
  C   C3415     1.0  0.64882  0.31550  0.76745  1.0000
  C   C3416     1.0  0.66695  0.31928  0.76579  1.0000
  C   C3417     1.0  0.66946  0.33678  0.76837  1.0000
  C   C3418     1.0  0.65878  0.38928  0.75425  1.0000
  C   C3419     1.0  0.66704  0.40528  0.75209  1.0000
  C   C3420     1.0  0.66828  0.41785  0.73508  1.0000
  C   C3421     1.0  0.66102  0.41469  0.72027  1.0000
  C   C3422     1.0  0.65253  0.39897  0.72242  1.0000
  C   C3423     1.0  0.65142  0.38631  0.73934  1.0000
  H   H2747     1.0  0.54709  0.97594  0.71433  1.0000
  H   H2748     1.0  0.66110  0.35854  0.85199  1.0000
  H   H2749     1.0  0.66434  0.36554  0.81512  1.0000
  H   H2750     1.0  0.69652  0.37274  0.75915  1.0000
  H   H2751     1.0  0.63651  0.35610  0.81169  1.0000
  H   H2752     1.0  0.60734  0.36722  0.83214  1.0000
  H   H2753     1.0  0.59047  0.39997  0.82473  1.0000
  H   H2754     1.0  0.60300  0.42132  0.79663  1.0000
  H   H2755     1.0  0.63183  0.41035  0.77572  1.0000
  H   H2756     1.0  0.62328  0.35733  0.77667  1.0000
  H   H2757     1.0  0.61915  0.32638  0.77264  1.0000
  H   H2758     1.0  0.64676  0.30185  0.76585  1.0000
  H   H2759     1.0  0.67903  0.30849  0.76291  1.0000
  H   H2760     1.0  0.68359  0.33929  0.76733  1.0000
  H   H2761     1.0  0.67207  0.40830  0.76366  1.0000
  H   H2762     1.0  0.67426  0.43043  0.73355  1.0000
  H   H2763     1.0  0.66164  0.42466  0.70726  1.0000
  H   H2764     1.0  0.64644  0.39682  0.71110  1.0000
  H   H2765     1.0  0.64448  0.37443  0.74088  1.0000
  C   C3424     1.0  0.51852  0.27080  0.83881  1.0000
  H   H2766     1.0  0.66380  0.43050  0.66040  1.0000
  H   H2767     1.0  0.62695  0.25150  0.79135  1.0000
  C   C3425     1.0  0.66457  0.42661  0.89233  1.0000
  C   C3426     1.0  0.65683  0.42341  0.65318  1.0000
  C   C3427     1.0  0.71131  0.41640  0.86333  1.0000
  H   H2768     1.0  0.60419  0.38624  0.86602  1.0000
  C   C3428     1.0  0.49156  0.29250  0.75024  1.0000
  H   H2769     1.0  0.65388  0.99764  0.82056  1.0000
  H   H2770     1.0  0.65658  0.21754  0.83703  1.0000
  C   C3429     1.0  0.60139  0.33100  0.70505  1.0000
  C   C3430     1.0  0.60947  0.02950  0.65866  1.0000
  H   H2771     1.0  0.71598  0.00182  0.72704  1.0000
  P   P112      1.0  0.68126  0.24568  0.82288  1.0000
  C   C3431     1.0  0.70379  0.43553  0.81177  1.0000
  H   H2772     1.0  0.65597  0.34272  0.72757  1.0000
  C   C3432     1.0  0.60188  0.29011  0.93520  1.0000
  C   C3433     1.0  0.50907  0.29827  0.74629  1.0000
  C   C3434     1.0  0.70496  0.26566  0.92727  1.0000
  C   C3435     1.0  0.65752  0.40428  0.63017  1.0000
  C   C3436     1.0  0.70046  0.04790  0.90654  1.0000
  C   C3437     1.0  0.69596  0.06454  0.91387  1.0000
  C   C3438     1.0  0.70909  0.07003  0.92201  1.0000
  P   P113      1.0  0.50366  0.24310  0.72977  1.0000
  P   P114      1.0  0.70268  0.09122  0.93208  1.0000
  H   H2773     1.0  0.48226  0.18860  0.78300  1.0000
  C   C3439     1.0  0.70122  0.11210  0.91432  1.0000
  H   H2774     1.0  0.66956  0.10268  0.63772  1.0000
  C   C3440     1.0  0.59073  0.39039  0.65947  1.0000
  C   C3441     1.0  0.69928  0.11141  0.89605  1.0000
  P   P115      1.0  0.69220  0.41259  0.63241  1.0000
  H   H2775     1.0  0.70310  0.97354  0.64605  1.0000
  H   H2776     1.0  0.51062  0.31074  0.75094  1.0000
  C   C3442     1.0  0.67187  0.05547  0.64214  1.0000
  H   H2777     1.0  0.71931  0.42445  0.78739  1.0000
  H   H2778     1.0  0.72881  0.42842  0.73152  1.0000
  H   H2779     1.0  0.63028  0.18694  0.65211  1.0000
  C   C3443     1.0  0.65066  0.24855  0.80511  1.0000
  C   C3444     1.0  0.70366  0.22998  0.82271  1.0000
  H   H2780     1.0  0.69738  0.03591  0.63582  1.0000
  H   H2781     1.0  0.64196  0.25381  0.81721  1.0000
  C   C3445     1.0  0.61852  0.45472  0.84182  1.0000
  C   C3446     1.0  0.71446  0.24855  0.92223  1.0000
  S   S482      1.0  0.61562  0.15366  0.65459  1.0000
  C   C3447     1.0  0.70242  0.41524  0.65164  1.0000
  H   H2782     1.0  0.64136  0.43534  0.80363  1.0000
  H   H2783     1.0  0.68230  0.07322  0.91303  1.0000
  C   C3448     1.0  0.70686  0.40055  0.85856  1.0000
  H   H2784     1.0  0.60222  0.43271  0.70230  1.0000
  C   C3449     1.0  0.68715  0.43638  0.82491  1.0000
  H   H2785     1.0  0.72556  0.36780  0.77247  1.0000
  H   H2786     1.0  0.49162  0.21590  0.68550  1.0000
  C   C3450     1.0  0.71773  0.41995  0.68161  1.0000
  C   C3451     1.0  0.72299  0.21112  0.87949  1.0000
  C   C3452     1.0  0.70000  0.27376  0.82597  1.0000
  H   H2787     1.0  0.68451  0.39888  0.67291  1.0000
  C   C3453     1.0  0.71452  0.27709  0.93339  1.0000
  C   C3454     1.0  0.71208  0.36760  0.78167  1.0000
  H   H2788     1.0  0.53998  0.21289  0.78049  1.0000
  H   H2789     1.0  0.69792  0.40333  0.69917  1.0000
  C   C3455     1.0  0.50543  0.26492  0.73600  1.0000
  H   H2790     1.0  0.71463  0.44301  0.81272  1.0000
  C   C3456     1.0  0.67182  0.46624  0.69612  1.0000
  C   C3457     1.0  0.62847  0.04393  0.72133  1.0000
  H   H2791     1.0  0.52036  0.11101  0.72643  1.0000
  C   C3458     1.0  0.65804  0.04567  0.72957  1.0000
  C   C3459     1.0  0.64832  0.05444  0.74465  1.0000
  C   C3460     1.0  0.62857  0.05739  0.74853  1.0000
  C   C3461     1.0  0.61876  0.05257  0.73643  1.0000
  P   P116      1.0  0.61563  0.06852  0.76798  1.0000
  C   C3462     1.0  0.62857  0.06473  0.78700  1.0000
  C   C3463     1.0  0.61007  0.09334  0.75898  1.0000
  C   C3464     1.0  0.62308  0.10515  0.75787  1.0000
  C   C3465     1.0  0.61841  0.12455  0.75200  1.0000
  C   C3466     1.0  0.60083  0.13225  0.74694  1.0000
  C   C3467     1.0  0.58813  0.12050  0.74731  1.0000
  C   C3468     1.0  0.59283  0.10109  0.75298  1.0000
  C   C3469     1.0  0.62534  0.07821  0.79868  1.0000
  C   C3470     1.0  0.63536  0.07543  0.81338  1.0000
  C   C3471     1.0  0.64845  0.05905  0.81674  1.0000
  C   C3472     1.0  0.65125  0.04530  0.80562  1.0000
  C   C3473     1.0  0.64117  0.04795  0.79097  1.0000
  C   C3474     1.0  0.59483  0.05823  0.77817  1.0000
  C   C3475     1.0  0.59478  0.03936  0.77762  1.0000
  C   C3476     1.0  0.57861  0.03146  0.78527  1.0000
  C   C3477     1.0  0.56252  0.04217  0.79388  1.0000
  C   C3478     1.0  0.56268  0.06075  0.79510  1.0000
  C   C3479     1.0  0.57883  0.06870  0.78746  1.0000
  C   C3480     1.0  0.64351  0.36879  0.67947  1.0000
  C   C3481     1.0  0.68963  0.30701  0.81611  1.0000
  C   C3482     1.0  0.52446  0.22604  0.75827  1.0000
  H   H2792     1.0  0.65623  0.05867  0.75333  1.0000
  H   H2793     1.0  0.60356  0.05530  0.73878  1.0000
  H   H2794     1.0  0.63676  0.09939  0.76175  1.0000
  H   H2795     1.0  0.62837  0.13365  0.75138  1.0000
  H   H2796     1.0  0.59709  0.14729  0.74241  1.0000
  H   H2797     1.0  0.57467  0.12645  0.74297  1.0000
  H   H2798     1.0  0.58292  0.09225  0.75268  1.0000
  H   H2799     1.0  0.61501  0.09085  0.79651  1.0000
  H   H2800     1.0  0.63294  0.08594  0.82223  1.0000
  C   C3483     1.0  0.60307  0.46562  0.83429  1.0000
  H   H2801     1.0  0.69335  0.36085  0.82801  1.0000
  H   H2802     1.0  0.64320  0.03688  0.78284  1.0000
  H   H2803     1.0  0.60719  0.03063  0.77133  1.0000
  H   H2804     1.0  0.57865  0.01695  0.78453  1.0000
  H   H2805     1.0  0.55002  0.03599  0.79973  1.0000
  H   H2806     1.0  0.55026  0.06899  0.80197  1.0000
  H   H2807     1.0  0.57878  0.08303  0.78875  1.0000
  C   C3484     1.0  0.66223  0.36482  0.68217  1.0000
  C   C3485     1.0  0.65812  0.99674  0.65409  1.0000
  H   H2808     1.0  0.51699  0.27412  0.66386  1.0000
  C   C3486     1.0  0.67162  0.28452  0.81244  1.0000
  H   H2809     1.0  0.59745  0.04302  0.63421  1.0000
  H   H2810     1.0  0.71558  0.37837  0.64949  1.0000
  C   C3487     1.0  0.67288  0.17731  0.63501  1.0000
  H   H2811     1.0  0.64728  0.99548  0.75580  1.0000
  C   C3488     1.0  0.52945  0.22744  0.67933  1.0000
  C   C3489     1.0  0.67294  0.42673  0.82395  1.0000
  H   H2812     1.0  0.70707  0.23981  0.91733  1.0000
  C   C3490     1.0  0.63195  0.37047  0.85948  1.0000
  H   H2813     1.0  0.61443  0.41699  0.85587  1.0000
  H   H2814     1.0  0.65561  0.03331  0.70646  1.0000
  H   H2815     1.0  0.54873  0.33900  0.70053  1.0000
  C   C3491     1.0  0.62710  0.06091  0.65277  1.0000
  C   C3492     1.0  0.62236  0.10919  0.70208  1.0000
  S   S483      1.0  0.63895  0.45754  0.69045  1.0000
  C   C3493     1.0  0.63130  0.19898  0.65780  1.0000
  H   H2816     1.0  0.56593  0.36571  0.69181  1.0000
  H   H2817     1.0  0.58123  0.29610  0.91713  1.0000
  C   C3494     1.0  0.48267  0.14943  0.66247  1.0000
  C   C3495     1.0  0.69915  0.14491  0.88716  1.0000
  C   C3496     1.0  0.51159  0.25640  0.83433  1.0000
  H   H2818     1.0  0.66904  0.11991  0.94032  1.0000
  H   H2819     1.0  0.65632  0.05686  0.82806  1.0000
  C   C3497     1.0  0.60521  0.28454  0.95358  1.0000
  H   H2820     1.0  0.66509  0.40844  0.80866  1.0000
  H   H2821     1.0  0.69055  0.04403  0.89969  1.0000
  C   C3498     1.0  0.71246  0.41659  0.88185  1.0000
  C   C3499     1.0  0.63409  0.11681  0.68627  1.0000
  C   C3500     1.0  0.70284  0.06405  0.63253  1.0000
  H   H2822     1.0  0.63410  0.24183  0.67893  1.0000
  C   C3501     1.0  0.69573  0.40699  0.67006  1.0000
  H   H2823     1.0  0.69121  0.32146  0.81508  1.0000
  C   C3502     1.0  0.60320  0.37457  0.66633  1.0000
  H   H2824     1.0  0.66556  0.46509  0.71077  1.0000
  H   H2825     1.0  0.58237  0.39981  0.66863  1.0000
  H   H2826     1.0  0.66760  0.44973  0.90432  1.0000
  H   H2827     1.0  0.61936  0.28332  0.95616  1.0000
  C   C3503     1.0  0.57740  0.38911  0.71491  1.0000
  C   C3504     1.0  0.56929  0.40516  0.72280  1.0000
  C   C3505     1.0  0.67404  0.30310  0.81069  1.0000
  C   C3506     1.0  0.64911  0.10544  0.96028  1.0000
  H   H2828     1.0  0.57084  0.37676  0.71965  1.0000
  H   H2829     1.0  0.55666  0.40502  0.73332  1.0000
  H   H2830     1.0  0.56509  0.30709  0.71174  1.0000
  C   C3507     1.0  0.59156  0.31592  0.70978  1.0000
  C   C3508     1.0  0.72273  0.20067  0.83466  1.0000
  H   H2831     1.0  0.69443  0.40721  0.78547  1.0000
  C   C3509     1.0  0.71442  0.20435  0.95952  1.0000
  H   H2832     1.0  0.70088  0.37327  0.90161  1.0000
  C   C3510     1.0  0.59427  0.38887  0.70196  1.0000
  C   C3511     1.0  0.68104  0.23672  0.78800  1.0000
  H   H2833     1.0  0.59856  0.30192  0.71484  1.0000
  H   H2834     1.0  0.51981  0.24868  0.82358  1.0000
  C   C3512     1.0  0.63014  0.04615  0.66774  1.0000
  H   H2835     1.0  0.64615  0.23976  0.76319  1.0000
  H   H2836     1.0  0.66189  0.40633  0.87666  1.0000
  C   C3513     1.0  0.70258  0.29234  0.82381  1.0000
  C   C3514     1.0  0.71959  0.23486  0.80993  1.0000
  H   H2837     1.0  0.71429  0.42828  0.85261  1.0000
  C   C3515     1.0  0.71790  0.03638  0.90766  1.0000
  H   H2838     1.0  0.61302  0.07313  0.68608  1.0000
  H   H2839     1.0  0.70093  0.19276  0.64197  1.0000
  C   C3516     1.0  0.66388  0.97104  0.67975  1.0000
  H   H2840     1.0  0.70687  0.29026  0.93736  1.0000
  P   P117      1.0  0.63839  0.08114  0.64939  1.0000
  C   C3517     1.0  0.65290  0.24072  0.77453  1.0000
  C   C3518     1.0  0.65866  0.45917  0.87755  1.0000
  C   C3519     1.0  0.56902  0.28784  0.94603  1.0000
  C   C3520     1.0  0.72662  0.06422  0.85909  1.0000
  H   H2841     1.0  0.65915  0.28194  0.80859  1.0000
  C   C3521     1.0  0.60142  0.46537  0.81593  1.0000
  C   C3522     1.0  0.72359  0.08390  0.85746  1.0000
  H   H2842     1.0  0.69703  0.12707  0.86841  1.0000
  C   C3523     1.0  0.64207  0.24730  0.79041  1.0000
  H   H2843     1.0  0.70969  0.26271  0.83285  1.0000
  S   S484      1.0  0.72179  0.18692  0.88349  1.0000
  C   C3524     1.0  0.67668  0.99236  0.64489  1.0000
  H   H2844     1.0  0.69253  0.99935  0.67962  1.0000
  H   H2845     1.0  0.70183  0.15899  0.90884  1.0000
  C   C3525     1.0  0.48216  0.18791  0.65762  1.0000
  C   C3526     1.0  0.71822  0.99910  0.71292  1.0000
  H   H2846     1.0  0.67271  0.13844  0.66924  1.0000
  C   C3527     1.0  0.68837  0.46912  0.65817  1.0000
  H   H2847     1.0  0.62942  0.43438  0.66720  1.0000
  C   C3528     1.0  0.65548  0.43475  0.86161  1.0000
  C   C3529     1.0  0.70877  0.40087  0.89560  1.0000
  C   C3530     1.0  0.58379  0.29176  0.93140  1.0000
  C   C3531     1.0  0.53228  0.21067  0.77043  1.0000
  C   C3532     1.0  0.71124  0.36430  0.80106  1.0000
  C   C3533     1.0  0.66738  0.31538  0.95777  1.0000
  H   H2848     1.0  0.69872  0.20125  0.93915  1.0000
  C   C3534     1.0  0.65808  0.30081  0.95742  1.0000
  H   H2849     1.0  0.72395  0.36208  0.80698  1.0000
  C   C3535     1.0  0.67544  0.08796  0.63837  1.0000
  H   H2850     1.0  0.70644  0.40039  0.84411  1.0000
  H   H2851     1.0  0.66207  0.46361  0.65406  1.0000
  H   H2852     1.0  0.71426  0.29535  0.82882  1.0000
  H   H2853     1.0  0.61341  0.29321  0.92393  1.0000
  H   H2854     1.0  0.68850  0.00551  0.71192  1.0000
  C   C3536     1.0  0.50398  0.13493  0.71174  1.0000
  C   C3537     1.0  0.72485  0.42770  0.66331  1.0000
  C   C3538     1.0  0.70249  0.00126  0.70438  1.0000
  C   C3539     1.0  0.49002  0.27713  0.86124  1.0000
  C   C3540     1.0  0.70474  0.99769  0.68621  1.0000
  C   C3541     1.0  0.48973  0.27583  0.74524  1.0000
  H   H2855     1.0  0.69331  0.12385  0.64324  1.0000
  H   H2856     1.0  0.72331  0.42225  0.69315  1.0000
  C   C3542     1.0  0.67021  0.24317  0.80411  1.0000
  C   C3543     1.0  0.72002  0.09273  0.94548  1.0000
  C   C3544     1.0  0.69822  0.12778  0.88255  1.0000
  C   C3545     1.0  0.52287  0.27101  0.73174  1.0000
  H   H2857     1.0  0.71859  0.24804  0.80021  1.0000
  H   H2858     1.0  0.62297  0.35003  0.72301  1.0000
  C   C3546     1.0  0.70640  0.42507  0.79751  1.0000
  H   H2859     1.0  0.50499  0.27343  0.69757  1.0000
  C   C3547     1.0  0.51405  0.24347  0.70536  1.0000
  C   C3548     1.0  0.66999  0.46515  0.66420  1.0000
  H   H2860     1.0  0.69612  0.23261  0.78669  1.0000
  H   H2861     1.0  0.65802  0.23293  0.65218  1.0000
  C   C3549     1.0  0.52314  0.22696  0.69853  1.0000
  H   H2862     1.0  0.61611  0.32818  0.70609  1.0000
  H   H2863     1.0  0.64029  0.37643  0.66609  1.0000
  C   C3550     1.0  0.64870  0.99580  0.76994  1.0000
  C   C3551     1.0  0.49850  0.12521  0.74535  1.0000
  C   C3552     1.0  0.68474  0.26968  0.81986  1.0000
  Fe  Fe242     1.0  0.60854  0.98194  0.75315  1.0000
  H   H2864     1.0  0.67322  0.36904  0.67080  1.0000
  H   H2865     1.0  0.65132  0.25413  0.88742  1.0000
  C   C3553     1.0  0.66678  0.35533  0.69945  1.0000
  H   H2866     1.0  0.67179  0.38909  0.84257  1.0000
  C   C3554     1.0  0.63224  0.09185  0.67024  1.0000
  H   H2867     1.0  0.51306  0.29252  0.85545  1.0000
  C   C3555     1.0  0.61531  0.45432  0.80508  1.0000
  S   S485      1.0  0.59968  0.97148  0.70657  1.0000
  C   C3556     1.0  0.59219  0.34922  0.69890  1.0000
  H   H2868     1.0  0.68552  0.44459  0.83579  1.0000
  H   H2869     1.0  0.52607  0.23994  0.75945  1.0000
  H   H2870     1.0  0.57213  0.43304  0.72482  1.0000
  H   H2871     1.0  0.48513  0.15900  0.70075  1.0000
  C   C3557     1.0  0.67574  0.41616  0.80960  1.0000
  H   H2872     1.0  0.60663  0.19598  0.67890  1.0000
  C   C3558     1.0  0.63384  0.35404  0.71143  1.0000
  H   H2873     1.0  0.53832  0.29180  0.73410  1.0000
  C   C3559     1.0  0.48338  0.14007  0.74697  1.0000
  C   C3560     1.0  0.61974  0.08480  0.68600  1.0000
  C   C3561     1.0  0.61315  0.36218  0.65424  1.0000
  H   H2874     1.0  0.62063  0.03993  0.71235  1.0000
  C   C3562     1.0  0.70203  0.12942  0.91884  1.0000
  H   H2875     1.0  0.67527  0.97432  0.84571  1.0000
  C   C3563     1.0  0.65465  0.45377  0.86206  1.0000
  C   C3564     1.0  0.63270  0.44378  0.83085  1.0000
  C   C3565     1.0  0.71224  0.19804  0.94371  1.0000
  H   H2876     1.0  0.48200  0.20285  0.65529  1.0000
  H   H2877     1.0  0.69019  0.27015  0.92631  1.0000
  C   C3566     1.0  0.70541  0.21279  0.83514  1.0000
  C   C3567     1.0  0.62919  0.36298  0.69395  1.0000
  C   C3568     1.0  0.64812  0.04029  0.71799  1.0000
  C   C3569     1.0  0.61785  0.20407  0.67300  1.0000
  C   C3570     1.0  0.50777  0.28112  0.85230  1.0000
  C   C3571     1.0  0.66603  0.24013  0.84499  1.0000
  H   H2878     1.0  0.62739  0.35697  0.86400  1.0000
  C   C3572     1.0  0.72748  0.18748  0.93377  1.0000
  C   C3573     1.0  0.64602  0.20919  0.65010  1.0000
  C   C3574     1.0  0.62477  0.40438  0.85474  1.0000
  C   C3575     1.0  0.61888  0.38697  0.86061  1.0000
  C   C3576     1.0  0.69132  0.05042  0.63691  1.0000
  C   C3577     1.0  0.65257  0.34997  0.71409  1.0000
  Fe  Fe243     1.0  0.71369  0.02304  0.84776  1.0000
  H   H2879     1.0  0.71232  0.09231  0.85056  1.0000
  H   H2880     1.0  0.53777  0.18053  0.77786  1.0000
  C   C3578     1.0  0.51868  0.26096  0.67354  1.0000
  H   H2881     1.0  0.63925  0.04679  0.67721  1.0000
  C   C3579     1.0  0.62110  0.03071  0.67084  1.0000
  C   C3580     1.0  0.61541  0.05960  0.64053  1.0000
  C   C3581     1.0  0.70094  0.14573  0.90533  1.0000
  H   H2882     1.0  0.62278  0.01978  0.68292  1.0000
  C   C3582     1.0  0.65693  0.38871  0.84709  1.0000
  S   S486      1.0  0.61238  0.98797  0.78088  1.0000
  C   C3583     1.0  0.65094  0.37136  0.85268  1.0000
  H   H2883     1.0  0.63855  0.11799  0.96112  1.0000
  C   C3584     1.0  0.66380  0.44559  0.89262  1.0000
  H   H2884     1.0  0.53518  0.26271  0.72479  1.0000
  H   H2885     1.0  0.72447  0.98878  0.66256  1.0000
  H   H2886     1.0  0.53297  0.97552  0.74765  1.0000
  H   H2887     1.0  0.69046  0.46130  0.75429  1.0000
  C   C3585     1.0  0.66889  0.16619  0.65274  1.0000
  H   H2888     1.0  0.48489  0.25304  0.89432  1.0000
  C   C3586     1.0  0.66167  0.46360  0.68318  1.0000
  C   C3587     1.0  0.66371  0.07430  0.64321  1.0000
  C   C3588     1.0  0.63723  0.42569  0.65706  1.0000
  S   S487      1.0  0.59110  0.46789  0.72458  1.0000
  S   S488      1.0  0.71614  0.97337  0.83610  1.0000
  H   H2889     1.0  0.62410  0.99159  0.81428  1.0000
  C   C3589     1.0  0.67618  0.14696  0.65565  1.0000
  C   C3590     1.0  0.62099  0.15884  0.63001  1.0000
  C   C3591     1.0  0.67626  0.07303  0.95806  1.0000
  H   H2890     1.0  0.64684  0.11531  0.65795  1.0000
  C   C3592     1.0  0.63886  0.10832  0.67037  1.0000
  H   H2891     1.0  0.69460  0.47038  0.64351  1.0000
  C   C3593     1.0  0.72400  0.24997  0.87318  1.0000
  H   H2892     1.0  0.48548  0.17677  0.75353  1.0000
  C   C3594     1.0  0.58864  0.39400  0.64065  1.0000
  H   H2893     1.0  0.72582  0.18252  0.92156  1.0000
  H   H2894     1.0  0.70964  0.40089  0.90997  1.0000
  C   C3595     1.0  0.72674  0.05852  0.92279  1.0000
  H   H2895     1.0  0.72804  0.20947  0.63421  1.0000
  C   C3596     1.0  0.62773  0.41735  0.64747  1.0000
  H   H2896     1.0  0.48168  0.28553  0.87137  1.0000
  C   C3597     1.0  0.72270  0.99174  0.67662  1.0000
  H   H2897     1.0  0.48302  0.13448  0.66414  1.0000
  H   H2898     1.0  0.60497  0.11053  0.64833  1.0000
  H   H2899     1.0  0.48979  0.18932  0.71172  1.0000
  C   C3598     1.0  0.71732  0.42527  0.64834  1.0000
  C   C3599     1.0  0.66647  0.10646  0.94847  1.0000
  Fe  Fe244     1.0  0.62266  0.46471  0.71827  1.0000
  C   C3600     1.0  0.68018  0.09024  0.94726  1.0000
  H   H2900     1.0  0.72143  0.02362  0.90173  1.0000
  C   C3601     1.0  0.69018  0.47026  0.69008  1.0000
  C   C3602     1.0  0.71416  0.37664  0.63577  1.0000
  Fe  Fe245     1.0  0.71762  0.46503  0.87016  1.0000
  C   C3603     1.0  0.69971  0.20658  0.63337  1.0000
  H   H2901     1.0  0.68114  0.46685  0.78838  1.0000
  H   H2902     1.0  0.50218  0.11553  0.75769  1.0000
  H   H2903     1.0  0.72865  0.01777  0.77132  1.0000
  H   H2904     1.0  0.72437  0.45886  0.75408  1.0000
  C   C3604     1.0  0.72340  0.36009  0.62926  1.0000
  C   C3605     1.0  0.71726  0.47071  0.74542  1.0000
  H   H2905     1.0  0.70382  0.09347  0.62915  1.0000
  C   C3606     1.0  0.71510  0.21601  0.62906  1.0000
  Fe  Fe246     1.0  0.69841  0.83966  0.98712  1.0000
  S   S489      1.0  0.67078  0.82810  0.99434  1.0000
  C   C3607     1.0  0.49515  0.73224  0.21299  1.0000
  S   S490      1.0  0.63044  0.67768  0.96717  1.0000
  H   H2906     1.0  0.68734  0.88481  0.10531  1.0000
  S   S491      1.0  0.70048  0.86735  0.99449  1.0000
  S   S492      1.0  0.71095  0.59644  0.02128  1.0000
  C   C3608     1.0  0.66273  0.65187  0.96485  1.0000
  H   H2907     1.0  0.69726  0.61819  0.22618  1.0000
  C   C3609     1.0  0.71163  0.54750  0.01095  1.0000
  S   S493      1.0  0.62243  0.72326  0.98984  1.0000
  H   H2908     1.0  0.50168  0.83260  0.19413  1.0000
  S   S494      1.0  0.58707  0.71563  0.97296  1.0000
  Fe  Fe247     1.0  0.59110  0.73265  0.99324  1.0000
  S   S495      1.0  0.57074  0.73137  0.02100  1.0000
  H   H2909     1.0  0.52282  0.68249  0.98628  1.0000
  C   C3610     1.0  0.70811  0.62789  0.09388  1.0000
  Fe  Fe248     1.0  0.57619  0.70111  0.12946  1.0000
  S   S496      1.0  0.56395  0.67452  0.14009  1.0000
  S   S497      1.0  0.59545  0.70700  0.10122  1.0000
  Fe  Fe249     1.0  0.56457  0.71369  0.16802  1.0000
  S   S498      1.0  0.55201  0.68798  0.18132  1.0000
  S   S499      1.0  0.56300  0.73816  0.18286  1.0000
  Fe  Fe250     1.0  0.57748  0.67228  0.16517  1.0000
  S   S500      1.0  0.59255  0.64463  0.17907  1.0000
  Fe  Fe251     1.0  0.53940  0.69237  0.15527  1.0000
  S   S501      1.0  0.50782  0.69233  0.16105  1.0000
  S   S502      1.0  0.59114  0.69769  0.15391  1.0000
  S   S503      1.0  0.55057  0.71933  0.14265  1.0000
  C   C3611     1.0  0.58489  0.93862  0.25460  1.0000
  S   S504      1.0  0.69110  0.56071  0.13168  1.0000
  H   H2910     1.0  0.62286  0.77020  0.25946  1.0000
  H   H2911     1.0  0.62953  0.63719  0.19936  1.0000
  S   S505      1.0  0.69398  0.56990  0.17287  1.0000
  C   C3612     1.0  0.65421  0.58661  0.20856  1.0000
  Fe  Fe252     1.0  0.69744  0.54436  0.15944  1.0000
  S   S506      1.0  0.68480  0.51931  0.17614  1.0000
  Fe  Fe253     1.0  0.69035  0.58609  0.14421  1.0000
  S   S507      1.0  0.67253  0.61404  0.13527  1.0000
  H   H2912     1.0  0.51488  0.72465  0.26942  1.0000
  Fe  Fe254     1.0  0.62385  0.74861  0.96681  1.0000
  H   H2913     1.0  0.69520  0.48402  0.08522  1.0000
  S   S508      1.0  0.56991  0.78312  0.26559  1.0000
  S   S509      1.0  0.57835  0.72858  0.26614  1.0000
  C   C3613     1.0  0.72602  0.47852  0.20134  1.0000
  C   C3614     1.0  0.49855  0.80037  0.28147  1.0000
  H   H2914     1.0  0.49912  0.84481  0.22338  1.0000
  C   C3615     1.0  0.70312  0.51804  0.06231  1.0000
  C   C3616     1.0  0.64404  0.57406  0.20509  1.0000
  H   H2915     1.0  0.62900  0.78569  0.99021  1.0000
  C   C3617     1.0  0.53347  0.67892  0.97451  1.0000
  C   C3618     1.0  0.51816  0.77656  0.23972  1.0000
  H   H2916     1.0  0.57321  0.56501  0.09243  1.0000
  C   C3619     1.0  0.71366  0.61720  0.19891  1.0000
  H   H2917     1.0  0.66531  0.71087  0.96338  1.0000
  H   H2918     1.0  0.70413  0.86511  0.21621  1.0000
  H   H2919     1.0  0.70150  0.86930  0.24918  1.0000
  H   H2920     1.0  0.53291  0.79648  0.13637  1.0000
  C   C3620     1.0  0.71605  0.74092  0.02333  1.0000
  S   S510      1.0  0.59250  0.75902  0.97143  1.0000
  C   C3621     1.0  0.70173  0.56039  0.99826  1.0000
  H   H2921     1.0  0.63833  0.62686  0.25918  1.0000
  C   C3622     1.0  0.70799  0.48651  0.02323  1.0000
  H   H2922     1.0  0.71117  0.47760  0.20423  1.0000
  C   C3623     1.0  0.69386  0.70686  0.02486  1.0000
  H   H2923     1.0  0.49544  0.73424  0.16016  1.0000
  S   S511      1.0  0.71923  0.59806  0.96764  1.0000
  H   H2924     1.0  0.71499  0.65590  0.04590  1.0000
  C   C3624     1.0  0.70435  0.52767  0.09125  1.0000
  C   C3625     1.0  0.51542  0.71385  0.24428  1.0000
  C   C3626     1.0  0.48310  0.76905  0.23764  1.0000
  H   H2925     1.0  0.72671  0.61623  0.17024  1.0000
  H   H2926     1.0  0.66852  0.73551  0.05329  1.0000
  H   H2927     1.0  0.63621  0.74683  0.06875  1.0000
  H   H2928     1.0  0.59921  0.91258  0.24625  1.0000
  H   H2929     1.0  0.61708  0.72572  0.23321  1.0000
  C   C3627     1.0  0.56704  0.73505  0.20613  1.0000
  C   C3628     1.0  0.57374  0.71742  0.21590  1.0000
  C   C3629     1.0  0.57722  0.71565  0.23423  1.0000
  C   C3630     1.0  0.57382  0.73142  0.24304  1.0000
  C   C3631     1.0  0.56724  0.74904  0.23317  1.0000
  C   C3632     1.0  0.56386  0.75085  0.21484  1.0000
  H   H2930     1.0  0.57628  0.70515  0.20934  1.0000
  H   H2931     1.0  0.58248  0.70199  0.24167  1.0000
  H   H2932     1.0  0.56478  0.76130  0.23965  1.0000
  H   H2933     1.0  0.55872  0.76456  0.20743  1.0000
  H   H2934     1.0  0.61042  0.75772  0.05023  1.0000
  H   H2935     1.0  0.51518  0.66452  0.13613  1.0000
  C   C3633     1.0  0.61511  0.63625  0.16747  1.0000
  C   C3634     1.0  0.62315  0.61729  0.17197  1.0000
  C   C3635     1.0  0.64108  0.61030  0.16266  1.0000
  C   C3636     1.0  0.65088  0.62227  0.14865  1.0000
  C   C3637     1.0  0.64301  0.64127  0.14450  1.0000
  C   C3638     1.0  0.62516  0.64825  0.15380  1.0000
  H   H2936     1.0  0.61532  0.60797  0.18244  1.0000
  H   H2937     1.0  0.64710  0.59564  0.16602  1.0000
  H   H2938     1.0  0.65080  0.65068  0.13411  1.0000
  H   H2939     1.0  0.61917  0.66291  0.15036  1.0000
  C   C3639     1.0  0.54801  0.85136  0.27987  1.0000
  H   H2940     1.0  0.68932  0.51524  0.13709  1.0000
  C   C3640     1.0  0.57776  0.72465  0.04321  1.0000
  C   C3641     1.0  0.56399  0.72286  0.05945  1.0000
  C   C3642     1.0  0.56912  0.71731  0.07734  1.0000
  C   C3643     1.0  0.58809  0.71377  0.07912  1.0000
  C   C3644     1.0  0.60181  0.71552  0.06286  1.0000
  C   C3645     1.0  0.59671  0.72070  0.04500  1.0000
  H   H2941     1.0  0.54927  0.72576  0.05818  1.0000
  H   H2942     1.0  0.55840  0.71598  0.08973  1.0000
  H   H2943     1.0  0.61646  0.71309  0.06402  1.0000
  H   H2944     1.0  0.60742  0.72177  0.03262  1.0000
  C   C3646     1.0  0.57037  0.93715  0.28717  1.0000
  H   H2945     1.0  0.69804  0.61838  0.09891  1.0000
  H   H2946     1.0  0.72299  0.48834  0.12218  1.0000
  H   H2947     1.0  0.69646  0.57464  0.00073  1.0000
  C   C3647     1.0  0.63397  0.94942  0.04590  1.0000
  C   C3648     1.0  0.62237  0.81399  0.28486  1.0000
  C   C3649     1.0  0.59118  0.91921  0.25782  1.0000
  C   C3650     1.0  0.49516  0.73424  0.17482  1.0000
  H   H2948     1.0  0.68443  0.55217  0.09772  1.0000
  H   H2949     1.0  0.70783  0.92720  0.27994  1.0000
  H   H2950     1.0  0.66930  0.58454  0.20416  1.0000
  H   H2951     1.0  0.63602  0.83274  0.26224  1.0000
  C   C3651     1.0  0.67976  0.61840  0.20588  1.0000
  C   C3652     1.0  0.57671  0.87117  0.27984  1.0000
  C   C3653     1.0  0.66518  0.80999  0.98509  1.0000
  C   C3654     1.0  0.64779  0.80392  0.99215  1.0000
  C   C3655     1.0  0.64253  0.78999  0.98483  1.0000
  C   C3656     1.0  0.64464  0.83287  0.28830  1.0000
  C   C3657     1.0  0.53764  0.58744  0.12131  1.0000
  H   H2952     1.0  0.63821  0.81017  0.00324  1.0000
  H   H2953     1.0  0.71060  0.52627  0.10356  1.0000
  H   H2954     1.0  0.53849  0.56922  0.10188  1.0000
  H   H2955     1.0  0.58814  0.94675  0.24074  1.0000
  C   C3658     1.0  0.48846  0.83359  0.20380  1.0000
  C   C3659     1.0  0.54812  0.59636  0.12934  1.0000
  C   C3660     1.0  0.56779  0.59405  0.12411  1.0000
  C   C3661     1.0  0.57675  0.58275  0.11066  1.0000
  P   P118      1.0  0.58170  0.60589  0.13373  1.0000
  C   C3662     1.0  0.56822  0.61429  0.15460  1.0000
  C   C3663     1.0  0.60245  0.58918  0.13894  1.0000
  C   C3664     1.0  0.62057  0.59374  0.13287  1.0000
  C   C3665     1.0  0.63641  0.58043  0.13670  1.0000
  C   C3666     1.0  0.63433  0.56251  0.14665  1.0000
  C   C3667     1.0  0.61638  0.55780  0.15262  1.0000
  C   C3668     1.0  0.60051  0.57104  0.14872  1.0000
  C   C3669     1.0  0.57243  0.60602  0.17243  1.0000
  C   C3670     1.0  0.56190  0.61293  0.18831  1.0000
  C   C3671     1.0  0.54721  0.62820  0.18652  1.0000
  C   C3672     1.0  0.54301  0.63657  0.16885  1.0000
  C   C3673     1.0  0.55352  0.62973  0.15295  1.0000
  C   C3674     1.0  0.58780  0.62641  0.11740  1.0000
  C   C3675     1.0  0.58269  0.63103  0.09956  1.0000
  C   C3676     1.0  0.58649  0.64774  0.08774  1.0000
  C   C3677     1.0  0.59548  0.65980  0.09362  1.0000
  C   C3678     1.0  0.60079  0.65515  0.11121  1.0000
  C   C3679     1.0  0.59674  0.63867  0.12314  1.0000
  C   C3680     1.0  0.55772  0.87966  0.28338  1.0000
  C   C3681     1.0  0.68080  0.58719  0.26773  1.0000
  H   H2956     1.0  0.69279  0.57624  0.27019  1.0000
  H   H2957     1.0  0.54070  0.60494  0.13962  1.0000
  H   H2958     1.0  0.59189  0.58086  0.10637  1.0000
  H   H2959     1.0  0.62270  0.60751  0.12531  1.0000
  H   H2960     1.0  0.65030  0.58419  0.13220  1.0000
  H   H2961     1.0  0.64663  0.55228  0.14980  1.0000
  H   H2962     1.0  0.61480  0.54387  0.16030  1.0000
  H   H2963     1.0  0.58668  0.56717  0.15343  1.0000
  H   H2964     1.0  0.58407  0.59461  0.17417  1.0000
  H   H2965     1.0  0.56549  0.60686  0.20198  1.0000
  H   H2966     1.0  0.55022  0.63662  0.13934  1.0000
  H   H2967     1.0  0.57528  0.62215  0.09493  1.0000
  H   H2968     1.0  0.58200  0.65162  0.07423  1.0000
  H   H2969     1.0  0.59785  0.67307  0.08488  1.0000
  H   H2970     1.0  0.60727  0.66480  0.11594  1.0000
  H   H2971     1.0  0.60008  0.63570  0.13708  1.0000
  H   H2972     1.0  0.51936  0.69892  0.22109  1.0000
  C   C3682     1.0  0.66227  0.60874  0.24612  1.0000
  C   C3683     1.0  0.63445  0.82710  0.27705  1.0000
  C   C3684     1.0  0.54609  0.68742  0.25528  1.0000
  H   H2973     1.0  0.60577  0.91672  0.06459  1.0000
  P   P119      1.0  0.72999  0.50612  0.26131  1.0000
  C   C3685     1.0  0.62547  0.60333  0.22422  1.0000
  S   S512      1.0  0.72117  0.58676  0.13485  1.0000
  H   H2974     1.0  0.53163  0.77938  0.24099  1.0000
  C   C3686     1.0  0.51130  0.73625  0.18074  1.0000
  C   C3687     1.0  0.51136  0.73508  0.19975  1.0000
  C   C3688     1.0  0.50486  0.79243  0.18700  1.0000
  H   H2975     1.0  0.61808  0.61453  0.23176  1.0000
  C   C3689     1.0  0.71128  0.51533  0.07840  1.0000
  C   C3690     1.0  0.65038  0.61598  0.26132  1.0000
  C   C3691     1.0  0.65399  0.60915  0.27953  1.0000
  C   C3692     1.0  0.71579  0.52366  0.99155  1.0000
  C   C3693     1.0  0.68150  0.84544  0.04647  1.0000
  H   H2976     1.0  0.52395  0.73825  0.17068  1.0000
  H   H2977     1.0  0.52415  0.73616  0.20417  1.0000
  C   C3694     1.0  0.62155  0.66512  0.20531  1.0000
  C   C3695     1.0  0.70616  0.53684  0.97868  1.0000
  S   S513      1.0  0.72664  0.88281  0.26745  1.0000
  C   C3696     1.0  0.49850  0.75436  0.23858  1.0000
  C   C3697     1.0  0.50781  0.80727  0.15442  1.0000
  C   C3698     1.0  0.71343  0.87296  0.23882  1.0000
  H   H2978     1.0  0.65225  0.85658  0.96701  1.0000
  H   H2979     1.0  0.55824  0.67755  0.25929  1.0000
  C   C3699     1.0  0.61762  0.94196  0.05398  1.0000
  C   C3700     1.0  0.55082  0.68486  0.97138  1.0000
  C   C3701     1.0  0.64500  0.64137  0.21956  1.0000
  H   H2980     1.0  0.56981  0.96267  0.26676  1.0000
  H   H2981     1.0  0.48340  0.82731  0.27074  1.0000
  C   C3702     1.0  0.53958  0.68670  0.23909  1.0000
  C   C3703     1.0  0.52219  0.78076  0.18311  1.0000
  Fe  Fe255     1.0  0.54547  0.78924  0.28831  1.0000
  C   C3704     1.0  0.70917  0.67012  0.04008  1.0000
  C   C3705     1.0  0.72823  0.56874  0.21377  1.0000
  H   H2982     1.0  0.69108  0.83349  0.05230  1.0000
  C   C3706     1.0  0.64638  0.74588  0.01547  1.0000
  Fe  Fe256     1.0  0.72095  0.87115  0.96710  1.0000
  C   C3707     1.0  0.67786  0.48418  0.17669  1.0000
  C   C3708     1.0  0.70225  0.64713  0.09373  1.0000
  Fe  Fe257     1.0  0.58795  0.78848  0.28416  1.0000
  Fe  Fe258     1.0  0.70261  0.87810  0.29196  1.0000
  C   C3709     1.0  0.65731  0.73993  0.04511  1.0000
  C   C3710     1.0  0.48270  0.81261  0.27566  1.0000
  H   H2983     1.0  0.49698  0.79073  0.20106  1.0000
  C   C3711     1.0  0.68954  0.54250  0.08796  1.0000
  C   C3712     1.0  0.68170  0.54525  0.07181  1.0000
  C   C3713     1.0  0.68842  0.53297  0.05902  1.0000
  H   H2984     1.0  0.68242  0.53519  0.04642  1.0000
  H   H2985     1.0  0.54658  0.67617  0.23059  1.0000
  H   H2986     1.0  0.65124  0.56273  0.19762  1.0000
  H   H2987     1.0  0.49411  0.64525  0.12954  1.0000
  C   C3714     1.0  0.71611  0.47487  0.25779  1.0000
  C   C3715     1.0  0.69680  0.61806  0.21173  1.0000
  H   H2988     1.0  0.69666  0.49824  0.02100  1.0000
  H   H2989     1.0  0.68441  0.48944  0.12282  1.0000
  C   C3716     1.0  0.68397  0.69700  0.04089  1.0000
  C   C3717     1.0  0.69075  0.89322  0.09164  1.0000
  C   C3718     1.0  0.49746  0.78142  0.28812  1.0000
  H   H2990     1.0  0.67059  0.55706  0.06917  1.0000
  C   C3719     1.0  0.68271  0.48788  0.13787  1.0000
  H   H2991     1.0  0.54558  0.77296  0.16183  1.0000
  H   H2992     1.0  0.50411  0.80502  0.24029  1.0000
  H   H2993     1.0  0.66763  0.82884  0.03478  1.0000
  C   C3720     1.0  0.71118  0.52002  0.24964  1.0000
  C   C3721     1.0  0.68148  0.89279  0.07714  1.0000
  S   S514      1.0  0.67207  0.88061  0.29035  1.0000
  C   C3722     1.0  0.61737  0.74044  0.23252  1.0000
  C   C3723     1.0  0.68217  0.54275  0.24952  1.0000
  C   C3724     1.0  0.68279  0.50080  0.16539  1.0000
  H   H2994     1.0  0.52840  0.74736  0.23934  1.0000
  C   C3725     1.0  0.69218  0.76636  0.01240  1.0000
  C   C3726     1.0  0.69828  0.48247  0.97942  1.0000
  C   C3727     1.0  0.50266  0.79103  0.23923  1.0000
  C   C3728     1.0  0.67742  0.47139  0.14919  1.0000
  Fe  Fe259     1.0  0.57326  0.75363  0.28117  1.0000
  C   C3729     1.0  0.65461  0.78198  0.97028  1.0000
  H   H2995     1.0  0.53180  0.64862  0.16747  1.0000
  C   C3730     1.0  0.62082  0.74645  0.24791  1.0000
  C   C3731     1.0  0.62039  0.76551  0.24741  1.0000
  C   C3732     1.0  0.72670  0.56839  0.23308  1.0000
  C   C3733     1.0  0.63912  0.74653  0.05388  1.0000
  C   C3734     1.0  0.71985  0.77322  0.02057  1.0000
  C   C3735     1.0  0.61535  0.59066  0.22092  1.0000
  H   H2996     1.0  0.71216  0.90442  0.09958  1.0000
  C   C3736     1.0  0.68795  0.92746  0.98595  1.0000
  C   C3737     1.0  0.67779  0.92212  0.00379  1.0000
  C   C3738     1.0  0.68708  0.91070  0.01795  1.0000
  C   C3739     1.0  0.70640  0.90387  0.01370  1.0000
  P   P120      1.0  0.67412  0.90265  0.04069  1.0000
  C   C3740     1.0  0.68634  0.90320  0.05923  1.0000
  C   C3741     1.0  0.65186  0.91791  0.04550  1.0000
  C   C3742     1.0  0.65106  0.93744  0.04180  1.0000
  H   H2997     1.0  0.59579  0.60409  0.96275  1.0000
  C   C3743     1.0  0.69911  0.55510  0.98209  1.0000
  H   H2998     1.0  0.71854  0.70489  0.00333  1.0000
  C   C3744     1.0  0.63548  0.91049  0.05403  1.0000
  C   C3745     1.0  0.70913  0.91521  0.07088  1.0000
  C   C3746     1.0  0.62445  0.67809  0.21522  1.0000
  C   C3747     1.0  0.48070  0.77478  0.28901  1.0000
  H   H2999     1.0  0.68764  0.65247  0.09873  1.0000
  C   C3748     1.0  0.70000  0.91472  0.05630  1.0000
  C   C3749     1.0  0.67119  0.87921  0.04001  1.0000
  C   C3750     1.0  0.65830  0.87652  0.02970  1.0000
  C   C3751     1.0  0.65682  0.85838  0.02812  1.0000
  H   H3000     1.0  0.68589  0.58742  0.23815  1.0000
  H   H3001     1.0  0.63342  0.96450  0.04293  1.0000
  C   C3752     1.0  0.68294  0.86354  0.04818  1.0000
  C   C3753     1.0  0.70271  0.94213  0.27655  1.0000
  H   H3002     1.0  0.59559  0.84576  0.27388  1.0000
  C   C3754     1.0  0.54667  0.57614  0.10803  1.0000
  H   H3003     1.0  0.66271  0.92668  0.00634  1.0000
  H   H3004     1.0  0.71352  0.89404  0.02408  1.0000
  H   H3005     1.0  0.66369  0.94340  0.03580  1.0000
  C   C3755     1.0  0.57455  0.94760  0.26927  1.0000
  C   C3756     1.0  0.72387  0.48389  0.00919  1.0000
  C   C3757     1.0  0.67704  0.59378  0.24956  1.0000
  H   H3006     1.0  0.63586  0.89547  0.05772  1.0000
  C   C3758     1.0  0.53716  0.70113  0.26613  1.0000
  H   H3007     1.0  0.61699  0.75759  0.01612  1.0000
  H   H3008     1.0  0.72816  0.93370  0.24568  1.0000
  H   H3009     1.0  0.70373  0.92326  0.04280  1.0000
  H   H3010     1.0  0.64973  0.88844  0.02252  1.0000
  H   H3011     1.0  0.58178  0.80177  0.22916  1.0000
  H   H3012     1.0  0.61550  0.79335  0.23186  1.0000
  H   H3013     1.0  0.65455  0.64254  0.97495  1.0000
  H   H3014     1.0  0.69374  0.86523  0.05528  1.0000
  S   S515      1.0  0.72205  0.82370  0.00175  1.0000
  H   H3015     1.0  0.52245  0.58931  0.12543  1.0000
  C   C3759     1.0  0.64492  0.60167  0.21763  1.0000
  C   C3760     1.0  0.50100  0.66489  0.14387  1.0000
  H   H3016     1.0  0.60438  0.95125  0.05720  1.0000
  H   H3017     1.0  0.54246  0.70194  0.27848  1.0000
  H   H3018     1.0  0.72686  0.61607  0.20365  1.0000
  C   C3761     1.0  0.56622  0.57379  0.10271  1.0000
  H   H3019     1.0  0.57637  0.80026  0.17275  1.0000
  H   H3020     1.0  0.50252  0.81729  0.14306  1.0000
  C   C3762     1.0  0.62461  0.57610  0.21125  1.0000
  C   C3763     1.0  0.54345  0.86975  0.28342  1.0000
  H   H3021     1.0  0.72895  0.53655  0.28112  1.0000
  C   C3764     1.0  0.58729  0.90865  0.27582  1.0000
  C   C3765     1.0  0.71496  0.87062  0.22011  1.0000
  C   C3766     1.0  0.71652  0.90923  0.99587  1.0000
  C   C3767     1.0  0.61550  0.87789  0.26234  1.0000
  H   H3022     1.0  0.60028  0.59229  0.22569  1.0000
  C   C3768     1.0  0.70463  0.90436  0.08848  1.0000
  C   C3769     1.0  0.66098  0.73905  0.02593  1.0000
  H   H3023     1.0  0.68395  0.67114  0.06079  1.0000
  H   H3024     1.0  0.65405  0.84280  0.28218  1.0000
  C   C3770     1.0  0.61840  0.92251  0.05810  1.0000
  C   C3771     1.0  0.61318  0.87271  0.24588  1.0000
  C   C3772     1.0  0.62878  0.86847  0.23213  1.0000
  C   C3773     1.0  0.64676  0.86973  0.23451  1.0000
  C   C3774     1.0  0.64912  0.87531  0.25061  1.0000
  C   C3775     1.0  0.63358  0.87940  0.26446  1.0000
  H   H3025     1.0  0.67573  0.48275  0.19177  1.0000
  H   H3026     1.0  0.63578  0.88367  0.27680  1.0000
  H   H3027     1.0  0.70431  0.53323  0.96585  1.0000
  C   C3776     1.0  0.51616  0.75831  0.23918  1.0000
  H   H3028     1.0  0.64495  0.61497  0.29120  1.0000
  H   H3029     1.0  0.55384  0.89386  0.28615  1.0000
  C   C3777     1.0  0.48900  0.65405  0.14011  1.0000
  C   C3778     1.0  0.49753  0.80583  0.17274  1.0000
  P   P121      1.0  0.49573  0.73101  0.23738  1.0000
  H   H3030     1.0  0.67455  0.93810  0.27685  1.0000
  H   H3031     1.0  0.55361  0.69307  0.98070  1.0000
  C   C3779     1.0  0.72658  0.75401  0.02501  1.0000
  H   H3032     1.0  0.66558  0.71098  0.99647  1.0000
  C   C3780     1.0  0.63795  0.67291  0.22693  1.0000
  C   C3781     1.0  0.62459  0.75279  0.04344  1.0000
  C   C3782     1.0  0.66839  0.84285  0.03653  1.0000
  H   H3033     1.0  0.59936  0.87191  0.24364  1.0000
  H   H3034     1.0  0.62693  0.86413  0.21966  1.0000
  H   H3035     1.0  0.65889  0.86641  0.22391  1.0000
  H   H3036     1.0  0.66306  0.87636  0.25243  1.0000
  S   S516      1.0  0.51959  0.80914  0.27959  1.0000
  P   P122      1.0  0.59537  0.88357  0.28012  1.0000
  H   H3037     1.0  0.64720  0.85629  0.01981  1.0000
  C   C3783     1.0  0.70576  0.47213  0.08918  1.0000
  H   H3038     1.0  0.54243  0.81212  0.18015  1.0000
  S   S517      1.0  0.60983  0.80694  0.27041  1.0000
  H   H3039     1.0  0.52790  0.81811  0.21216  1.0000
  C   C3784     1.0  0.71034  0.51770  0.23153  1.0000
  C   C3785     1.0  0.69569  0.52799  0.22244  1.0000
  C   C3786     1.0  0.68159  0.54046  0.23144  1.0000
  C   C3787     1.0  0.53228  0.78223  0.16487  1.0000
  C   C3788     1.0  0.71109  0.69778  0.01610  1.0000
  C   C3789     1.0  0.62826  0.75259  0.02424  1.0000
  C   C3790     1.0  0.57662  0.91774  0.29043  1.0000
  H   H3040     1.0  0.60998  0.74838  0.20531  1.0000
  H   H3041     1.0  0.62511  0.95989  0.29269  1.0000
  H   H3042     1.0  0.69517  0.52615  0.20846  1.0000
  H   H3043     1.0  0.67012  0.54815  0.22447  1.0000
  H   H3044     1.0  0.72101  0.50786  0.22448  1.0000
  C   C3791     1.0  0.48514  0.78729  0.23817  1.0000
  C   C3792     1.0  0.69645  0.74094  0.97613  1.0000
  H   H3045     1.0  0.69195  0.56531  0.97196  1.0000
  C   C3793     1.0  0.60231  0.66306  0.00665  1.0000
  C   C3794     1.0  0.58836  0.67493  0.01655  1.0000
  C   C3795     1.0  0.59091  0.67841  0.03354  1.0000
  C   C3796     1.0  0.60759  0.67046  0.04042  1.0000
  C   C3797     1.0  0.62192  0.65889  0.03031  1.0000
  C   C3798     1.0  0.61900  0.65503  0.01349  1.0000
  P   P123      1.0  0.64327  0.64761  0.03924  1.0000
  C   C3799     1.0  0.64481  0.65522  0.06041  1.0000
  C   C3800     1.0  0.64240  0.62278  0.04388  1.0000
  C   C3801     1.0  0.62813  0.61593  0.05772  1.0000
  C   C3802     1.0  0.62713  0.59678  0.06158  1.0000
  C   C3803     1.0  0.64027  0.58437  0.05153  1.0000
  C   C3804     1.0  0.65438  0.59111  0.03756  1.0000
  C   C3805     1.0  0.65534  0.61027  0.03358  1.0000
  C   C3806     1.0  0.64900  0.64209  0.07630  1.0000
  C   C3807     1.0  0.64979  0.64813  0.09271  1.0000
  C   C3808     1.0  0.64670  0.66730  0.09331  1.0000
  C   C3809     1.0  0.64327  0.68044  0.07739  1.0000
  C   C3810     1.0  0.64252  0.67447  0.06090  1.0000
  C   C3811     1.0  0.66405  0.65294  0.02286  1.0000
  C   C3812     1.0  0.66281  0.66665  0.00670  1.0000
  C   C3813     1.0  0.67908  0.66995  0.99386  1.0000
  C   C3814     1.0  0.69661  0.65973  0.99701  1.0000
  C   C3815     1.0  0.69799  0.64640  0.01327  1.0000
  C   C3816     1.0  0.68182  0.64322  0.02631  1.0000
  H   H3046     1.0  0.60043  0.66053  0.99333  1.0000
  H   H3047     1.0  0.57568  0.68164  0.01098  1.0000
  H   H3048     1.0  0.58000  0.68754  0.04125  1.0000
  H   H3049     1.0  0.60912  0.67354  0.05351  1.0000
  H   H3050     1.0  0.62979  0.64612  0.00542  1.0000
  H   H3051     1.0  0.61783  0.62543  0.06556  1.0000
  H   H3052     1.0  0.61612  0.59161  0.07234  1.0000
  H   H3053     1.0  0.63945  0.56955  0.05447  1.0000
  H   H3054     1.0  0.66460  0.58157  0.02969  1.0000
  H   H3055     1.0  0.66614  0.61512  0.02238  1.0000
  H   H3056     1.0  0.65167  0.62716  0.07618  1.0000
  H   H3057     1.0  0.65263  0.63789  0.10501  1.0000
  H   H3058     1.0  0.64681  0.67206  0.10614  1.0000
  H   H3059     1.0  0.64088  0.69527  0.07802  1.0000
  H   H3060     1.0  0.63976  0.68485  0.04865  1.0000
  H   H3061     1.0  0.64935  0.67455  0.00367  1.0000
  H   H3062     1.0  0.67803  0.67989  0.98102  1.0000
  H   H3063     1.0  0.70904  0.66193  0.98666  1.0000
  H   H3064     1.0  0.71154  0.63826  0.01566  1.0000
  H   H3065     1.0  0.68317  0.63268  0.03875  1.0000
  C   C3817     1.0  0.67971  0.61939  0.18679  1.0000
  H   H3066     1.0  0.70476  0.74995  0.97929  1.0000
  H   H3067     1.0  0.69073  0.80642  0.96511  1.0000
  Fe  Fe260     1.0  0.72222  0.56037  0.12424  1.0000
  H   H3068     1.0  0.65891  0.65094  0.23790  1.0000
  C   C3818     1.0  0.70266  0.77938  0.01425  1.0000
  H   H3069     1.0  0.67068  0.88417  0.07983  1.0000
  H   H3070     1.0  0.67892  0.77141  0.00735  1.0000
  C   C3819     1.0  0.70793  0.58732  0.05936  1.0000
  Fe  Fe261     1.0  0.61859  0.70835  0.96779  1.0000
  C   C3820     1.0  0.56685  0.84288  0.27626  1.0000
  C   C3821     1.0  0.58110  0.85267  0.27641  1.0000
  C   C3822     1.0  0.52421  0.69978  0.23365  1.0000
  C   C3823     1.0  0.66933  0.59493  0.28271  1.0000
  C   C3824     1.0  0.69167  0.67874  0.04849  1.0000
  H   H3071     1.0  0.69739  0.79428  0.01069  1.0000
  H   H3072     1.0  0.67024  0.70317  0.04745  1.0000
  H   H3073     1.0  0.67114  0.55234  0.25653  1.0000
  H   H3074     1.0  0.70533  0.58024  0.08947  1.0000
  C   C3825     1.0  0.67452  0.71903  0.98567  1.0000
  C   C3826     1.0  0.49430  0.67674  0.15714  1.0000
  C   C3827     1.0  0.68552  0.50250  0.14592  1.0000
  H   H3075     1.0  0.64884  0.74638  0.00049  1.0000
  H   H3076     1.0  0.69415  0.59598  0.05977  1.0000
  C   C3828     1.0  0.52168  0.71411  0.26084  1.0000
  C   C3829     1.0  0.71880  0.67957  0.02376  1.0000
  H   H3077     1.0  0.71695  0.56540  0.20846  1.0000
  H   H3078     1.0  0.61123  0.66913  0.19604  1.0000
  H   H3079     1.0  0.53933  0.63382  0.19877  1.0000
  C   C3830     1.0  0.69690  0.53256  0.25862  1.0000
  C   C3831     1.0  0.71424  0.57844  0.07618  1.0000
  C   C3832     1.0  0.68526  0.73034  0.99041  1.0000
  H   H3080     1.0  0.70841  0.50881  0.05213  1.0000
  C   C3833     1.0  0.69875  0.74703  0.01697  1.0000
  C   C3834     1.0  0.71866  0.52919  0.00762  1.0000
  H   H3081     1.0  0.54768  0.81309  0.23655  1.0000
  H   H3082     1.0  0.64033  0.68305  0.23446  1.0000
  C   C3835     1.0  0.61620  0.77861  0.23165  1.0000
  P   P124      1.0  0.68462  0.73063  0.01478  1.0000
  H   H3083     1.0  0.66668  0.62033  0.18185  1.0000
  H   H3084     1.0  0.71428  0.56469  0.24253  1.0000
  C   C3836     1.0  0.60543  0.75846  0.15684  1.0000
  C   C3837     1.0  0.62129  0.76178  0.14346  1.0000
  C   C3838     1.0  0.63269  0.77370  0.14591  1.0000
  C   C3839     1.0  0.62822  0.78232  0.16176  1.0000
  C   C3840     1.0  0.61218  0.77918  0.17522  1.0000
  C   C3841     1.0  0.60091  0.76710  0.17263  1.0000
  P   P125      1.0  0.60642  0.78986  0.19602  1.0000
  C   C3842     1.0  0.61254  0.77272  0.21611  1.0000
  C   C3843     1.0  0.61927  0.80895  0.19283  1.0000
  C   C3844     1.0  0.63793  0.80525  0.19599  1.0000
  C   C3845     1.0  0.64786  0.81998  0.19379  1.0000
  C   C3846     1.0  0.63933  0.83848  0.18825  1.0000
  C   C3847     1.0  0.62084  0.84227  0.18490  1.0000
  C   C3848     1.0  0.61083  0.82757  0.18714  1.0000
  H   H3085     1.0  0.62328  0.73640  0.26045  1.0000
  C   C3849     1.0  0.61319  0.75347  0.21670  1.0000
  C   C3850     1.0  0.58153  0.79919  0.20075  1.0000
  C   C3851     1.0  0.57033  0.80275  0.18679  1.0000
  C   C3852     1.0  0.55104  0.80961  0.19089  1.0000
  C   C3853     1.0  0.54285  0.81311  0.20886  1.0000
  C   C3854     1.0  0.55399  0.81024  0.22261  1.0000
  C   C3855     1.0  0.57329  0.80353  0.21849  1.0000
  H   H3086     1.0  0.59662  0.74909  0.15509  1.0000
  H   H3087     1.0  0.62476  0.75503  0.13124  1.0000
  H   H3088     1.0  0.64505  0.77621  0.13556  1.0000
  H   H3089     1.0  0.63732  0.79139  0.16339  1.0000
  H   H3090     1.0  0.58861  0.76426  0.18288  1.0000
  H   H3091     1.0  0.64477  0.79097  0.20029  1.0000
  H   H3092     1.0  0.66217  0.81704  0.19649  1.0000
  H   H3093     1.0  0.64706  0.84987  0.18658  1.0000
  H   H3094     1.0  0.61422  0.85663  0.18061  1.0000
  H   H3095     1.0  0.59653  0.83081  0.18449  1.0000
  C   C3856     1.0  0.63188  0.64690  0.20733  1.0000
  C   C3857     1.0  0.68387  0.94824  0.27461  1.0000
  H   H3096     1.0  0.61674  0.56641  0.20851  1.0000
  C   C3858     1.0  0.52512  0.79550  0.15054  1.0000
  H   H3097     1.0  0.50951  0.77186  0.29265  1.0000
  H   H3098     1.0  0.69697  0.53451  0.27264  1.0000
  H   H3099     1.0  0.61630  0.69217  0.21374  1.0000
  H   H3100     1.0  0.70257  0.48396  0.25765  1.0000
  H   H3101     1.0  0.71515  0.92513  0.96817  1.0000
  C   C3859     1.0  0.69658  0.61879  0.17396  1.0000
  H   H3102     1.0  0.69649  0.61918  0.15930  1.0000
  H   H3103     1.0  0.52772  0.77037  0.19418  1.0000
  C   C3860     1.0  0.71235  0.49355  0.97206  1.0000
  C   C3861     1.0  0.71488  0.95516  0.27382  1.0000
  C   C3862     1.0  0.64835  0.65467  0.22896  1.0000
  P   P126      1.0  0.65804  0.61767  0.22248  1.0000
  C   C3863     1.0  0.71358  0.61734  0.18007  1.0000
  H   H3104     1.0  0.53699  0.84360  0.27993  1.0000
  H   H3105     1.0  0.68082  0.93623  0.97498  1.0000
  H   H3106     1.0  0.72011  0.92362  0.06847  1.0000
  C   C3864     1.0  0.72543  0.50751  0.28594  1.0000
  Fe  Fe262     1.0  0.72560  0.85141  0.00754  1.0000
  H   H3107     1.0  0.71075  0.67424  0.08753  1.0000
  H   H3108     1.0  0.57045  0.82865  0.27343  1.0000
  H   H3109     1.0  0.71873  0.69391  0.96247  1.0000
  H   H3110     1.0  0.52882  0.87630  0.28620  1.0000
  C   C3865     1.0  0.71532  0.65934  0.08752  1.0000
  H   H3111     1.0  0.72656  0.51945  0.01741  1.0000
  C   C3866     1.0  0.67699  0.96739  0.26998  1.0000
  C   C3867     1.0  0.48704  0.84063  0.22024  1.0000
  H   H3112     1.0  0.72269  0.50395  0.18115  1.0000
  C   C3868     1.0  0.70733  0.92116  0.98206  1.0000
  C   C3869     1.0  0.67740  0.80179  0.97074  1.0000
  H   H3113     1.0  0.72146  0.72618  0.02710  1.0000
  P   P127      1.0  0.72532  0.50011  0.98717  1.0000
  C   C3870     1.0  0.72612  0.52434  0.29150  1.0000
  Fe  Fe263     1.0  0.72499  0.56852  0.16255  1.0000
  C   C3871     1.0  0.67453  0.71870  0.96692  1.0000
  C   C3872     1.0  0.72437  0.47425  0.08856  1.0000
  C   C3873     1.0  0.71940  0.58507  0.04204  1.0000
  C   C3874     1.0  0.72753  0.87980  0.24410  1.0000
  H   H3114     1.0  0.51629  0.66408  0.96466  1.0000
  H   H3115     1.0  0.68837  0.63156  0.96396  1.0000
  H   H3116     1.0  0.71412  0.55188  0.02318  1.0000
  H   H3117     1.0  0.69474  0.47769  0.99431  1.0000
  H   H3118     1.0  0.72804  0.78335  0.02186  1.0000
  S   S518      1.0  0.72877  0.54189  0.15111  1.0000
  C   C3875     1.0  0.72705  0.62079  0.08813  1.0000
  C   C3876     1.0  0.70642  0.47379  0.04011  1.0000
  H   H3119     1.0  0.69404  0.47576  0.05079  1.0000
  C   C3877     1.0  0.67209  0.78794  0.96335  1.0000
  C   C3878     1.0  0.68870  0.47719  0.96745  1.0000
  H   H3120     1.0  0.67235  0.58988  0.29676  1.0000
  C   C3879     1.0  0.56397  0.79814  0.42376  1.0000
  H   H3121     1.0  0.71891  0.51038  0.33875  1.0000
  C   C3880     1.0  0.64578  0.94722  0.31034  1.0000
  C   C3881     1.0  0.71151  0.66954  0.52250  1.0000
  S   S519      1.0  0.53227  0.74136  0.57604  1.0000
  H   H3122     1.0  0.62380  0.89340  0.33130  1.0000
  C   C3882     1.0  0.67852  0.62752  0.60197  1.0000
  C   C3883     1.0  0.49576  0.74947  0.48400  1.0000
  C   C3884     1.0  0.60120  0.85904  0.31349  1.0000
  Fe  Fe264     1.0  0.70382  0.85261  0.49256  1.0000
  C   C3885     1.0  0.71452  0.78923  0.50341  1.0000
  S   S520      1.0  0.67886  0.83746  0.50330  1.0000
  C   C3886     1.0  0.63423  0.96244  0.30124  1.0000
  H   H3123     1.0  0.72349  0.74741  0.42856  1.0000
  C   C3887     1.0  0.52946  0.71040  0.54364  1.0000
  C   C3888     1.0  0.53464  0.80680  0.62501  1.0000
  S   S521      1.0  0.70243  0.88325  0.48058  1.0000
  H   H3124     1.0  0.50642  0.71099  0.56666  1.0000
  Fe  Fe265     1.0  0.62818  0.78120  0.45673  1.0000
  S   S522      1.0  0.62095  0.76304  0.48463  1.0000
  S   S523      1.0  0.64151  0.80745  0.44803  1.0000
  Fe  Fe266     1.0  0.61743  0.75473  0.43502  1.0000
  S   S524      1.0  0.60970  0.73410  0.46131  1.0000
  S   S525      1.0  0.62201  0.75185  0.40429  1.0000
  Fe  Fe267     1.0  0.59539  0.75986  0.47413  1.0000
  S   S526      1.0  0.56469  0.76487  0.48904  1.0000
  Fe  Fe268     1.0  0.63574  0.73872  0.46996  1.0000
  S   S527      1.0  0.65937  0.71827  0.48245  1.0000
  S   S528      1.0  0.60168  0.78006  0.44705  1.0000
  S   S529      1.0  0.64442  0.75725  0.44297  1.0000
  S   S530      1.0  0.71553  0.90946  0.51476  1.0000
  H   H3125     1.0  0.53939  0.70164  0.55210  1.0000
  H   H3126     1.0  0.72200  0.69830  0.46629  1.0000
  S   S531      1.0  0.69749  0.63962  0.45801  1.0000
  H   H3127     1.0  0.51884  0.79448  0.61079  1.0000
  H   H3128     1.0  0.53422  0.80385  0.34024  1.0000
  Fe  Fe269     1.0  0.56744  0.76671  0.31899  1.0000
  S   S532      1.0  0.56323  0.79721  0.30566  1.0000
  S   S533      1.0  0.56247  0.75911  0.35086  1.0000
  H   H3129     1.0  0.70164  0.54834  0.47591  1.0000
  H   H3130     1.0  0.72224  0.47834  0.29590  1.0000
  C   C3889     1.0  0.72237  0.49167  0.29969  1.0000
  H   H3131     1.0  0.69329  0.69632  0.40019  1.0000
  Fe  Fe270     1.0  0.69525  0.87164  0.33530  1.0000
  S   S534      1.0  0.66416  0.87442  0.33635  1.0000
  S   S535      1.0  0.70823  0.85866  0.36160  1.0000
  Fe  Fe271     1.0  0.67156  0.85623  0.31430  1.0000
  S   S536      1.0  0.65591  0.83146  0.32208  1.0000
  H   H3132     1.0  0.56238  0.94414  0.29853  1.0000
  S   S537      1.0  0.70262  0.85218  0.31420  1.0000
  S   S538      1.0  0.69750  0.89750  0.31301  1.0000
  C   C3890     1.0  0.70482  0.80065  0.43223  1.0000
  C   C3891     1.0  0.64604  0.67049  0.51097  1.0000
  H   H3133     1.0  0.71439  0.90768  0.39508  1.0000
  C   C3892     1.0  0.64295  0.82536  0.30738  1.0000
  C   C3893     1.0  0.63082  0.81233  0.31513  1.0000
  C   C3894     1.0  0.71004  0.88673  0.38075  1.0000
  H   H3134     1.0  0.62940  0.80653  0.32983  1.0000
  H   H3135     1.0  0.70739  0.63013  0.60039  1.0000
  C   C3895     1.0  0.65753  0.95067  0.32137  1.0000
  H   H3136     1.0  0.66650  0.93906  0.32844  1.0000
  C   C3896     1.0  0.68826  0.75481  0.50041  1.0000
  C   C3897     1.0  0.70303  0.69773  0.34968  1.0000
  H   H3137     1.0  0.72014  0.77605  0.32650  1.0000
  H   H3138     1.0  0.68492  0.76503  0.46089  1.0000
  C   C3898     1.0  0.60486  0.75534  0.38972  1.0000
  C   C3899     1.0  0.61079  0.75741  0.37022  1.0000
  C   C3900     1.0  0.59790  0.75925  0.35809  1.0000
  C   C3901     1.0  0.57894  0.75859  0.36540  1.0000
  C   C3902     1.0  0.57296  0.75667  0.38490  1.0000
  C   C3903     1.0  0.58581  0.75521  0.39702  1.0000
  H   H3139     1.0  0.62552  0.75727  0.36448  1.0000
  H   H3140     1.0  0.60272  0.76062  0.34314  1.0000
  H   H3141     1.0  0.55834  0.75600  0.39068  1.0000
  H   H3142     1.0  0.58111  0.75334  0.41200  1.0000
  C   C3904     1.0  0.66990  0.69677  0.47490  1.0000
  C   C3905     1.0  0.68662  0.68707  0.48097  1.0000
  C   C3906     1.0  0.69546  0.66980  0.47554  1.0000
  C   C3907     1.0  0.68731  0.66178  0.46439  1.0000
  C   C3908     1.0  0.67048  0.67143  0.45841  1.0000
  C   C3909     1.0  0.66191  0.68899  0.46344  1.0000
  H   H3143     1.0  0.69270  0.69294  0.49001  1.0000
  H   H3144     1.0  0.70837  0.66255  0.48030  1.0000
  H   H3145     1.0  0.66406  0.66534  0.44979  1.0000
  H   H3146     1.0  0.64899  0.69634  0.45872  1.0000
  C   C3910     1.0  0.66890  0.95853  0.62547  1.0000
  C   C3911     1.0  0.72919  0.91514  0.32853  1.0000
  C   C3912     1.0  0.71557  0.85477  0.39718  1.0000
  C   C3913     1.0  0.71105  0.86756  0.38114  1.0000
  C   C3914     1.0  0.69159  0.60231  0.54072  1.0000
  P   P128      1.0  0.48744  0.75026  0.50863  1.0000
  C   C3915     1.0  0.54414  0.89478  0.58409  1.0000
  C   C3916     1.0  0.69610  0.93572  0.61567  1.0000
  C   C3917     1.0  0.72829  0.70837  0.47055  1.0000
  H   H3147     1.0  0.71185  0.94400  0.58815  1.0000
  C   C3918     1.0  0.66926  0.82837  0.48786  1.0000
  C   C3919     1.0  0.67642  0.83059  0.46868  1.0000
  C   C3920     1.0  0.66756  0.82440  0.45661  1.0000
  C   C3921     1.0  0.65224  0.81494  0.46369  1.0000
  C   C3922     1.0  0.64529  0.81240  0.48289  1.0000
  C   C3923     1.0  0.65367  0.81925  0.49491  1.0000
  H   H3148     1.0  0.68829  0.83776  0.46305  1.0000
  H   H3149     1.0  0.67256  0.82705  0.44170  1.0000
  H   H3150     1.0  0.63318  0.80556  0.48840  1.0000
  H   H3151     1.0  0.64801  0.81756  0.50973  1.0000
  H   H3152     1.0  0.69845  0.67934  0.52207  1.0000
  C   C3924     1.0  0.52283  0.72891  0.51401  1.0000
  C   C3925     1.0  0.65514  0.76598  0.51084  1.0000
  C   C3926     1.0  0.49819  0.72798  0.54130  1.0000
  C   C3927     1.0  0.54134  0.74896  0.55203  1.0000
  C   C3928     1.0  0.53015  0.76109  0.53994  1.0000
  C   C3929     1.0  0.53757  0.76607  0.52079  1.0000
  C   C3930     1.0  0.55636  0.75913  0.51352  1.0000
  C   C3931     1.0  0.56770  0.74735  0.52570  1.0000
  C   C3932     1.0  0.56020  0.74227  0.54482  1.0000
  H   H3153     1.0  0.51573  0.76644  0.54537  1.0000
  H   H3154     1.0  0.52865  0.77521  0.51156  1.0000
  H   H3155     1.0  0.58216  0.74191  0.52034  1.0000
  H   H3156     1.0  0.56901  0.73293  0.55405  1.0000
  C   C3933     1.0  0.61717  0.88390  0.32653  1.0000
  H   H3157     1.0  0.56748  0.90336  0.37033  1.0000
  C   C3934     1.0  0.48341  0.78933  0.49781  1.0000
  H   H3158     1.0  0.61112  0.79673  0.31018  1.0000
  C   C3935     1.0  0.70900  0.59178  0.43726  1.0000
  H   H3159     1.0  0.64798  0.78863  0.38508  1.0000
  C   C3936     1.0  0.68772  0.96491  0.59472  1.0000
  C   C3937     1.0  0.63353  0.79574  0.38597  1.0000
  C   C3938     1.0  0.67266  0.76932  0.50061  1.0000
  C   C3939     1.0  0.51084  0.71583  0.55189  1.0000
  H   H3160     1.0  0.59568  0.84891  0.30849  1.0000
  H   H3161     1.0  0.70214  0.89940  0.56100  1.0000
  C   C3940     1.0  0.52063  0.80723  0.61476  1.0000
  C   C3941     1.0  0.71553  0.93644  0.53563  1.0000
  S   S539      1.0  0.49671  0.74923  0.62196  1.0000
  C   C3942     1.0  0.48495  0.77403  0.51263  1.0000
  C   C3943     1.0  0.69607  0.61990  0.50917  1.0000
  C   C3944     1.0  0.62458  0.80334  0.40187  1.0000
  H   H3162     1.0  0.51430  0.74751  0.43117  1.0000
  P   P129      1.0  0.71087  0.75941  0.48754  1.0000
  C   C3945     1.0  0.59562  0.81297  0.38899  1.0000
  H   H3163     1.0  0.57337  0.78787  0.41612  1.0000
  C   C3946     1.0  0.51138  0.75779  0.47443  1.0000
  C   C3947     1.0  0.56027  0.81705  0.41523  1.0000
  H   H3164     1.0  0.57254  0.89703  0.57018  1.0000
  H   H3165     1.0  0.72938  0.62298  0.53378  1.0000
  C   C3948     1.0  0.69363  0.59291  0.45185  1.0000
  H   H3166     1.0  0.69344  0.57243  0.54294  1.0000
  H   H3167     1.0  0.59729  0.80553  0.36182  1.0000
  H   H3168     1.0  0.71645  0.83993  0.39763  1.0000
  C   C3949     1.0  0.72539  0.73810  0.48097  1.0000
  C   C3950     1.0  0.54824  0.83008  0.42556  1.0000
  C   C3951     1.0  0.61555  0.86615  0.33714  1.0000
  H   H3169     1.0  0.55359  0.82909  0.32951  1.0000
  H   H3170     1.0  0.72413  0.53848  0.31460  1.0000
  H   H3171     1.0  0.52813  0.73384  0.49952  1.0000
  H   H3172     1.0  0.63218  0.80227  0.41319  1.0000
  H   H3173     1.0  0.57002  0.83758  0.35149  1.0000
  H   H3174     1.0  0.53161  0.78696  0.37284  1.0000
  C   C3952     1.0  0.69100  0.78689  0.33545  1.0000
  C   C3953     1.0  0.60568  0.81181  0.40344  1.0000
  H   H3175     1.0  0.59884  0.84895  0.38729  1.0000
  H   H3176     1.0  0.67927  0.57825  0.47721  1.0000
  H   H3177     1.0  0.51861  0.76463  0.48172  1.0000
  C   C3954     1.0  0.53278  0.88613  0.59968  1.0000
  C   C3955     1.0  0.69637  0.58643  0.51422  1.0000
  H   H3178     1.0  0.58717  0.87363  0.59454  1.0000
  H   H3179     1.0  0.60686  0.83978  0.33862  1.0000
  C   C3956     1.0  0.72350  0.52543  0.31047  1.0000
  C   C3957     1.0  0.69987  0.63521  0.57299  1.0000
  C   C3958     1.0  0.54098  0.87328  0.61377  1.0000
  S   S540      1.0  0.64399  0.92417  0.30854  1.0000
  C   C3959     1.0  0.66111  0.65679  0.51610  1.0000
  C   C3960     1.0  0.54871  0.80317  0.38105  1.0000
  H   H3180     1.0  0.51764  0.88937  0.60067  1.0000
  C   C3961     1.0  0.69749  0.60351  0.50207  1.0000
  Fe  Fe272     1.0  0.66696  0.89864  0.31251  1.0000
  C   C3962     1.0  0.53544  0.71690  0.52471  1.0000
  C   C3963     1.0  0.51802  0.75705  0.45547  1.0000
  C   C3964     1.0  0.69099  0.57720  0.46571  1.0000
  P   P130      1.0  0.68987  0.64115  0.53743  1.0000
  C   C3965     1.0  0.70694  0.77287  0.33492  1.0000
  C   C3966     1.0  0.71797  0.68434  0.34306  1.0000
  C   C3967     1.0  0.71983  0.76988  0.50309  1.0000
  C   C3968     1.0  0.67272  0.76487  0.35648  1.0000
  C   C3969     1.0  0.68864  0.75060  0.35586  1.0000
  C   C3970     1.0  0.70581  0.75479  0.34509  1.0000
  P   P131      1.0  0.68685  0.72742  0.36937  1.0000
  C   C3971     1.0  0.66449  0.72214  0.36757  1.0000
  C   C3972     1.0  0.70594  0.71013  0.36039  1.0000
  C   C3973     1.0  0.56066  0.86858  0.61166  1.0000
  C   C3974     1.0  0.54109  0.80791  0.34999  1.0000
  H   H3181     1.0  0.69068  0.72453  0.44588  1.0000
  C   C3975     1.0  0.69367  0.58579  0.53353  1.0000
  C   C3976     1.0  0.72398  0.70872  0.36454  1.0000
  C   C3977     1.0  0.65231  0.71510  0.38354  1.0000
  C   C3978     1.0  0.63493  0.71143  0.38189  1.0000
  C   C3979     1.0  0.62953  0.71477  0.36436  1.0000
  C   C3980     1.0  0.64148  0.72193  0.34842  1.0000
  C   C3981     1.0  0.65884  0.72570  0.35001  1.0000
  C   C3982     1.0  0.68850  0.72671  0.39349  1.0000
  C   C3983     1.0  0.68639  0.74331  0.40065  1.0000
  C   C3984     1.0  0.68759  0.74246  0.41938  1.0000
  C   C3985     1.0  0.69063  0.72512  0.43117  1.0000
  Fe  Fe273     1.0  0.72300  0.88424  0.49895  1.0000
  C   C3986     1.0  0.69189  0.70931  0.40534  1.0000
  C   C3987     1.0  0.50907  0.74816  0.44585  1.0000
  C   C3988     1.0  0.70629  0.90568  0.58684  1.0000
  H   H3182     1.0  0.49765  0.82427  0.60214  1.0000
  H   H3183     1.0  0.65937  0.76203  0.36487  1.0000
  H   H3184     1.0  0.71833  0.74420  0.34433  1.0000
  C   C3989     1.0  0.71936  0.86100  0.41251  1.0000
  S   S541      1.0  0.54768  0.75934  0.30313  1.0000
  C   C3990     1.0  0.72271  0.94515  0.54727  1.0000
  C   C3991     1.0  0.55213  0.88034  0.37628  1.0000
  C   C3992     1.0  0.70450  0.51993  0.45048  1.0000
  H   H3185     1.0  0.65577  0.71301  0.39737  1.0000
  H   H3186     1.0  0.62529  0.70673  0.39435  1.0000
  H   H3187     1.0  0.61577  0.71251  0.36323  1.0000
  H   H3188     1.0  0.63700  0.72503  0.33492  1.0000
  H   H3189     1.0  0.66779  0.73157  0.33756  1.0000
  H   H3190     1.0  0.68346  0.75693  0.39199  1.0000
  H   H3191     1.0  0.68548  0.75529  0.42496  1.0000
  C   C3993     1.0  0.71160  0.65026  0.52900  1.0000
  H   H3192     1.0  0.68405  0.60612  0.45264  1.0000
  H   H3193     1.0  0.70491  0.79804  0.49461  1.0000
  P   P132      1.0  0.57124  0.82416  0.39131  1.0000
  H   H3194     1.0  0.65049  0.62572  0.59915  1.0000
  H   H3195     1.0  0.71138  0.60416  0.42689  1.0000
  C   C3994     1.0  0.64789  0.68713  0.53512  1.0000
  C   C3995     1.0  0.68562  0.63611  0.56272  1.0000
  H   H3196     1.0  0.62116  0.86173  0.35001  1.0000
  C   C3996     1.0  0.59123  0.84938  0.43322  1.0000
  C   C3997     1.0  0.57673  0.86488  0.43247  1.0000
  C   C3998     1.0  0.58082  0.88276  0.42445  1.0000
  C   C3999     1.0  0.59944  0.88517  0.41727  1.0000
  C   C4000     1.0  0.61406  0.86960  0.41769  1.0000
  C   C4001     1.0  0.60980  0.85167  0.42568  1.0000
  P   P133      1.0  0.63833  0.87262  0.41021  1.0000
  C   C4002     1.0  0.63936  0.89519  0.39506  1.0000
  C   C4003     1.0  0.64849  0.87234  0.43047  1.0000
  C   C4004     1.0  0.66580  0.87842  0.42817  1.0000
  C   C4005     1.0  0.67287  0.87989  0.44380  1.0000
  C   C4006     1.0  0.66274  0.87532  0.46178  1.0000
  C   C4007     1.0  0.64570  0.86900  0.46419  1.0000
  C   C4008     1.0  0.63861  0.86743  0.44865  1.0000
  C   C4009     1.0  0.63995  0.89715  0.37571  1.0000
  C   C4010     1.0  0.64072  0.91461  0.36412  1.0000
  C   C4011     1.0  0.64078  0.93034  0.37173  1.0000
  C   C4012     1.0  0.63994  0.92863  0.39099  1.0000
  C   C4013     1.0  0.63912  0.91118  0.40264  1.0000
  C   C4014     1.0  0.65049  0.85405  0.39739  1.0000
  C   C4015     1.0  0.64179  0.84909  0.38444  1.0000
  C   C4016     1.0  0.65131  0.83561  0.37353  1.0000
  C   C4017     1.0  0.66954  0.82672  0.37566  1.0000
  C   C4018     1.0  0.67814  0.83117  0.38886  1.0000
  C   C4019     1.0  0.66871  0.84480  0.39970  1.0000
  H   H3197     1.0  0.58817  0.83560  0.44005  1.0000
  H   H3198     1.0  0.56238  0.86306  0.43844  1.0000
  H   H3199     1.0  0.56961  0.89482  0.42412  1.0000
  H   H3200     1.0  0.60238  0.89919  0.41162  1.0000
  H   H3201     1.0  0.62096  0.83957  0.42669  1.0000
  H   H3202     1.0  0.67376  0.88221  0.41431  1.0000
  H   H3203     1.0  0.68626  0.88452  0.44200  1.0000
  H   H3204     1.0  0.66827  0.87608  0.47396  1.0000
  H   H3205     1.0  0.63830  0.86478  0.47821  1.0000
  H   H3206     1.0  0.62549  0.86228  0.45106  1.0000
  H   H3207     1.0  0.63997  0.88527  0.36944  1.0000
  H   H3208     1.0  0.64148  0.91594  0.34915  1.0000
  H   H3209     1.0  0.64156  0.94383  0.36265  1.0000
  H   H3210     1.0  0.64007  0.94083  0.39689  1.0000
  H   H3211     1.0  0.63840  0.91021  0.41753  1.0000
  H   H3212     1.0  0.62791  0.85618  0.38231  1.0000
  H   H3213     1.0  0.64477  0.83230  0.36309  1.0000
  H   H3214     1.0  0.67715  0.81673  0.36676  1.0000
  H   H3215     1.0  0.69250  0.82471  0.39000  1.0000
  H   H3216     1.0  0.67587  0.84833  0.40946  1.0000
  H   H3217     1.0  0.59888  0.81718  0.41606  1.0000
  C   C4020     1.0  0.58577  0.85754  0.38426  1.0000
  C   C4021     1.0  0.63952  0.68571  0.52036  1.0000
  H   H3218     1.0  0.67409  0.78322  0.49285  1.0000
  H   H3219     1.0  0.63968  0.66955  0.49934  1.0000
  C   C4022     1.0  0.56373  0.89040  0.58231  1.0000
  C   C4023     1.0  0.55301  0.86091  0.38169  1.0000
  C   C4024     1.0  0.72333  0.51738  0.45282  1.0000
  C   C4025     1.0  0.71795  0.90178  0.60043  1.0000
  H   H3220     1.0  0.67439  0.47709  0.59849  1.0000
  C   C4026     1.0  0.69969  0.94778  0.59852  1.0000
  H   H3221     1.0  0.69962  0.60411  0.48709  1.0000
  H   H3222     1.0  0.72436  0.65603  0.39338  1.0000
  H   H3223     1.0  0.68929  0.69815  0.34649  1.0000
  H   H3224     1.0  0.70185  0.94231  0.53190  1.0000
  H   H3225     1.0  0.48387  0.73223  0.54809  1.0000
  H   H3226     1.0  0.65665  0.63316  0.56462  1.0000
  C   C4027     1.0  0.70567  0.48622  0.45689  1.0000
  H   H3227     1.0  0.53910  0.88916  0.37310  1.0000
  C   C4028     1.0  0.56988  0.84935  0.38566  1.0000
  H   H3228     1.0  0.66955  0.67500  0.55156  1.0000
  C   C4029     1.0  0.58490  0.87694  0.37871  1.0000
  C   C4030     1.0  0.66779  0.63268  0.57230  1.0000
  H   H3229     1.0  0.69493  0.69514  0.43336  1.0000
  C   C4031     1.0  0.66426  0.62842  0.59185  1.0000
  H   H3230     1.0  0.55003  0.71314  0.51843  1.0000
  H   H3231     1.0  0.53863  0.80094  0.46729  1.0000
  H   H3232     1.0  0.63938  0.74546  0.52848  1.0000
  C   C4032     1.0  0.72053  0.50962  0.32406  1.0000
  H   H3233     1.0  0.69176  0.80090  0.32745  1.0000
  H   H3234     1.0  0.54509  0.84471  0.41938  1.0000
  H   H3235     1.0  0.59730  0.88314  0.37743  1.0000
  H   H3236     1.0  0.53776  0.90477  0.57329  1.0000
  C   C4033     1.0  0.48242  0.77754  0.53094  1.0000
  C   C4034     1.0  0.62362  0.79679  0.37155  1.0000
  H   H3237     1.0  0.53132  0.83438  0.45231  1.0000
  C   C4035     1.0  0.67394  0.78290  0.34623  1.0000
  Fe  Fe274     1.0  0.50191  0.74872  0.59084  1.0000
  C   C4036     1.0  0.53948  0.79846  0.36848  1.0000
  C   C4037     1.0  0.69291  0.70856  0.42411  1.0000
  C   C4038     1.0  0.72847  0.67640  0.51631  1.0000
  C   C4039     1.0  0.66306  0.67354  0.54024  1.0000
  H   H3238     1.0  0.70303  0.81073  0.41960  1.0000
  H   H3239     1.0  0.69821  0.72579  0.51179  1.0000
  C   C4040     1.0  0.57198  0.87724  0.59606  1.0000
  H   H3240     1.0  0.62819  0.69658  0.51595  1.0000
  H   H3241     1.0  0.68150  0.78757  0.43162  1.0000
  H   H3242     1.0  0.54748  0.79536  0.39516  1.0000
  C   C4041     1.0  0.56809  0.88834  0.37472  1.0000
  C   C4042     1.0  0.60746  0.85379  0.33070  1.0000
  C   C4043     1.0  0.70825  0.77576  0.46605  1.0000
  C   C4044     1.0  0.66996  0.65831  0.53065  1.0000
  H   H3243     1.0  0.66168  0.79389  0.34644  1.0000
  C   C4045     1.0  0.71727  0.72510  0.47525  1.0000
  H   H3244     1.0  0.64309  0.77720  0.51079  1.0000
  C   C4046     1.0  0.60474  0.80538  0.37299  1.0000
  C   C4047     1.0  0.66869  0.73370  0.52124  1.0000
  C   C4048     1.0  0.55961  0.81748  0.37518  1.0000
  C   C4049     1.0  0.72165  0.57490  0.43638  1.0000
  C   C4050     1.0  0.71997  0.49275  0.31867  1.0000
  C   C4051     1.0  0.68628  0.73707  0.51119  1.0000
  C   C4052     1.0  0.65308  0.74811  0.52096  1.0000
  C   C4053     1.0  0.71882  0.55893  0.44997  1.0000
  C   C4054     1.0  0.55205  0.82206  0.34397  1.0000
  C   C4055     1.0  0.72583  0.92017  0.52884  1.0000
  H   H3245     1.0  0.66575  0.64532  0.50843  1.0000
  C   C4056     1.0  0.69457  0.77495  0.45574  1.0000
  C   C4057     1.0  0.62043  0.80679  0.30400  1.0000
  H   H3246     1.0  0.55930  0.77786  0.44903  1.0000
  C   C4058     1.0  0.69244  0.61959  0.52855  1.0000
  H   H3247     1.0  0.68964  0.60136  0.55572  1.0000
  H   H3248     1.0  0.63034  0.79023  0.35959  1.0000
  H   H3249     1.0  0.54060  0.85486  0.38257  1.0000
  H   H3250     1.0  0.66711  0.71985  0.52897  1.0000
  H   H3251     1.0  0.64272  0.69893  0.54242  1.0000
  C   C4059     1.0  0.56136  0.82678  0.35647  1.0000
  C   C4060     1.0  0.69280  0.78747  0.43896  1.0000
  C   C4061     1.0  0.69630  0.63092  0.59255  1.0000
  C   C4062     1.0  0.61098  0.88921  0.30933  1.0000
  H   H3252     1.0  0.70236  0.72779  0.47466  1.0000
  C   C4063     1.0  0.55597  0.79240  0.44237  1.0000
  C   C4064     1.0  0.54432  0.80546  0.45268  1.0000
  C   C4065     1.0  0.54036  0.82428  0.44426  1.0000
  C   C4066     1.0  0.50407  0.73470  0.52222  1.0000
  H   H3253     1.0  0.72291  0.67398  0.41846  1.0000
  H   H3254     1.0  0.71458  0.95762  0.55227  1.0000
  C   C4067     1.0  0.71940  0.88006  0.41167  1.0000
  S   S542      1.0  0.48307  0.77638  0.58443  1.0000
  H   H3255     1.0  0.69761  0.63287  0.49951  1.0000
  H   H3256     1.0  0.53025  0.76322  0.44829  1.0000
  H   H3257     1.0  0.69801  0.57365  0.50866  1.0000
  C   C4068     1.0  0.71084  0.89598  0.57178  1.0000
  S   S543      1.0  0.72207  0.85421  0.51272  1.0000
  H   H3258     1.0  0.69370  0.91622  0.58774  1.0000
  S   S544      1.0  0.59341  0.75829  0.29832  1.0000
  H   H3259     1.0  0.71377  0.63770  0.56605  1.0000
  C   C4069     1.0  0.72158  0.79753  0.51514  1.0000
  H   H3260     1.0  0.72698  0.54742  0.41122  1.0000
  Fe  Fe275     1.0  0.72742  0.87357  0.45964  1.0000
  H   H3261     1.0  0.68114  0.50643  0.45089  1.0000
  C   C4070     1.0  0.69568  0.50439  0.45266  1.0000
  C   C4071     1.0  0.71859  0.80140  0.44230  1.0000
  C   C4072     1.0  0.48047  0.80773  0.50117  1.0000
  H   H3262     1.0  0.70642  0.89671  0.36862  1.0000
  C   C4073     1.0  0.71449  0.89289  0.39581  1.0000
  H   H3263     1.0  0.70186  0.47447  0.57282  1.0000
  H   H3264     1.0  0.72045  0.94347  0.31531  1.0000
  C   C4074     1.0  0.70363  0.56031  0.46489  1.0000
  C   C4075     1.0  0.51048  0.84043  0.61546  1.0000
  C   C4076     1.0  0.65702  0.96917  0.32392  1.0000
  H   H3265     1.0  0.72301  0.85099  0.42465  1.0000
  C   C4077     1.0  0.50866  0.82407  0.60987  1.0000
  H   H3266     1.0  0.72760  0.81194  0.43733  1.0000
  C   C4078     1.0  0.72045  0.78886  0.45902  1.0000
  H   H3267     1.0  0.72106  0.91725  0.34210  1.0000
  H   H3268     1.0  0.71561  0.67475  0.33489  1.0000
  C   C4079     1.0  0.48678  0.74064  0.47420  1.0000
  H   H3269     1.0  0.48247  0.76613  0.54276  1.0000
  H   H3270     1.0  0.71771  0.81254  0.51497  1.0000
  H   H3271     1.0  0.69666  0.53384  0.44670  1.0000
  C   C4080     1.0  0.72890  0.63797  0.52913  1.0000
  C   C4081     1.0  0.49343  0.74001  0.45520  1.0000
  H   H3272     1.0  0.50106  0.85334  0.61152  1.0000
  H   H3273     1.0  0.71801  0.48038  0.32918  1.0000
  H   H3274     1.0  0.67581  0.62412  0.61712  1.0000
  S   S545      1.0  0.72765  0.84273  0.47075  1.0000
  Fe  Fe276     1.0  0.72710  0.62593  0.46262  1.0000
  H   H3275     1.0  0.56725  0.85815  0.62203  1.0000
  H   H3276     1.0  0.61305  0.90279  0.30104  1.0000
  H   H3277     1.0  0.48415  0.78718  0.48368  1.0000
  P   P134      1.0  0.71178  0.91373  0.62033  1.0000
  H   H3278     1.0  0.72204  0.53319  0.53406  1.0000
  H   H3279     1.0  0.72649  0.71795  0.37301  1.0000
  C   C4082     1.0  0.52412  0.84001  0.62630  1.0000
  H   H3280     1.0  0.69885  0.47419  0.45849  1.0000
  C   C4083     1.0  0.60285  0.87684  0.30267  1.0000
  C   C4084     1.0  0.72693  0.88221  0.57024  1.0000
  H   H3281     1.0  0.48649  0.73311  0.44771  1.0000
  H   H3282     1.0  0.57328  0.90984  0.30438  1.0000
  H   H3283     1.0  0.67453  0.90332  0.62856  1.0000
  H   H3284     1.0  0.54388  0.79371  0.62882  1.0000
  S   S546      1.0  0.72671  0.88832  0.42938  1.0000
  C   C4085     1.0  0.72455  0.48357  0.45876  1.0000
  C   C4086     1.0  0.72894  0.92997  0.31333  1.0000
  H   H3285     1.0  0.72834  0.69126  0.51122  1.0000
  C   C4087     1.0  0.67227  0.97023  0.60815  1.0000
  C   C4088     1.0  0.67273  0.48236  0.81115  1.0000
  S   S547      1.0  0.61656  0.95322  0.74534  1.0000
  C   C4089     1.0  0.50148  0.95466  0.73491  1.0000
  H   H3286     1.0  0.50131  0.81419  0.76442  1.0000
  S   S548      1.0  0.49216  0.86625  0.69253  1.0000
  C   C4090     1.0  0.51292  0.74007  0.66832  1.0000
  S   S549      1.0  0.56929  0.93577  0.74613  1.0000
  H   H3287     1.0  0.62833  0.94574  0.86768  1.0000
  C   C4091     1.0  0.71541  0.84158  0.87066  1.0000
  H   H3288     1.0  0.69187  0.95481  0.67678  1.0000
  C   C4092     1.0  0.67212  0.87285  0.94880  1.0000
  P   P135      1.0  0.49130  0.73782  0.70421  1.0000
  H   H3289     1.0  0.69800  0.47223  0.70011  1.0000
  C   C4093     1.0  0.53398  0.48773  0.74829  1.0000
  C   C4094     1.0  0.50966  0.95491  0.71599  1.0000
  S   S550      1.0  0.57463  0.75096  0.92607  1.0000
  H   H3290     1.0  0.69071  0.51256  0.71447  1.0000
  C   C4095     1.0  0.52933  0.74205  0.65518  1.0000
  S   S551      1.0  0.51183  0.71409  0.84769  1.0000
  C   C4096     1.0  0.68222  0.89544  0.63948  1.0000
  S   S552      1.0  0.51237  0.71583  0.90198  1.0000
  H   H3291     1.0  0.67844  0.93299  0.64313  1.0000
  H   H3292     1.0  0.65735  0.96302  0.63615  1.0000
  S   S553      1.0  0.49321  0.61794  0.74051  1.0000
  H   H3293     1.0  0.51437  0.78196  0.77841  1.0000
  S   S554      1.0  0.50134  0.75641  0.81064  1.0000
  H   H3294     1.0  0.49383  0.86102  0.87328  1.0000
  S   S555      1.0  0.49843  0.56469  0.76775  1.0000
  C   C4097     1.0  0.56442  0.68068  0.95593  1.0000
  H   H3295     1.0  0.51019  0.92782  0.76705  1.0000
  Fe  Fe277     1.0  0.50303  0.87362  0.71594  1.0000
  S   S556      1.0  0.52415  0.89430  0.70615  1.0000
  S   S557      1.0  0.50477  0.81011  0.69628  1.0000
  S   S558      1.0  0.50767  0.84339  0.73052  1.0000
  H   H3296     1.0  0.72514  0.88782  0.65271  1.0000
  C   C4098     1.0  0.50411  0.87602  0.63924  1.0000
  C   C4099     1.0  0.49529  0.75585  0.92379  1.0000
  Fe  Fe278     1.0  0.59176  0.49378  0.73567  1.0000
  H   H3297     1.0  0.57398  0.63311  0.95355  1.0000
  S   S559      1.0  0.57299  0.52071  0.72464  1.0000
  H   H3298     1.0  0.55924  0.87907  0.67699  1.0000
  S   S560      1.0  0.64854  0.76487  0.95995  1.0000
  S   S561      1.0  0.62326  0.49156  0.72727  1.0000
  Fe  Fe279     1.0  0.49772  0.71939  0.87650  1.0000
  H   H3299     1.0  0.54785  0.88324  0.64714  1.0000
  S   S562      1.0  0.66158  0.50207  0.84052  1.0000
  H   H3300     1.0  0.52953  0.74192  0.70740  1.0000
  H   H3301     1.0  0.54573  0.47915  0.75444  1.0000
  C   C4100     1.0  0.64214  0.54929  0.82248  1.0000
  C   C4101     1.0  0.65824  0.49393  0.82082  1.0000
  H   H3302     1.0  0.51023  0.56802  0.80998  1.0000
  C   C4102     1.0  0.63774  0.49242  0.79928  1.0000
  C   C4103     1.0  0.48729  0.68070  0.80669  1.0000
  H   H3303     1.0  0.67841  0.57297  0.75231  1.0000
  C   C4104     1.0  0.67876  0.84258  0.86529  1.0000
  C   C4105     1.0  0.68573  0.72915  0.95276  1.0000
  H   H3304     1.0  0.48037  0.66174  0.72078  1.0000
  C   C4106     1.0  0.49439  0.80767  0.67771  1.0000
  H   H3305     1.0  0.51910  0.50154  0.70640  1.0000
  H   H3306     1.0  0.51933  0.49670  0.77405  1.0000
  H   H3307     1.0  0.59816  0.94968  0.79637  1.0000
  C   C4107     1.0  0.48294  0.85242  0.87812  1.0000
  C   C4108     1.0  0.51938  0.55287  0.75571  1.0000
  C   C4109     1.0  0.53026  0.53764  0.76563  1.0000
  C   C4110     1.0  0.54682  0.52769  0.75642  1.0000
  C   C4111     1.0  0.55256  0.53288  0.73715  1.0000
  C   C4112     1.0  0.54189  0.54834  0.72734  1.0000
  C   C4113     1.0  0.52525  0.55816  0.73651  1.0000
  H   H3308     1.0  0.52574  0.53340  0.78048  1.0000
  H   H3309     1.0  0.55497  0.51588  0.76415  1.0000
  H   H3310     1.0  0.54643  0.55262  0.71250  1.0000
  H   H3311     1.0  0.51697  0.56983  0.72872  1.0000
  C   C4114     1.0  0.55270  0.86832  0.67422  1.0000
  S   S563      1.0  0.72145  0.47725  0.66422  1.0000
  C   C4115     1.0  0.50393  0.51059  0.73219  1.0000
  H   H3312     1.0  0.51390  0.75601  0.94257  1.0000
  C   C4116     1.0  0.49463  0.80745  0.84399  1.0000
  H   H3313     1.0  0.49114  0.71628  0.74275  1.0000
  H   H3314     1.0  0.67578  0.63118  0.75382  1.0000
  C   C4117     1.0  0.48625  0.90631  0.64540  1.0000
  H   H3315     1.0  0.54571  0.48195  0.72061  1.0000
  C   C4118     1.0  0.69302  0.48300  0.94811  1.0000
  C   C4119     1.0  0.50042  0.91823  0.76909  1.0000
  C   C4120     1.0  0.55770  0.74063  0.91940  1.0000
  C   C4121     1.0  0.54919  0.72627  0.93133  1.0000
  C   C4122     1.0  0.53552  0.71884  0.92567  1.0000
  C   C4123     1.0  0.53029  0.72544  0.90790  1.0000
  C   C4124     1.0  0.53903  0.73959  0.89583  1.0000
  C   C4125     1.0  0.55246  0.74726  0.90164  1.0000
  C   C4126     1.0  0.54542  0.74429  0.67967  1.0000
  H   H3316     1.0  0.52882  0.70800  0.93521  1.0000
  H   H3317     1.0  0.53532  0.74477  0.88212  1.0000
  H   H3318     1.0  0.55889  0.75839  0.89227  1.0000
  H   H3319     1.0  0.48174  0.63188  0.79886  1.0000
  C   C4127     1.0  0.52584  0.96289  0.70854  1.0000
  H   H3320     1.0  0.64891  0.96714  0.87097  1.0000
  C   C4128     1.0  0.49678  0.73463  0.75881  1.0000
  C   C4129     1.0  0.50423  0.50917  0.75132  1.0000
  C   C4130     1.0  0.48762  0.86823  0.64546  1.0000
  S   S564      1.0  0.69311  0.48641  0.88010  1.0000
  C   C4131     1.0  0.48896  0.64725  0.81746  1.0000
  C   C4132     1.0  0.50101  0.78888  0.78505  1.0000
  H   H3321     1.0  0.50133  0.82735  0.87117  1.0000
  C   C4133     1.0  0.50061  0.79274  0.90910  1.0000
  C   C4134     1.0  0.70077  0.94581  0.90410  1.0000
  C   C4135     1.0  0.66436  0.84505  0.94195  1.0000
  C   C4136     1.0  0.62612  0.90773  0.79074  1.0000
  C   C4137     1.0  0.71694  0.91511  0.92923  1.0000
  C   C4138     1.0  0.69742  0.92095  0.93173  1.0000
  C   C4139     1.0  0.68940  0.93617  0.91919  1.0000
  H   H3322     1.0  0.63579  0.53870  0.85196  1.0000
  C   C4140     1.0  0.53393  0.48927  0.72922  1.0000
  H   H3323     1.0  0.49780  0.77737  0.64762  1.0000
  H   H3324     1.0  0.67431  0.94062  0.92126  1.0000
  C   C4141     1.0  0.55747  0.92393  0.73452  1.0000
  C   C4142     1.0  0.55900  0.92691  0.71503  1.0000
  C   C4143     1.0  0.54882  0.91766  0.70665  1.0000
  C   C4144     1.0  0.53704  0.90517  0.71757  1.0000
  C   C4145     1.0  0.53586  0.90184  0.73701  1.0000
  C   C4146     1.0  0.54600  0.91114  0.74538  1.0000
  H   H3325     1.0  0.56785  0.93655  0.70642  1.0000
  H   H3326     1.0  0.54998  0.92030  0.69160  1.0000
  H   H3327     1.0  0.52713  0.89209  0.74557  1.0000
  H   H3328     1.0  0.54491  0.90845  0.76043  1.0000
  H   H3329     1.0  0.55798  0.74601  0.68407  1.0000
  Fe  Fe280     1.0  0.49038  0.69599  0.84928  1.0000
  H   H3330     1.0  0.59309  0.58101  0.82911  1.0000
  C   C4147     1.0  0.51257  0.74036  0.68726  1.0000
  C   C4148     1.0  0.63085  0.54849  0.84018  1.0000
  C   C4149     1.0  0.50157  0.57972  0.68512  1.0000
  H   H3331     1.0  0.51525  0.70274  0.69410  1.0000
  C   C4150     1.0  0.49385  0.74381  0.72592  1.0000
  H   H3332     1.0  0.51012  0.66987  0.70159  1.0000
  H   H3333     1.0  0.62423  0.49630  0.79477  1.0000
  Fe  Fe281     1.0  0.71380  0.50631  0.87472  1.0000
  H   H3334     1.0  0.65553  0.53995  0.82107  1.0000
  C   C4151     1.0  0.65151  0.96086  0.85850  1.0000
  H   H3335     1.0  0.72490  0.82627  0.90844  1.0000
  H   H3336     1.0  0.71199  0.53503  0.80155  1.0000
  H   H3337     1.0  0.67358  0.48800  0.73459  1.0000
  C   C4152     1.0  0.69128  0.90195  0.79755  1.0000
  H   H3338     1.0  0.50385  0.94883  0.70692  1.0000
  C   C4153     1.0  0.71627  0.91231  0.86359  1.0000
  C   C4154     1.0  0.50019  0.75246  0.75896  1.0000
  C   C4155     1.0  0.50074  0.79174  0.66914  1.0000
  S   S565      1.0  0.62232  0.73263  0.94445  1.0000
  C   C4156     1.0  0.66487  0.68221  0.94525  1.0000
  C   C4157     1.0  0.49532  0.79399  0.86044  1.0000
  H   H3339     1.0  0.50420  0.59980  0.79109  1.0000
  Fe  Fe282     1.0  0.49415  0.83681  0.70855  1.0000
  C   C4158     1.0  0.50709  0.80434  0.82751  1.0000
  H   H3340     1.0  0.52921  0.78492  0.81426  1.0000
  H   H3341     1.0  0.51190  0.78107  0.67403  1.0000
  C   C4159     1.0  0.67296  0.52766  0.77719  1.0000
  C   C4160     1.0  0.68212  0.90355  0.83060  1.0000
  C   C4161     1.0  0.72026  0.93994  0.90162  1.0000
  H   H3342     1.0  0.65054  0.62918  0.78173  1.0000
  H   H3343     1.0  0.50851  0.76620  0.87214  1.0000
  C   C4162     1.0  0.50389  0.90083  0.78076  1.0000
  H   H3344     1.0  0.53234  0.96267  0.69407  1.0000
  C   C4163     1.0  0.65769  0.58394  0.77448  1.0000
  C   C4164     1.0  0.69255  0.65759  0.94558  1.0000
  Fe  Fe283     1.0  0.69022  0.49474  0.84975  1.0000
  H   H3345     1.0  0.63469  0.93106  0.83958  1.0000
  H   H3346     1.0  0.62647  0.95471  0.80595  1.0000
  C   C4165     1.0  0.70317  0.95756  0.76644  1.0000
  H   H3347     1.0  0.69104  0.50159  0.77238  1.0000
  H   H3348     1.0  0.72688  0.50840  0.94662  1.0000
  C   C4166     1.0  0.49079  0.66491  0.82043  1.0000
  H   H3349     1.0  0.48803  0.85339  0.64636  1.0000
  H   H3350     1.0  0.69944  0.55746  0.91618  1.0000
  C   C4167     1.0  0.48334  0.64546  0.80098  1.0000
  C   C4168     1.0  0.67068  0.61805  0.75953  1.0000
  P   P136      1.0  0.66401  0.93260  0.80619  1.0000
  C   C4169     1.0  0.60032  0.61423  0.95068  1.0000
  C   C4170     1.0  0.54615  0.87064  0.65735  1.0000
  H   H3351     1.0  0.72826  0.91692  0.85387  1.0000
  C   C4171     1.0  0.68412  0.91930  0.87939  1.0000
  H   H3352     1.0  0.49682  0.72414  0.77146  1.0000
  C   C4172     1.0  0.49350  0.73031  0.74243  1.0000
  C   C4173     1.0  0.68505  0.54686  0.79311  1.0000
  H   H3353     1.0  0.61953  0.57905  0.72023  1.0000
  C   C4174     1.0  0.70231  0.88811  0.88650  1.0000
  C   C4175     1.0  0.69498  0.88715  0.83476  1.0000
  C   C4176     1.0  0.52980  0.66856  0.96233  1.0000
  C   C4177     1.0  0.49919  0.68087  0.70648  1.0000
  C   C4178     1.0  0.64000  0.94880  0.85664  1.0000
  C   C4179     1.0  0.69401  0.83267  0.85466  1.0000
  C   C4180     1.0  0.63405  0.57132  0.74793  1.0000
  H   H3354     1.0  0.62929  0.50760  0.82249  1.0000
  C   C4181     1.0  0.50194  0.69955  0.70215  1.0000
  C   C4182     1.0  0.62641  0.94135  0.80216  1.0000
  H   H3355     1.0  0.68573  0.47885  0.93877  1.0000
  C   C4183     1.0  0.51891  0.50052  0.72122  1.0000
  C   C4184     1.0  0.72992  0.92585  0.64380  1.0000
  H   H3356     1.0  0.49948  0.77179  0.71338  1.0000
  H   H3357     1.0  0.67136  0.92937  0.88204  1.0000
  C   C4185     1.0  0.48760  0.71379  0.70830  1.0000
  H   H3358     1.0  0.67389  0.91030  0.84200  1.0000
  C   C4186     1.0  0.65643  0.61692  0.77522  1.0000
  C   C4187     1.0  0.70065  0.89785  0.63925  1.0000
  C   C4188     1.0  0.52063  0.77407  0.84341  1.0000
  C   C4189     1.0  0.69376  0.94887  0.78338  1.0000
  H   H3359     1.0  0.65464  0.89973  0.79528  1.0000
  H   H3360     1.0  0.68164  0.96044  0.81724  1.0000
  C   C4190     1.0  0.60683  0.57220  0.82725  1.0000
  C   C4191     1.0  0.61016  0.92176  0.79095  1.0000
  H   H3361     1.0  0.49016  0.91832  0.71914  1.0000
  C   C4192     1.0  0.68938  0.51427  0.77812  1.0000
  C   C4193     1.0  0.70326  0.51683  0.78715  1.0000
  C   C4194     1.0  0.67853  0.60218  0.75133  1.0000
  H   H3362     1.0  0.62606  0.89489  0.78593  1.0000
  C   C4195     1.0  0.48493  0.92272  0.75976  1.0000
  C   C4196     1.0  0.53656  0.82317  0.63057  1.0000
  C   C4197     1.0  0.61322  0.55995  0.84259  1.0000
  H   H3363     1.0  0.48893  0.69430  0.80871  1.0000
  C   C4198     1.0  0.67068  0.54409  0.78466  1.0000
  C   C4199     1.0  0.64254  0.92741  0.80189  1.0000
  C   C4200     1.0  0.68398  0.67584  0.93877  1.0000
  H   H3364     1.0  0.72415  0.82469  0.84893  1.0000
  C   C4201     1.0  0.68539  0.90085  0.88913  1.0000
  C   C4202     1.0  0.54145  0.67361  0.88654  1.0000
  C   C4203     1.0  0.54945  0.66007  0.87528  1.0000
  C   C4204     1.0  0.56629  0.64816  0.87846  1.0000
  C   C4205     1.0  0.57507  0.64974  0.89296  1.0000
  C   C4206     1.0  0.56694  0.66318  0.90451  1.0000
  C   C4207     1.0  0.55017  0.67522  0.90101  1.0000
  P   P137      1.0  0.57817  0.66561  0.92319  1.0000
  C   C4208     1.0  0.59382  0.64403  0.92990  1.0000
  C   C4209     1.0  0.59147  0.68462  0.91562  1.0000
  C   C4210     1.0  0.60711  0.68442  0.92378  1.0000
  C   C4211     1.0  0.61707  0.69935  0.91844  1.0000
  C   C4212     1.0  0.61134  0.71478  0.90519  1.0000
  C   C4213     1.0  0.59577  0.71514  0.89707  1.0000
  C   C4214     1.0  0.58582  0.70016  0.90228  1.0000
  C   C4215     1.0  0.58798  0.63074  0.94542  1.0000
  H   H3365     1.0  0.50382  0.96247  0.76081  1.0000
  C   C4216     1.0  0.61853  0.61086  0.94048  1.0000
  C   C4217     1.0  0.62438  0.62395  0.92493  1.0000
  C   C4218     1.0  0.61206  0.64042  0.91958  1.0000
  C   C4219     1.0  0.56072  0.67060  0.94340  1.0000
  C   C4220     1.0  0.54341  0.66427  0.94691  1.0000
  H   H3366     1.0  0.65918  0.88137  0.65416  1.0000
  H   H3367     1.0  0.49362  0.74137  0.92916  1.0000
  C   C4221     1.0  0.48911  0.78455  0.90137  1.0000
  C   C4222     1.0  0.68334  0.87243  0.66793  1.0000
  H   H3368     1.0  0.52843  0.68295  0.88403  1.0000
  H   H3369     1.0  0.54256  0.65892  0.86409  1.0000
  H   H3370     1.0  0.57253  0.63773  0.86965  1.0000
  H   H3371     1.0  0.58811  0.64043  0.89509  1.0000
  H   H3372     1.0  0.54378  0.68587  0.90950  1.0000
  H   H3373     1.0  0.61141  0.67299  0.93464  1.0000
  H   H3374     1.0  0.62895  0.69914  0.92500  1.0000
  H   H3375     1.0  0.61859  0.72672  0.90161  1.0000
  H   H3376     1.0  0.59096  0.72740  0.88728  1.0000
  H   H3377     1.0  0.57343  0.70112  0.89626  1.0000
  H   H3378     1.0  0.70961  0.86597  0.67819  1.0000
  S   S566      1.0  0.59337  0.47853  0.76511  1.0000
  C   C4223     1.0  0.70193  0.87428  0.66744  1.0000
  H   H3379     1.0  0.63853  0.62140  0.91708  1.0000
  H   H3380     1.0  0.61683  0.65044  0.90750  1.0000
  H   H3381     1.0  0.54028  0.65625  0.93764  1.0000
  H   H3382     1.0  0.68631  0.47856  0.81545  1.0000
  H   H3383     1.0  0.65831  0.69627  0.93992  1.0000
  H   H3384     1.0  0.71262  0.87855  0.79061  1.0000
  H   H3385     1.0  0.71011  0.49872  0.92572  1.0000
  C   C4224     1.0  0.60487  0.55355  0.71693  1.0000
  C   C4225     1.0  0.62364  0.53976  0.72568  1.0000
  C   C4226     1.0  0.62828  0.54131  0.74690  1.0000
  C   C4227     1.0  0.60310  0.56694  0.76208  1.0000
  C   C4228     1.0  0.58694  0.57714  0.74770  1.0000
  C   C4229     1.0  0.58841  0.57031  0.72679  1.0000
  P   P138      1.0  0.56866  0.59592  0.75473  1.0000
  C   C4230     1.0  0.55028  0.58689  0.77232  1.0000
  C   C4231     1.0  0.57919  0.61121  0.76399  1.0000
  C   C4232     1.0  0.56918  0.62018  0.77891  1.0000
  C   C4233     1.0  0.57751  0.63194  0.78599  1.0000
  C   C4234     1.0  0.59587  0.63483  0.77826  1.0000
  C   C4235     1.0  0.60590  0.62604  0.76335  1.0000
  C   C4236     1.0  0.59757  0.61435  0.75617  1.0000
  C   C4237     1.0  0.53238  0.59803  0.77538  1.0000
  C   C4238     1.0  0.51810  0.59132  0.78912  1.0000
  C   C4239     1.0  0.52153  0.57342  0.79981  1.0000
  C   C4240     1.0  0.53928  0.56223  0.79683  1.0000
  C   C4241     1.0  0.55363  0.56891  0.78312  1.0000
  C   C4242     1.0  0.55808  0.60881  0.73488  1.0000
  C   C4243     1.0  0.54517  0.60113  0.72857  1.0000
  C   C4244     1.0  0.53648  0.61097  0.71350  1.0000
  C   C4245     1.0  0.54034  0.62875  0.70481  1.0000
  C   C4246     1.0  0.55314  0.63657  0.71102  1.0000
  C   C4247     1.0  0.56204  0.62664  0.72597  1.0000
  H   H3386     1.0  0.60280  0.55107  0.70368  1.0000
  H   H3387     1.0  0.63274  0.52966  0.71769  1.0000
  H   H3388     1.0  0.64034  0.53166  0.75171  1.0000
  H   H3389     1.0  0.60115  0.57178  0.77538  1.0000
  H   H3390     1.0  0.57757  0.57716  0.71864  1.0000
  H   H3391     1.0  0.55490  0.61832  0.78506  1.0000
  H   H3392     1.0  0.56959  0.63900  0.79737  1.0000
  H   H3393     1.0  0.60219  0.64411  0.78368  1.0000
  H   H3394     1.0  0.62003  0.62848  0.75718  1.0000
  H   H3395     1.0  0.60538  0.60793  0.74439  1.0000
  H   H3396     1.0  0.52934  0.61188  0.76710  1.0000
  C   C4248     1.0  0.68091  0.94144  0.62935  1.0000
  H   H3397     1.0  0.72308  0.79257  0.95167  1.0000
  H   H3398     1.0  0.54174  0.54818  0.80483  1.0000
  H   H3399     1.0  0.56713  0.55990  0.78085  1.0000
  H   H3400     1.0  0.54169  0.58758  0.73548  1.0000
  H   H3401     1.0  0.52633  0.60504  0.70885  1.0000
  H   H3402     1.0  0.53320  0.63650  0.69342  1.0000
  H   H3403     1.0  0.55597  0.65045  0.70436  1.0000
  H   H3404     1.0  0.57172  0.63305  0.73066  1.0000
  C   C4249     1.0  0.50825  0.77717  0.85994  1.0000
  H   H3405     1.0  0.68355  0.55935  0.79913  1.0000
  C   C4250     1.0  0.61030  0.93853  0.79674  1.0000
  C   C4251     1.0  0.64357  0.94065  0.84057  1.0000
  C   C4252     1.0  0.67211  0.58518  0.75879  1.0000
  H   H3406     1.0  0.66205  0.52486  0.77101  1.0000
  C   C4253     1.0  0.52911  0.74214  0.69287  1.0000
  C   C4254     1.0  0.65237  0.48088  0.78961  1.0000
  C   C4255     1.0  0.53378  0.84165  0.66819  1.0000
  C   C4256     1.0  0.54048  0.83927  0.68498  1.0000
  C   C4257     1.0  0.54984  0.85266  0.68804  1.0000
  H   H3407     1.0  0.52570  0.83166  0.66647  1.0000
  H   H3408     1.0  0.53777  0.82738  0.69589  1.0000
  H   H3409     1.0  0.55428  0.85127  0.70137  1.0000
  C   C4258     1.0  0.49280  0.78964  0.65417  1.0000
  H   H3410     1.0  0.62300  0.53361  0.79388  1.0000
  H   H3411     1.0  0.61284  0.58246  0.79776  1.0000
  H   H3412     1.0  0.63917  0.59945  0.79503  1.0000
  H   H3413     1.0  0.69651  0.88153  0.84915  1.0000
  H   H3414     1.0  0.69214  0.68508  0.92852  1.0000
  Fe  Fe284     1.0  0.59075  0.74097  0.95081  1.0000
  C   C4259     1.0  0.63439  0.55753  0.76947  1.0000
  C   C4260     1.0  0.67533  0.94569  0.78483  1.0000
  H   H3415     1.0  0.65253  0.94882  0.76929  1.0000
  C   C4261     1.0  0.60362  0.53427  0.77184  1.0000
  S   S567      1.0  0.70869  0.51639  0.84506  1.0000
  S   S568      1.0  0.71347  0.47223  0.84012  1.0000
  C   C4262     1.0  0.53680  0.85719  0.65414  1.0000
  C   C4263     1.0  0.72702  0.48469  0.73422  1.0000
  H   H3416     1.0  0.69866  0.93949  0.85956  1.0000
  C   C4264     1.0  0.68018  0.91111  0.81192  1.0000
  P   P139      1.0  0.48458  0.52499  0.72160  1.0000
  C   C4265     1.0  0.69805  0.47199  0.74557  1.0000
  C   C4266     1.0  0.64994  0.59995  0.78270  1.0000
  C   C4267     1.0  0.67353  0.88292  0.65389  1.0000
  C   C4268     1.0  0.64230  0.91054  0.79610  1.0000
  C   C4269     1.0  0.64066  0.49883  0.81492  1.0000
  H   H3417     1.0  0.69004  0.90753  0.78305  1.0000
  H   H3418     1.0  0.72919  0.94716  0.89009  1.0000
  H   H3419     1.0  0.59627  0.52329  0.78026  1.0000
  C   C4270     1.0  0.70118  0.53318  0.79449  1.0000
  H   H3420     1.0  0.55290  0.72117  0.94506  1.0000
  C   C4271     1.0  0.61890  0.56984  0.73389  1.0000
  H   H3421     1.0  0.55813  0.74603  0.65057  1.0000
  C   C4272     1.0  0.66668  0.95102  0.76886  1.0000
  H   H3422     1.0  0.67657  0.86278  0.67912  1.0000
  C   C4273     1.0  0.54551  0.74432  0.66082  1.0000
  C   C4274     1.0  0.67705  0.84673  0.92506  1.0000
  C   C4275     1.0  0.50981  0.96250  0.74619  1.0000
  H   H3423     1.0  0.67323  0.89670  0.89886  1.0000
  H   H3424     1.0  0.71651  0.56869  0.93611  1.0000
  C   C4276     1.0  0.66977  0.47580  0.79572  1.0000
  C   C4277     1.0  0.48266  0.57864  0.69207  1.0000
  H   H3425     1.0  0.52144  0.53572  0.70287  1.0000
  H   H3426     1.0  0.58691  0.53944  0.74602  1.0000
  H   H3427     1.0  0.68970  0.60300  0.73925  1.0000
  H   H3428     1.0  0.70187  0.96901  0.73744  1.0000
  H   H3429     1.0  0.66955  0.96315  0.73955  1.0000
  C   C4278     1.0  0.48486  0.67956  0.65255  1.0000
  H   H3430     1.0  0.50263  0.75570  0.77172  1.0000
  H   H3431     1.0  0.66985  0.85975  0.88663  1.0000
  S   S569      1.0  0.65009  0.47265  0.76958  1.0000
  H   H3432     1.0  0.50369  0.77970  0.74268  1.0000
  H   H3433     1.0  0.71719  0.96036  0.76557  1.0000
  S   S570      1.0  0.70904  0.52830  0.89402  1.0000
  S   S571      1.0  0.49737  0.66695  0.84141  1.0000
  Fe  Fe285     1.0  0.62709  0.96842  0.71665  1.0000
  S   S572      1.0  0.71651  0.64998  0.93738  1.0000
  P   P140      1.0  0.70393  0.86403  0.89833  1.0000
  H   H3434     1.0  0.68150  0.78196  0.95203  1.0000
  H   H3435     1.0  0.69161  0.82540  0.84433  1.0000
  C   C4279     1.0  0.63590  0.56160  0.80697  1.0000
  C   C4280     1.0  0.71633  0.49959  0.95263  1.0000
  C   C4281     1.0  0.70596  0.87812  0.82039  1.0000
  H   H3436     1.0  0.51622  0.89724  0.78742  1.0000
  H   H3437     1.0  0.50615  0.81447  0.81470  1.0000
  H   H3438     1.0  0.70101  0.94443  0.79525  1.0000
  P   P141      1.0  0.64969  0.56175  0.78371  1.0000
  H   H3439     1.0  0.64338  0.58145  0.74289  1.0000
  C   C4282     1.0  0.61806  0.57297  0.80950  1.0000
  H   H3440     1.0  0.53018  0.76083  0.84295  1.0000
  C   C4283     1.0  0.69955  0.92503  0.86668  1.0000
  H   H3441     1.0  0.54767  0.82259  0.63826  1.0000
  H   H3442     1.0  0.49321  0.68484  0.63943  1.0000
  H   H3443     1.0  0.72460  0.51066  0.71426  1.0000
  H   H3444     1.0  0.53009  0.56498  0.68357  1.0000
  C   C4284     1.0  0.67632  0.95925  0.75182  1.0000
  C   C4285     1.0  0.51039  0.54744  0.69986  1.0000
  H   H3445     1.0  0.69311  0.88567  0.92847  1.0000
  H   H3446     1.0  0.68529  0.72923  0.93824  1.0000
  Fe  Fe286     1.0  0.58839  0.95830  0.73594  1.0000
  C   C4286     1.0  0.71232  0.83224  0.85729  1.0000
  C   C4287     1.0  0.70012  0.85113  0.88174  1.0000
  C   C4288     1.0  0.65861  0.94466  0.82607  1.0000
  C   C4289     1.0  0.62064  0.54087  0.78009  1.0000
  C   C4290     1.0  0.70409  0.88550  0.80179  1.0000
  C   C4291     1.0  0.69808  0.50103  0.72330  1.0000
  H   H3447     1.0  0.68853  0.91393  0.94343  1.0000
  H   H3448     1.0  0.60449  0.55920  0.85633  1.0000
  C   C4292     1.0  0.59800  0.54440  0.75036  1.0000
  C   C4293     1.0  0.49796  0.76150  0.72610  1.0000
  C   C4294     1.0  0.67010  0.95680  0.82811  1.0000
  H   H3449     1.0  0.62813  0.59815  0.94465  1.0000
  C   C4295     1.0  0.71368  0.55070  0.91759  1.0000
  Fe  Fe287     1.0  0.48977  0.73780  0.83718  1.0000
  H   H3450     1.0  0.67929  0.83604  0.91648  1.0000
  H   H3451     1.0  0.48579  0.92093  0.64590  1.0000
  C   C4296     1.0  0.71762  0.89385  0.87334  1.0000
  H   H3452     1.0  0.66456  0.84304  0.86315  1.0000
  C   C4297     1.0  0.50335  0.89511  0.63947  1.0000
  C   C4298     1.0  0.52011  0.78768  0.82724  1.0000
  S   S573      1.0  0.65623  0.95783  0.70171  1.0000
  C   C4299     1.0  0.49366  0.80721  0.77710  1.0000
  H   H3453     1.0  0.59227  0.47411  0.84277  1.0000
  C   C4300     1.0  0.49184  0.88786  0.78334  1.0000
  C   C4301     1.0  0.51541  0.56409  0.68890  1.0000
  C   C4302     1.0  0.68474  0.87461  0.93189  1.0000
  H   H3454     1.0  0.50315  0.80687  0.90350  1.0000
  C   C4303     1.0  0.48972  0.66086  0.66163  1.0000
  C   C4304     1.0  0.68846  0.48714  0.73455  1.0000
  H   H3455     1.0  0.67068  0.88260  0.95828  1.0000
  P   P142      1.0  0.52648  0.86127  0.63332  1.0000
  H   H3456     1.0  0.50543  0.59280  0.67699  1.0000
  H   H3457     1.0  0.71596  0.86545  0.82366  1.0000
  H   H3458     1.0  0.59784  0.91987  0.78619  1.0000
  H   H3459     1.0  0.70488  0.74879  0.94634  1.0000
  C   C4305     1.0  0.71064  0.88682  0.65305  1.0000
  C   C4306     1.0  0.68180  0.85189  0.87869  1.0000
  H   H3460     1.0  0.58941  0.47369  0.81009  1.0000
  H   H3461     1.0  0.51873  0.78866  0.92954  1.0000
  C   C4307     1.0  0.68698  0.86185  0.91969  1.0000
  S   S574      1.0  0.68998  0.96499  0.88874  1.0000
  C   C4308     1.0  0.50944  0.78250  0.92395  1.0000
  H   H3462     1.0  0.50056  0.73831  0.66362  1.0000
  C   C4309     1.0  0.51909  0.49759  0.75934  1.0000
  C   C4310     1.0  0.49127  0.77950  0.80147  1.0000
  H   H3463     1.0  0.71559  0.50608  0.78867  1.0000
  H   H3464     1.0  0.71671  0.92623  0.65351  1.0000
  H   H3465     1.0  0.57765  0.68566  0.95367  1.0000
  C   C4311     1.0  0.69672  0.74022  0.95736  1.0000
  H   H3466     1.0  0.49477  0.87417  0.79196  1.0000
  C   C4312     1.0  0.50671  0.76409  0.93135  1.0000
  C   C4313     1.0  0.70680  0.49421  0.94073  1.0000
  H   H3467     1.0  0.65679  0.83331  0.94618  1.0000
  C   C4314     1.0  0.66181  0.85816  0.95375  1.0000
  C   C4315     1.0  0.72631  0.85568  0.90596  1.0000
  C   C4316     1.0  0.50079  0.76590  0.74263  1.0000
  C   C4317     1.0  0.72827  0.92474  0.91414  1.0000
  Fe  Fe288     1.0  0.62491  0.47411  0.75579  1.0000
  C   C4318     1.0  0.48688  0.76584  0.90860  1.0000
  C   C4319     1.0  0.71727  0.49986  0.72318  1.0000
  C   C4320     1.0  0.48180  0.67888  0.79022  1.0000
  C   C4321     1.0  0.48231  0.67627  0.71719  1.0000
  H   H3468     1.0  0.49163  0.63501  0.82805  1.0000
  H   H3469     1.0  0.52950  0.74189  0.64058  1.0000
  C   C4322     1.0  0.68190  0.64564  0.95867  1.0000
  C   C4323     1.0  0.65426  0.67025  0.95841  1.0000
  H   H3470     1.0  0.72972  0.84144  0.87221  1.0000
  S   S575      1.0  0.72816  0.89644  0.94477  1.0000
  H   H3471     1.0  0.65813  0.47391  0.87763  1.0000
  C   C4324     1.0  0.72227  0.53576  0.90793  1.0000
  H   H3472     1.0  0.49318  0.51705  0.76011  1.0000
  C   C4325     1.0  0.69452  0.96257  0.75063  1.0000
  C   C4326     1.0  0.68242  0.96651  0.67047  1.0000
  H   H3473     1.0  0.50188  0.65184  0.65542  1.0000
  C   C4327     1.0  0.69850  0.47178  0.67110  1.0000
  S   S576      1.0  0.71684  0.84474  0.95895  1.0000
  H   H3474     1.0  0.72845  0.51289  0.75373  1.0000
  C   C4328     1.0  0.72331  0.55709  0.92897  1.0000
  C   C4329     1.0  0.48713  0.83333  0.87690  1.0000
  C   C4330     1.0  0.49141  0.54630  0.70716  1.0000
  C   C4331     1.0  0.66652  0.96481  0.84427  1.0000
  H   H3475     1.0  0.72635  0.54847  0.85975  1.0000
  H   H3476     1.0  0.48417  0.82011  0.84372  1.0000
  Fe  Fe289     1.0  0.48145  0.59189  0.75465  1.0000
  H   H3477     1.0  0.51603  0.90123  0.63554  1.0000
  H   H3478     1.0  0.72835  0.60185  0.91717  1.0000
  H   H3479     1.0  0.72647  0.63465  0.90021  1.0000
  S   S577      1.0  0.48527  0.63030  0.68988  1.0000
  H   H3480     1.0  0.48284  0.48505  0.72643  1.0000
  C   C4332     1.0  0.53416  0.97038  0.71994  1.0000
  C   C4333     1.0  0.52617  0.97014  0.73876  1.0000
  H   H3481     1.0  0.73260  0.03777  0.27399  1.0000
  C   C4334     1.0  0.73131  0.36553  0.14406  1.0000
  Fe  Fe290     1.0  0.96297  0.35475  0.22299  1.0000
  S   S578      1.0  0.93294  0.35481  0.23925  1.0000
  H   H3482     1.0  0.91865  0.14510  0.26112  1.0000
  S   S579      1.0  0.95743  0.07772  0.25120  1.0000
  C   C4335     1.0  0.74012  0.02687  0.23215  1.0000
  S   S580      1.0  0.95175  0.11542  0.22043  1.0000
  H   H3483     1.0  0.75095  0.98029  0.25172  1.0000
  Fe  Fe291     1.0  0.96612  0.10615  0.24556  1.0000
  S   S581      1.0  0.95856  0.12834  0.26473  1.0000
  Fe  Fe292     1.0  0.94506  0.08637  0.22469  1.0000
  S   S582      1.0  0.91417  0.08475  0.22531  1.0000
  S   S583      1.0  0.97188  0.07553  0.20628  1.0000
  Fe  Fe293     1.0  0.93827  0.24042  0.08676  1.0000
  S   S584      1.0  0.95887  0.21363  0.09228  1.0000
  S   S585      1.0  0.91049  0.24471  0.07559  1.0000
  Fe  Fe294     1.0  0.95900  0.26233  0.10578  1.0000
  S   S586      1.0  0.95681  0.29067  0.11500  1.0000
  Fe  Fe295     1.0  0.95673  0.22077  0.12073  1.0000
  S   S587      1.0  0.94886  0.20249  0.14870  1.0000
  S   S588      1.0  0.96088  0.25859  0.07582  1.0000
  S   S589      1.0  0.93489  0.24649  0.11588  1.0000
  Fe  Fe296     1.0  0.82664  0.40303  0.24561  1.0000
  S   S590      1.0  0.82118  0.39743  0.27712  1.0000
  S   S591      1.0  0.85461  0.40777  0.22682  1.0000
  Fe  Fe297     1.0  0.78479  0.40409  0.24323  1.0000
  S   S592      1.0  0.77677  0.39772  0.27454  1.0000
  S   S593      1.0  0.76422  0.41484  0.22248  1.0000
  Fe  Fe298     1.0  0.79473  0.41888  0.27501  1.0000
  H   H3484     1.0  0.73610  0.42857  0.19923  1.0000
  S   S594      1.0  0.80151  0.42616  0.24377  1.0000
  S   S595      1.0  0.81059  0.38153  0.24241  1.0000
  Fe  Fe299     1.0  0.79643  0.20872  0.03968  1.0000
  S   S596      1.0  0.82239  0.21452  0.01864  1.0000
  S   S597      1.0  0.77339  0.23361  0.04501  1.0000
  Fe  Fe300     1.0  0.81043  0.16679  0.04626  1.0000
  S   S598      1.0  0.83693  0.16962  0.02538  1.0000
  S   S599      1.0  0.80514  0.13698  0.05622  1.0000
  Fe  Fe301     1.0  0.83869  0.19373  0.03895  1.0000
  S   S600      1.0  0.86816  0.19211  0.04574  1.0000
  Fe  Fe302     1.0  0.81848  0.18996  0.00704  1.0000
  S   S601      1.0  0.82073  0.19215  0.97545  1.0000
  S   S602      1.0  0.81289  0.18969  0.06093  1.0000
  S   S603      1.0  0.79180  0.18555  0.02690  1.0000
  Fe  Fe303     1.0  0.84197  0.04179  0.18292  1.0000
  S   S604      1.0  0.81874  0.06536  0.17490  1.0000
  S   S605      1.0  0.87260  0.04576  0.17987  1.0000
  Fe  Fe304     1.0  0.81762  0.01136  0.18485  1.0000
  S   S606      1.0  0.79290  0.03284  0.17735  1.0000
  H   H3485     1.0  0.75159  0.46001  0.09509  1.0000
  Fe  Fe305     1.0  0.81391  0.04741  0.15609  1.0000
  S   S607      1.0  0.80994  0.05443  0.12603  1.0000
  Fe  Fe306     1.0  0.79964  0.04873  0.19703  1.0000
  S   S608      1.0  0.77603  0.06434  0.21576  1.0000
  S   S609      1.0  0.83832  0.02493  0.16226  1.0000
  S   S610      1.0  0.82312  0.02617  0.20649  1.0000
  C   C4336     1.0  0.96658  0.28718  0.20878  1.0000
  C   C4337     1.0  0.90853  0.17260  0.26855  1.0000
  C   C4338     1.0  0.79421  0.98395  0.16241  1.0000
  Fe  Fe307     1.0  0.80381  0.37680  0.27407  1.0000
  H   H3486     1.0  0.85307  0.13574  0.13113  1.0000
  H   H3487     1.0  0.79529  0.99866  0.15956  1.0000
  C   C4339     1.0  0.80593  0.11993  0.07758  1.0000
  C   C4340     1.0  0.80020  0.11852  0.11419  1.0000
  C   C4341     1.0  0.80255  0.09559  0.12548  1.0000
  C   C4342     1.0  0.80780  0.07739  0.11349  1.0000
  C   C4343     1.0  0.81142  0.07835  0.08983  1.0000
  C   C4344     1.0  0.81073  0.09758  0.07268  1.0000
  H   H3488     1.0  0.79658  0.12945  0.12287  1.0000
  H   H3489     1.0  0.80062  0.09256  0.14059  1.0000
  H   H3490     1.0  0.81455  0.06494  0.08524  1.0000
  H   H3491     1.0  0.81323  0.09575  0.05824  1.0000
  H   H3492     1.0  0.74859  0.02373  0.09502  1.0000
  C   C4345     1.0  0.74501  0.09096  0.26752  1.0000
  C   C4346     1.0  0.80180  0.16315  0.97608  1.0000
  C   C4347     1.0  0.75346  0.26455  0.10162  1.0000
  H   H3493     1.0  0.80276  0.15914  0.99079  1.0000
  C   C4348     1.0  0.83237  0.03826  0.05817  1.0000
  H   H3494     1.0  0.94988  0.32422  0.13097  1.0000
  H   H3495     1.0  0.77735  0.43169  0.12182  1.0000
  H   H3496     1.0  0.85420  0.07909  0.15004  1.0000
  C   C4349     1.0  0.75267  0.07856  0.15373  1.0000
  C   C4350     1.0  0.75573  0.05400  0.22436  1.0000
  C   C4351     1.0  0.75649  0.03480  0.22531  1.0000
  C   C4352     1.0  0.76057  0.99299  0.20074  1.0000
  H   H3497     1.0  0.83834  0.10602  0.12974  1.0000
  C   C4353     1.0  0.76113  0.26508  0.11729  1.0000
  H   H3498     1.0  0.76964  0.02608  0.22064  1.0000
  H   H3499     1.0  0.81478  0.15799  0.09029  1.0000
  H   H3500     1.0  0.83525  0.09162  0.09830  1.0000
  H   H3501     1.0  0.74343  0.04670  0.19311  1.0000
  C   C4354     1.0  0.74591  0.40442  0.21881  1.0000
  H   H3502     1.0  0.78869  0.13977  0.97562  1.0000
  C   C4355     1.0  0.84826  0.28494  0.29226  1.0000
  H   H3503     1.0  0.84708  0.19567  0.12196  1.0000
  C   C4356     1.0  0.91378  0.15311  0.27241  1.0000
  C   C4357     1.0  0.75373  0.41951  0.15382  1.0000
  H   H3504     1.0  0.82614  0.05209  0.05178  1.0000
  C   C4358     1.0  0.79843  0.02923  0.29179  1.0000
  H   H3505     1.0  0.88304  0.14783  0.07322  1.0000
  H   H3506     1.0  0.80238  0.01678  0.12787  1.0000
  H   H3507     1.0  0.92794  0.15448  0.05163  1.0000
  C   C4359     1.0  0.89904  0.22965  0.06747  1.0000
  C   C4360     1.0  0.88037  0.23604  0.06438  1.0000
  C   C4361     1.0  0.87063  0.22477  0.05792  1.0000
  C   C4362     1.0  0.87950  0.20693  0.05429  1.0000
  C   C4363     1.0  0.89813  0.20047  0.05748  1.0000
  C   C4364     1.0  0.90784  0.21171  0.06403  1.0000
  H   H3508     1.0  0.87342  0.24989  0.06694  1.0000
  H   H3509     1.0  0.85637  0.23000  0.05551  1.0000
  H   H3510     1.0  0.90515  0.18673  0.05471  1.0000
  H   H3511     1.0  0.92216  0.20656  0.06633  1.0000
  C   C4365     1.0  0.90309  0.07339  0.21271  1.0000
  C   C4366     1.0  0.88351  0.07378  0.21761  1.0000
  C   C4367     1.0  0.87394  0.06540  0.20780  1.0000
  C   C4368     1.0  0.88385  0.05654  0.19287  1.0000
  C   C4369     1.0  0.90340  0.05628  0.18786  1.0000
  C   C4370     1.0  0.91298  0.06460  0.19772  1.0000
  H   H3512     1.0  0.87569  0.08061  0.22911  1.0000
  H   H3513     1.0  0.85893  0.06577  0.21181  1.0000
  H   H3514     1.0  0.91121  0.04951  0.17633  1.0000
  H   H3515     1.0  0.92799  0.06428  0.19369  1.0000
  C   C4371     1.0  0.96117  0.17972  0.15541  1.0000
  H   H3516     1.0  0.84052  0.12269  0.97315  1.0000
  H   H3517     1.0  0.87855  0.20346  0.09859  1.0000
  C   C4372     1.0  0.82010  0.46817  0.23754  1.0000
  C   C4373     1.0  0.96134  0.14935  0.17600  1.0000
  C   C4374     1.0  0.95189  0.16728  0.16945  1.0000
  C   C4375     1.0  0.80446  0.03076  0.27246  1.0000
  H   H3518     1.0  0.77941  0.09279  0.10078  1.0000
  C   C4376     1.0  0.80525  0.38180  0.15464  1.0000
  H   H3519     1.0  0.74028  0.08241  0.12910  1.0000
  C   C4377     1.0  0.91137  0.36941  0.23481  1.0000
  C   C4378     1.0  0.91062  0.38557  0.22104  1.0000
  C   C4379     1.0  0.89315  0.39709  0.21864  1.0000
  C   C4380     1.0  0.87627  0.39259  0.22992  1.0000
  C   C4381     1.0  0.87701  0.37623  0.24340  1.0000
  C   C4382     1.0  0.89446  0.36477  0.24587  1.0000
  H   H3520     1.0  0.92350  0.38935  0.21246  1.0000
  H   H3521     1.0  0.89273  0.40968  0.20813  1.0000
  H   H3522     1.0  0.86412  0.37247  0.25197  1.0000
  H   H3523     1.0  0.89486  0.35227  0.25649  1.0000
  H   H3524     1.0  0.78435  0.23171  0.00612  1.0000
  C   C4383     1.0  0.80853  0.46265  0.28789  1.0000
  C   C4384     1.0  0.96144  0.31492  0.13676  1.0000
  H   H3525     1.0  0.85505  0.98935  0.08204  1.0000
  C   C4385     1.0  0.79575  0.40751  0.08608  1.0000
  C   C4386     1.0  0.97220  0.21078  0.18412  1.0000
  C   C4387     1.0  0.79751  0.46522  0.15395  1.0000
  C   C4388     1.0  0.93912  0.26118  0.16426  1.0000
  C   C4389     1.0  0.93961  0.27436  0.17512  1.0000
  C   C4390     1.0  0.92727  0.27520  0.19224  1.0000
  C   C4391     1.0  0.91528  0.26189  0.19890  1.0000
  P   P143      1.0  0.92866  0.29188  0.20629  1.0000
  C   C4392     1.0  0.94907  0.28210  0.21715  1.0000
  C   C4393     1.0  0.93018  0.31484  0.19238  1.0000
  C   C4394     1.0  0.93493  0.32856  0.20020  1.0000
  C   C4395     1.0  0.93415  0.34702  0.19058  1.0000
  C   C4396     1.0  0.92855  0.35197  0.17310  1.0000
  C   C4397     1.0  0.92351  0.33847  0.16531  1.0000
  C   C4398     1.0  0.92415  0.32000  0.17496  1.0000
  C   C4399     1.0  0.94775  0.26857  0.23357  1.0000
  C   C4400     1.0  0.91760  0.18377  0.12877  1.0000
  H   H3526     1.0  0.73387  0.45280  0.21999  1.0000
  H   H3527     1.0  0.75787  0.25212  0.07680  1.0000
  H   H3528     1.0  0.90049  0.17154  0.20895  1.0000
  C   C4401     1.0  0.90795  0.29692  0.22353  1.0000
  C   C4402     1.0  0.88999  0.29845  0.21918  1.0000
  C   C4403     1.0  0.87391  0.30530  0.23123  1.0000
  C   C4404     1.0  0.87566  0.31111  0.24745  1.0000
  C   C4405     1.0  0.89348  0.30976  0.25183  1.0000
  C   C4406     1.0  0.90957  0.30275  0.23991  1.0000
  C   C4407     1.0  0.74249  0.21520  0.05449  1.0000
  S   S611      1.0  0.80913  0.34598  0.28782  1.0000
  H   H3529     1.0  0.74171  0.42905  0.10666  1.0000
  H   H3530     1.0  0.94955  0.28398  0.17010  1.0000
  H   H3531     1.0  0.90634  0.26164  0.21248  1.0000
  H   H3532     1.0  0.93871  0.32516  0.21400  1.0000
  H   H3533     1.0  0.93755  0.35756  0.19691  1.0000
  H   H3534     1.0  0.92799  0.36630  0.16570  1.0000
  H   H3535     1.0  0.91910  0.34231  0.15178  1.0000
  H   H3536     1.0  0.91968  0.30996  0.16886  1.0000
  H   H3537     1.0  0.93445  0.26414  0.24002  1.0000
  C   C4408     1.0  0.73603  0.18891  0.00414  1.0000
  H   H3538     1.0  0.87222  0.37867  0.28390  1.0000
  H   H3539     1.0  0.89273  0.12766  0.12690  1.0000
  H   H3540     1.0  0.77223  0.00596  0.28773  1.0000
  H   H3541     1.0  0.88843  0.29514  0.20610  1.0000
  H   H3542     1.0  0.86011  0.30683  0.22762  1.0000
  C   C4409     1.0  0.79389  0.15215  0.96742  1.0000
  C   C4410     1.0  0.85170  0.03200  0.05366  1.0000
  H   H3543     1.0  0.92327  0.30286  0.24301  1.0000
  C   C4411     1.0  0.94914  0.14676  0.11960  1.0000
  C   C4412     1.0  0.78961  0.46114  0.29432  1.0000
  H   H3544     1.0  0.86208  0.11919  0.02801  1.0000
  C   C4413     1.0  0.78716  0.39020  0.16232  1.0000
  H   H3545     1.0  0.73444  0.34970  0.18994  1.0000
  C   C4414     1.0  0.81918  0.37512  0.16585  1.0000
  C   C4415     1.0  0.81511  0.37661  0.18480  1.0000
  C   C4416     1.0  0.79718  0.38494  0.19249  1.0000
  C   C4417     1.0  0.78336  0.39179  0.18129  1.0000
  C   C4418     1.0  0.75405  0.16278  0.02233  1.0000
  H   H3546     1.0  0.89733  0.15317  0.03991  1.0000
  C   C4419     1.0  0.89798  0.12584  0.13985  1.0000
  H   H3547     1.0  0.79799  0.37765  0.08800  1.0000
  H   H3548     1.0  0.88936  0.22464  0.11433  1.0000
  C   C4420     1.0  0.79333  0.38945  0.09539  1.0000
  C   C4421     1.0  0.74411  0.37801  0.13969  1.0000
  H   H3549     1.0  0.96802  0.29730  0.19591  1.0000
  H   H3550     1.0  0.82581  0.37137  0.19358  1.0000
  H   H3551     1.0  0.79391  0.38609  0.20720  1.0000
  H   H3552     1.0  0.76954  0.39807  0.18750  1.0000
  H   H3553     1.0  0.88722  0.13870  0.01722  1.0000
  C   C4422     1.0  0.74914  0.46954  0.26006  1.0000
  C   C4423     1.0  0.88691  0.14404  0.04473  1.0000
  C   C4424     1.0  0.81213  0.42923  0.17098  1.0000
  C   C4425     1.0  0.81219  0.43306  0.15171  1.0000
  C   C4426     1.0  0.80463  0.45100  0.14323  1.0000
  C   C4427     1.0  0.73608  0.24908  0.05011  1.0000
  C   C4428     1.0  0.80476  0.44331  0.18176  1.0000
  H   H3554     1.0  0.86044  0.04095  0.04368  1.0000
  C   C4429     1.0  0.73873  0.46471  0.21039  1.0000
  C   C4430     1.0  0.92609  0.12011  0.09907  1.0000
  H   H3555     1.0  0.86323  0.31723  0.25630  1.0000
  C   C4431     1.0  0.82908  0.00906  0.07991  1.0000
  H   H3556     1.0  0.76753  0.15462  0.02510  1.0000
  H   H3557     1.0  0.97605  0.30599  0.25645  1.0000
  C   C4432     1.0  0.75332  0.06862  0.17185  1.0000
  H   H3558     1.0  0.81780  0.41533  0.17770  1.0000
  H   H3559     1.0  0.81789  0.42204  0.14346  1.0000
  H   H3560     1.0  0.74506  0.03927  0.12227  1.0000
  C   C4433     1.0  0.80338  0.97176  0.17614  1.0000
  C   C4434     1.0  0.78992  0.42268  0.09567  1.0000
  C   C4435     1.0  0.97777  0.97932  0.21435  1.0000
  H   H3561     1.0  0.76256  0.28666  0.06654  1.0000
  H   H3562     1.0  0.92866  0.17855  0.13706  1.0000
  H   H3563     1.0  0.76751  0.45481  0.21371  1.0000
  C   C4436     1.0  0.96212  0.15356  0.28588  1.0000
  H   H3564     1.0  0.74075  0.01205  0.23285  1.0000
  H   H3565     1.0  0.84781  0.16821  0.07627  1.0000
  H   H3566     1.0  0.83902  0.00994  0.11517  1.0000
  H   H3567     1.0  0.96446  0.00747  0.21826  1.0000
  H   H3568     1.0  0.76087  0.12920  0.09628  1.0000
  H   H3569     1.0  0.88782  0.06654  0.14094  1.0000
  C   C4437     1.0  0.76851  0.04890  0.28666  1.0000
  C   C4438     1.0  0.84897  0.98778  0.13637  1.0000
  H   H3570     1.0  0.94838  0.26092  0.15084  1.0000
  H   H3571     1.0  0.85743  0.99609  0.14043  1.0000
  H   H3572     1.0  0.73826  0.98408  0.13395  1.0000
  C   C4439     1.0  0.94505  0.20552  0.25160  1.0000
  H   H3573     1.0  0.92641  0.11026  0.11211  1.0000
  H   H3574     1.0  0.75428  0.46884  0.05868  1.0000
  H   H3575     1.0  0.82731  0.46516  0.24941  1.0000
  H   H3576     1.0  0.77894  0.00479  0.08385  1.0000
  C   C4440     1.0  0.77757  0.01132  0.09595  1.0000
  H   H3577     1.0  0.91549  0.11952  0.18705  1.0000
  H   H3578     1.0  0.84460  0.45750  0.21887  1.0000
  C   C4441     1.0  0.84854  0.00290  0.07530  1.0000
  H   H3579     1.0  0.77864  0.15878  0.09131  1.0000
  C   C4442     1.0  0.76294  0.22189  0.99684  1.0000
  P   P144      1.0  0.96737  0.19120  0.22072  1.0000
  S   S612      1.0  0.81666  0.98000  0.18920  1.0000
  C   C4443     1.0  0.74099  0.07449  0.14305  1.0000
  H   H3580     1.0  0.95309  0.11902  0.13666  1.0000
  C   C4444     1.0  0.75037  0.45054  0.25950  1.0000
  H   H3581     1.0  0.94997  0.16210  0.28051  1.0000
  H   H3582     1.0  0.75437  0.45910  0.17014  1.0000
  H   H3583     1.0  0.74580  0.38650  0.12588  1.0000
  C   C4445     1.0  0.73127  0.01178  0.19279  1.0000
  C   C4446     1.0  0.88109  0.13602  0.03192  1.0000
  H   H3584     1.0  0.73795  0.07998  0.22984  1.0000
  H   H3585     1.0  0.74104  0.26235  0.04652  1.0000
  H   H3586     1.0  0.82852  0.46454  0.19162  1.0000
  H   H3587     1.0  0.75674  0.09954  0.97326  1.0000
  H   H3588     1.0  0.92653  0.23803  0.16228  1.0000
  C   C4447     1.0  0.95838  0.16124  0.10873  1.0000
  H   H3589     1.0  0.75382  0.27399  0.12733  1.0000
  C   C4448     1.0  0.73545  0.26928  0.99966  1.0000
  C   C4449     1.0  0.79020  0.23253  0.97635  1.0000
  C   C4450     1.0  0.80895  0.17895  0.96558  1.0000
  C   C4451     1.0  0.96364  0.26084  0.24192  1.0000
  H   H3590     1.0  0.92915  0.09838  0.08275  1.0000
  H   H3591     1.0  0.80348  0.23735  0.97452  1.0000
  C   C4452     1.0  0.74281  0.05421  0.17907  1.0000
  H   H3592     1.0  0.83473  0.97453  0.06638  1.0000
  H   H3593     1.0  0.90590  0.08065  0.11102  1.0000
  C   C4453     1.0  0.75338  0.17798  0.00752  1.0000
  H   H3594     1.0  0.75907  0.01687  0.17880  1.0000
  C   C4454     1.0  0.78162  0.41980  0.11457  1.0000
  H   H3595     1.0  0.73801  0.14658  0.04530  1.0000
  H   H3596     1.0  0.74101  0.25771  0.00977  1.0000
  H   H3597     1.0  0.87480  0.00955  0.05885  1.0000
  H   H3598     1.0  0.81809  0.45123  0.28215  1.0000
  C   C4455     1.0  0.79244  0.04100  0.26024  1.0000
  C   C4456     1.0  0.77451  0.04994  0.26729  1.0000
  H   H3599     1.0  0.75400  0.25933  0.97610  1.0000
  C   C4457     1.0  0.81011  0.97560  0.08823  1.0000
  H   H3600     1.0  0.89257  0.16988  0.10185  1.0000
  H   H3601     1.0  0.80231  0.40970  0.07147  1.0000
  H   H3602     1.0  0.84589  0.19715  0.08840  1.0000
  H   H3603     1.0  0.90912  0.17973  0.25417  1.0000
  C   C4458     1.0  0.76056  0.43243  0.16097  1.0000
  C   C4459     1.0  0.96780  0.29717  0.13143  1.0000
  H   H3604     1.0  0.73175  0.23864  0.09680  1.0000
  C   C4460     1.0  0.74910  0.23231  0.05004  1.0000
  H   H3605     1.0  0.79700  0.04207  0.24522  1.0000
  C   C4461     1.0  0.97782  0.15978  0.10720  1.0000
  C   C4462     1.0  0.76600  0.99468  0.28569  1.0000
  C   C4463     1.0  0.79819  0.46164  0.17317  1.0000
  H   H3606     1.0  0.95770  0.28220  0.27540  1.0000
  H   H3607     1.0  0.84701  0.11435  0.06105  1.0000
  H   H3608     1.0  0.91391  0.21196  0.13413  1.0000
  C   C4464     1.0  0.94229  0.16672  0.22356  1.0000
  H   H3609     1.0  0.95382  0.13981  0.18643  1.0000
  C   C4465     1.0  0.75029  0.36969  0.17147  1.0000
  C   C4466     1.0  0.77851  0.25405  0.12014  1.0000
  C   C4467     1.0  0.78835  0.24240  0.10741  1.0000
  C   C4468     1.0  0.78081  0.24177  0.09182  1.0000
  C   C4469     1.0  0.76347  0.25277  0.08897  1.0000
  H   H3610     1.0  0.77457  0.42930  0.16428  1.0000
  C   C4470     1.0  0.90279  0.18287  0.28320  1.0000
  H   H3611     1.0  0.75971  0.08993  0.26826  1.0000
  C   C4471     1.0  0.73644  0.45554  0.02918  1.0000
  H   H3612     1.0  0.78437  0.25453  0.13223  1.0000
  H   H3613     1.0  0.80182  0.23389  0.10957  1.0000
  H   H3614     1.0  0.78836  0.23279  0.08185  1.0000
  H   H3615     1.0  0.90532  0.23869  0.19299  1.0000
  C   C4472     1.0  0.87856  0.14118  0.06360  1.0000
  C   C4473     1.0  0.83860  0.99551  0.12199  1.0000
  C   C4474     1.0  0.97649  0.32651  0.28987  1.0000
  P   P145      1.0  0.92440  0.14801  0.11982  1.0000
  H   H3616     1.0  0.74139  0.99795  0.16009  1.0000
  H   H3617     1.0  0.85104  0.16482  0.14305  1.0000
  C   C4475     1.0  0.82988  0.46398  0.22026  1.0000
  H   H3618     1.0  0.86654  0.30470  0.29008  1.0000
  S   S613      1.0  0.97617  0.36688  0.19374  1.0000
  C   C4476     1.0  0.91657  0.19372  0.20515  1.0000
  C   C4477     1.0  0.93290  0.19860  0.20815  1.0000
  H   H3619     1.0  0.73567  0.42884  0.25782  1.0000
  H   H3620     1.0  0.92958  0.12043  0.05249  1.0000
  C   C4478     1.0  0.92820  0.12570  0.06538  1.0000
  C   C4479     1.0  0.73732  0.45858  0.09490  1.0000
  H   H3621     1.0  0.89025  0.10740  0.09024  1.0000
  C   C4480     1.0  0.78723  0.14499  0.09313  1.0000
  C   C4481     1.0  0.77586  0.12657  0.09616  1.0000
  C   C4482     1.0  0.78762  0.10400  0.09884  1.0000
  C   C4483     1.0  0.82342  0.10327  0.09726  1.0000
  C   C4484     1.0  0.82809  0.12549  0.09403  1.0000
  C   C4485     1.0  0.81068  0.14449  0.09212  1.0000
  P   P146      1.0  0.85172  0.12859  0.09362  1.0000
  C   C4486     1.0  0.85070  0.14972  0.10269  1.0000
  C   C4487     1.0  0.86316  0.10870  0.10839  1.0000
  C   C4488     1.0  0.85309  0.10061  0.12539  1.0000
  C   C4489     1.0  0.86199  0.08542  0.13697  1.0000
  C   C4490     1.0  0.88102  0.07829  0.13181  1.0000
  C   C4491     1.0  0.89116  0.08629  0.11497  1.0000
  C   C4492     1.0  0.88226  0.10142  0.10326  1.0000
  C   C4493     1.0  0.84859  0.16725  0.09087  1.0000
  C   C4494     1.0  0.84731  0.18374  0.09778  1.0000
  C   C4495     1.0  0.84803  0.18288  0.11662  1.0000
  C   C4496     1.0  0.85029  0.16549  0.12848  1.0000
  C   C4497     1.0  0.85155  0.14897  0.12159  1.0000
  C   C4498     1.0  0.86394  0.13064  0.06970  1.0000
  C   C4499     1.0  0.85835  0.12240  0.05679  1.0000
  C   C4500     1.0  0.86693  0.12507  0.03798  1.0000
  S   S614      1.0  0.78053  0.44125  0.29284  1.0000
  H   H3622     1.0  0.78346  0.37240  0.12138  1.0000
  C   C4501     1.0  0.78503  0.38653  0.11428  1.0000
  C   C4502     1.0  0.89521  0.20978  0.11627  1.0000
  P   P147      1.0  0.73528  0.20887  0.98538  1.0000
  C   C4503     1.0  0.75101  0.00818  0.18979  1.0000
  C   C4504     1.0  0.73180  0.44103  0.10149  1.0000
  H   H3623     1.0  0.77641  0.98664  0.14195  1.0000
  H   H3624     1.0  0.76350  0.44100  0.26062  1.0000
  H   H3625     1.0  0.81840  0.02396  0.26689  1.0000
  C   C4505     1.0  0.75062  0.98064  0.21400  1.0000
  C   C4506     1.0  0.85978  0.01432  0.06220  1.0000
  H   H3626     1.0  0.95061  0.17360  0.10128  1.0000
  C   C4507     1.0  0.73209  0.20060  0.96516  1.0000
  H   H3627     1.0  0.93038  0.13921  0.15891  1.0000
  C   C4508     1.0  0.73859  0.06512  0.23059  1.0000
  C   C4509     1.0  0.74938  0.29219  0.06157  1.0000
  C   C4510     1.0  0.82760  0.98477  0.11669  1.0000
  C   C4511     1.0  0.74911  0.44942  0.16430  1.0000
  P   P148      1.0  0.76858  0.39791  0.14845  1.0000
  C   C4512     1.0  0.90920  0.20268  0.12723  1.0000
  H   H3628     1.0  0.75671  0.37155  0.18263  1.0000
  C   C4513     1.0  0.92583  0.16197  0.22071  1.0000
  H   H3629     1.0  0.79196  0.43664  0.08849  1.0000
  C   C4514     1.0  0.77900  0.40171  0.12398  1.0000
  H   H3630     1.0  0.92796  0.21769  0.27477  1.0000
  C   C4515     1.0  0.89582  0.11268  0.17287  1.0000
  H   H3631     1.0  0.80868  0.38014  0.14013  1.0000
  C   C4516     1.0  0.89739  0.17885  0.10900  1.0000
  C   C4517     1.0  0.76217  0.99453  0.26810  1.0000
  C   C4518     1.0  0.75787  0.46584  0.20669  1.0000
  C   C4519     1.0  0.78355  0.97712  0.15243  1.0000
  H   H3632     1.0  0.80621  0.03218  0.07475  1.0000
  H   H3633     1.0  0.89491  0.31493  0.26401  1.0000
  H   H3634     1.0  0.76323  0.30194  0.03369  1.0000
  P   P149      1.0  0.81488  0.99453  0.09754  1.0000
  C   C4520     1.0  0.74984  0.30108  0.04291  1.0000
  C   C4521     1.0  0.73455  0.44364  0.25818  1.0000
  C   C4522     1.0  0.75384  0.38011  0.15334  1.0000
  C   C4523     1.0  0.92718  0.14487  0.06488  1.0000
  C   C4524     1.0  0.74283  0.27025  0.98059  1.0000
  C   C4525     1.0  0.96967  0.13607  0.28024  1.0000
  H   H3635     1.0  0.96530  0.33479  0.15284  1.0000
  C   C4526     1.0  0.82107  0.02686  0.07124  1.0000
  H   H3636     1.0  0.83308  0.36858  0.15993  1.0000
  H   H3637     1.0  0.80439  0.45391  0.12835  1.0000
  C   C4527     1.0  0.94206  0.21213  0.26849  1.0000
  C   C4528     1.0  0.74656  0.09743  0.96558  1.0000
  C   C4529     1.0  0.91333  0.13404  0.14055  1.0000
  C   C4530     1.0  0.79281  0.00889  0.10538  1.0000
  C   C4531     1.0  0.79076  0.01805  0.12062  1.0000
  C   C4532     1.0  0.75683  0.21810  0.98152  1.0000
  H   H3638     1.0  0.88930  0.10414  0.18528  1.0000
  H   H3639     1.0  0.75238  0.20216  0.05445  1.0000
  H   H3640     1.0  0.93726  0.17147  0.17520  1.0000
  H   H3641     1.0  0.74496  0.11561  0.24606  1.0000
  H   H3642     1.0  0.76554  0.00566  0.25655  1.0000
  C   C4533     1.0  0.75397  0.98008  0.26541  1.0000
  C   C4534     1.0  0.77357  0.02899  0.12671  1.0000
  H   H3643     1.0  0.90681  0.20402  0.19763  1.0000
  H   H3644     1.0  0.77575  0.99070  0.19885  1.0000
  C   C4535     1.0  0.73307  0.30871  0.03613  1.0000
  C   C4536     1.0  0.97548  0.20468  0.26899  1.0000
  C   C4537     1.0  0.92784  0.11330  0.08244  1.0000
  C   C4538     1.0  0.88915  0.19782  0.10737  1.0000
  C   C4539     1.0  0.94604  0.18505  0.21714  1.0000
  C   C4540     1.0  0.77955  0.22910  0.99422  1.0000
  C   C4541     1.0  0.92456  0.13942  0.09873  1.0000
  C   C4542     1.0  0.75837  0.03093  0.11754  1.0000
  H   H3645     1.0  0.87781  0.10838  0.15537  1.0000
  C   C4543     1.0  0.92556  0.15170  0.08145  1.0000
  H   H3646     1.0  0.76535  0.05754  0.25757  1.0000
  C   C4544     1.0  0.92675  0.24834  0.17069  1.0000
  H   H3647     1.0  0.75231  0.37815  0.23716  1.0000
  H   H3648     1.0  0.92551  0.16652  0.08068  1.0000
  C   C4545     1.0  0.95971  0.13064  0.12860  1.0000
  C   C4546     1.0  0.91060  0.12139  0.17384  1.0000
  C   C4547     1.0  0.76740  0.22199  0.96352  1.0000
  C   C4548     1.0  0.91913  0.13232  0.15782  1.0000
  H   H3649     1.0  0.73340  0.31550  0.02165  1.0000
  C   C4549     1.0  0.91217  0.17188  0.11919  1.0000
  C   C4550     1.0  0.88940  0.11504  0.15594  1.0000
  H   H3650     1.0  0.77220  0.03607  0.13848  1.0000
  C   C4551     1.0  0.91484  0.24870  0.18801  1.0000
  C   C4552     1.0  0.76038  0.02215  0.10214  1.0000
  H   H3651     1.0  0.96253  0.25081  0.25490  1.0000
  H   H3652     1.0  0.76213  0.07195  0.18030  1.0000
  S   S615      1.0  0.97698  0.32534  0.21976  1.0000
  H   H3653     1.0  0.93538  0.21286  0.20323  1.0000
  H   H3654     1.0  0.93311  0.20615  0.24503  1.0000
  C   C4553     1.0  0.87178  0.36492  0.29253  1.0000
  C   C4554     1.0  0.73208  0.29047  0.07349  1.0000
  H   H3655     1.0  0.92304  0.14778  0.22560  1.0000
  C   C4555     1.0  0.91303  0.17541  0.21143  1.0000
  H   H3656     1.0  0.76645  0.18121  0.99883  1.0000
  C   C4556     1.0  0.97251  0.28051  0.27590  1.0000
  C   C4557     1.0  0.73445  0.07776  0.27893  1.0000
  H   H3657     1.0  0.87548  0.25276  0.29206  1.0000
  H   H3658     1.0  0.95207  0.15603  0.23072  1.0000
  H   H3659     1.0  0.76115  0.08946  0.14804  1.0000
  H   H3660     1.0  0.75499  0.21912  0.01088  1.0000
  C   C4558     1.0  0.97007  0.32092  0.14927  1.0000
  C   C4559     1.0  0.97766  0.99782  0.21611  1.0000
  H   H3661     1.0  0.80443  0.43983  0.19677  1.0000
  C   C4560     1.0  0.73535  0.42399  0.14993  1.0000
  H   H3662     1.0  0.74735  0.44340  0.03141  1.0000
  C   C4561     1.0  0.73580  0.28522  0.96743  1.0000
  C   C4562     1.0  0.73429  0.41448  0.20593  1.0000
  C   C4563     1.0  0.74341  0.38614  0.22732  1.0000
  H   H3663     1.0  0.84854  0.28710  0.27732  1.0000
  H   H3664     1.0  0.89889  0.19794  0.27987  1.0000
  C   C4564     1.0  0.73741  0.15823  0.03370  1.0000
  C   C4565     1.0  0.73758  0.35716  0.17574  1.0000
  H   H3665     1.0  0.95549  0.33758  0.27226  1.0000
  H   H3666     1.0  0.96685  0.19966  0.18058  1.0000
  H   H3667     1.0  0.96461  0.97466  0.21511  1.0000
  C   C4566     1.0  0.95726  0.21166  0.27722  1.0000
  C   C4567     1.0  0.96332  0.19831  0.24332  1.0000
  C   C4568     1.0  0.73166  0.04946  0.16819  1.0000
  H   H3668     1.0  0.90428  0.26326  0.29538  1.0000
  H   H3669     1.0  0.73302  0.31904  0.09101  1.0000
  C   C4569     1.0  0.73067  0.45356  0.16077  1.0000
  C   C4570     1.0  0.73098  0.98395  0.21702  1.0000
  C   C4571     1.0  0.73032  0.06017  0.15034  1.0000
  H   H3670     1.0  0.95501  0.21676  0.29032  1.0000
  C   C4572     1.0  0.82061  0.46775  0.20493  1.0000
  C   C4573     1.0  0.97403  0.21039  0.20265  1.0000
  H   H3671     1.0  0.97530  0.22585  0.15583  1.0000
  H   H3672     1.0  0.84527  0.36251  0.28610  1.0000
  C   C4574     1.0  0.85662  0.35588  0.29371  1.0000
  C   C4575     1.0  0.91327  0.14384  0.29090  1.0000
  H   H3673     1.0  0.97542  0.05271  0.29342  1.0000
  C   C4576     1.0  0.97697  0.22564  0.17005  1.0000
  C   C4577     1.0  0.97855  0.19817  0.25203  1.0000
  C   C4578     1.0  0.73665  0.10565  0.25504  1.0000
  H   H3674     1.0  0.91786  0.12876  0.29375  1.0000
  C   C4579     1.0  0.95809  0.33134  0.28630  1.0000
  Fe  Fe308     1.0  0.97915  0.10430  0.20379  1.0000
  C   C4580     1.0  0.97912  0.12931  0.12721  1.0000
  P   P150      1.0  0.73104  0.27876  0.09759  1.0000
  H   H3675     1.0  0.75036  0.46573  0.00170  1.0000
  C   C4581     1.0  0.73808  0.46826  0.01229  1.0000
  H   H3676     1.0  0.77494  0.28401  0.96535  1.0000
  H   H3677     1.0  0.78509  0.97194  0.10890  1.0000
  C   C4582     1.0  0.98011  0.17421  0.14806  1.0000
  C   C4583     1.0  0.98030  0.14377  0.16884  1.0000
  C   C4584     1.0  0.74296  0.22697  0.57643  1.0000
  S   S616      1.0  0.96047  0.20358  0.33264  1.0000
  Fe  Fe309     1.0  0.96074  0.20689  0.36193  1.0000
  S   S617      1.0  0.93506  0.20861  0.38505  1.0000
  S   S618      1.0  0.96729  0.24868  0.30097  1.0000
  C   C4585     1.0  0.76021  0.33052  0.49161  1.0000
  H   H3678     1.0  0.75129  0.23940  0.43898  1.0000
  H   H3679     1.0  0.85773  0.05330  0.59875  1.0000
  Fe  Fe310     1.0  0.75710  0.44863  0.60807  1.0000
  S   S619      1.0  0.76184  0.41659  0.61110  1.0000
  C   C4586     1.0  0.88429  0.22399  0.30422  1.0000
  H   H3680     1.0  0.80641  0.02184  0.56876  1.0000
  Fe  Fe311     1.0  0.79186  0.27913  0.38380  1.0000
  S   S620      1.0  0.80018  0.25496  0.36807  1.0000
  S   S621      1.0  0.78001  0.30925  0.37210  1.0000
  Fe  Fe312     1.0  0.80166  0.25486  0.42038  1.0000
  S   S622      1.0  0.81110  0.22897  0.40707  1.0000
  S   S623      1.0  0.80025  0.25004  0.45192  1.0000
  Fe  Fe313     1.0  0.82533  0.24762  0.38281  1.0000
  S   S624      1.0  0.85348  0.24008  0.36436  1.0000
  Fe  Fe314     1.0  0.78514  0.23829  0.39368  1.0000
  S   S625      1.0  0.76767  0.21519  0.39686  1.0000
  S   S626      1.0  0.81790  0.27293  0.39694  1.0000
  S   S627      1.0  0.77495  0.26300  0.40856  1.0000
  H   H3681     1.0  0.77563  0.34571  0.50319  1.0000
  H   H3682     1.0  0.80687  0.35019  0.57853  1.0000
  Fe  Fe315     1.0  0.80624  0.29773  0.57336  1.0000
  S   S628      1.0  0.77626  0.30120  0.58853  1.0000
  S   S629      1.0  0.83313  0.29055  0.58595  1.0000
  Fe  Fe316     1.0  0.79427  0.30345  0.53472  1.0000
  C   C4587     1.0  0.74650  0.34850  0.51641  1.0000
  S   S630      1.0  0.80407  0.30801  0.50306  1.0000
  Fe  Fe317     1.0  0.77101  0.32550  0.56499  1.0000
  C   C4588     1.0  0.79999  0.03640  0.56892  1.0000
  Fe  Fe318     1.0  0.77151  0.28290  0.56945  1.0000
  S   S631      1.0  0.80122  0.32296  0.55091  1.0000
  S   S632      1.0  0.80197  0.27793  0.55584  1.0000
  H   H3683     1.0  0.75222  0.41974  0.57382  1.0000
  H   H3684     1.0  0.92887  0.33150  0.29783  1.0000
  C   C4589     1.0  0.80303  0.26609  0.46548  1.0000
  C   C4590     1.0  0.80544  0.28454  0.45763  1.0000
  C   C4591     1.0  0.80600  0.29721  0.46925  1.0000
  C   C4592     1.0  0.80427  0.29151  0.48876  1.0000
  C   C4593     1.0  0.80271  0.27288  0.49645  1.0000
  C   C4594     1.0  0.80214  0.26023  0.48487  1.0000
  H   H3685     1.0  0.80657  0.28914  0.44267  1.0000
  H   H3686     1.0  0.80751  0.31155  0.46312  1.0000
  H   H3687     1.0  0.80157  0.26834  0.51139  1.0000
  H   H3688     1.0  0.80053  0.24596  0.49109  1.0000
  C   C4595     1.0  0.78794  0.31936  0.34858  1.0000
  C   C4596     1.0  0.78363  0.33891  0.34280  1.0000
  C   C4597     1.0  0.78995  0.34735  0.32425  1.0000
  C   C4598     1.0  0.80056  0.33626  0.31130  1.0000
  C   C4599     1.0  0.80479  0.31674  0.31709  1.0000
  C   C4600     1.0  0.79854  0.30832  0.33561  1.0000
  H   H3689     1.0  0.77541  0.34758  0.35271  1.0000
  H   H3690     1.0  0.78660  0.36240  0.31999  1.0000
  H   H3691     1.0  0.81286  0.30807  0.30715  1.0000
  H   H3692     1.0  0.80189  0.29328  0.33983  1.0000
  H   H3693     1.0  0.74898  0.13523  0.59157  1.0000
  H   H3694     1.0  0.73198  0.24251  0.40682  1.0000
  C   C4601     1.0  0.76180  0.98031  0.30059  1.0000
  C   C4602     1.0  0.75657  0.28228  0.50698  1.0000
  H   H3695     1.0  0.77491  0.08786  0.56990  1.0000
  S   S633      1.0  0.76352  0.30751  0.54730  1.0000
  C   C4603     1.0  0.83682  0.29767  0.60617  1.0000
  C   C4604     1.0  0.76132  0.39988  0.59718  1.0000
  C   C4605     1.0  0.76611  0.38068  0.60437  1.0000
  H   H3696     1.0  0.93740  0.28639  0.30424  1.0000
  H   H3697     1.0  0.80714  0.13606  0.59109  1.0000
  C   C4606     1.0  0.75567  0.40505  0.57968  1.0000
  C   C4607     1.0  0.87902  0.46338  0.62575  1.0000
  C   C4608     1.0  0.90274  0.24865  0.29982  1.0000
  H   H3698     1.0  0.74875  0.39530  0.55686  1.0000
  H   H3699     1.0  0.82929  0.25947  0.33297  1.0000
  C   C4609     1.0  0.78345  0.06563  0.55400  1.0000
  H   H3700     1.0  0.84750  0.14780  0.55350  1.0000
  C   C4610     1.0  0.75210  0.19509  0.52855  1.0000
  C   C4611     1.0  0.82587  0.23848  0.53050  1.0000
  C   C4612     1.0  0.91233  0.21746  0.37944  1.0000
  C   C4613     1.0  0.89666  0.21969  0.39381  1.0000
  C   C4614     1.0  0.87844  0.22673  0.38958  1.0000
  C   C4615     1.0  0.87584  0.23158  0.37091  1.0000
  C   C4616     1.0  0.89150  0.22942  0.35664  1.0000
  C   C4617     1.0  0.90962  0.22227  0.36085  1.0000
  H   H3701     1.0  0.89863  0.21595  0.40825  1.0000
  H   H3702     1.0  0.86646  0.22834  0.40070  1.0000
  H   H3703     1.0  0.88957  0.23350  0.34224  1.0000
  H   H3704     1.0  0.92156  0.22072  0.34972  1.0000
  H   H3705     1.0  0.82989  0.26437  0.29875  1.0000
  H   H3706     1.0  0.76869  0.35207  0.60016  1.0000
  C   C4618     1.0  0.82765  0.06228  0.60183  1.0000
  H   H3707     1.0  0.82991  0.24974  0.53525  1.0000
  C   C4619     1.0  0.73424  0.07923  0.54968  1.0000
  H   H3708     1.0  0.86997  0.16024  0.32200  1.0000
  H   H3709     1.0  0.76705  0.28738  0.44969  1.0000
  Fe  Fe319     1.0  0.75484  0.98852  0.61335  1.0000
  C   C4620     1.0  0.74299  0.22658  0.37121  1.0000
  C   C4621     1.0  0.76584  0.21103  0.44338  1.0000
  C   C4622     1.0  0.76425  0.19203  0.44772  1.0000
  C   C4623     1.0  0.83723  0.26952  0.32358  1.0000
  C   C4624     1.0  0.75232  0.33462  0.44710  1.0000
  C   C4625     1.0  0.85593  0.33821  0.30479  1.0000
  C   C4626     1.0  0.76483  0.30221  0.44411  1.0000
  H   H3710     1.0  0.96446  0.17376  0.30233  1.0000
  H   H3711     1.0  0.77959  0.21515  0.44030  1.0000
  H   H3712     1.0  0.77678  0.18140  0.44808  1.0000
  H   H3713     1.0  0.73451  0.27130  0.55205  1.0000
  H   H3714     1.0  0.81325  0.10155  0.59920  1.0000
  C   C4627     1.0  0.91553  0.17354  0.37037  1.0000
  C   C4628     1.0  0.93408  0.16492  0.36511  1.0000
  C   C4629     1.0  0.94062  0.16214  0.34666  1.0000
  C   C4630     1.0  0.92868  0.16824  0.33342  1.0000
  C   C4631     1.0  0.90999  0.17691  0.33856  1.0000
  C   C4632     1.0  0.90353  0.17961  0.35716  1.0000
  P   P151      1.0  0.89541  0.18682  0.32087  1.0000
  C   C4633     1.0  0.89843  0.21094  0.31222  1.0000
  C   C4634     1.0  0.84471  0.05613  0.60843  1.0000
  H   H3715     1.0  0.76487  0.98040  0.31422  1.0000
  H   H3716     1.0  0.75472  0.10077  0.60005  1.0000
  H   H3717     1.0  0.87623  0.46655  0.59687  1.0000
  C   C4635     1.0  0.75029  0.26941  0.48191  1.0000
  H   H3718     1.0  0.77579  0.03644  0.31390  1.0000
  H   H3719     1.0  0.96520  0.26727  0.36354  1.0000
  C   C4636     1.0  0.92576  0.28427  0.31562  1.0000
  C   C4637     1.0  0.78438  0.09848  0.60032  1.0000
  H   H3720     1.0  0.92603  0.20711  0.31950  1.0000
  C   C4638     1.0  0.95028  0.29594  0.36129  1.0000
  C   C4639     1.0  0.87103  0.18597  0.33113  1.0000
  C   C4640     1.0  0.86059  0.20003  0.34106  1.0000
  C   C4641     1.0  0.84177  0.19958  0.34916  1.0000
  C   C4642     1.0  0.83316  0.18506  0.34740  1.0000
  C   C4643     1.0  0.84343  0.17094  0.33756  1.0000
  C   C4644     1.0  0.86231  0.17135  0.32946  1.0000
  H   H3721     1.0  0.91068  0.17621  0.38456  1.0000
  H   H3722     1.0  0.94351  0.16081  0.37524  1.0000
  H   H3723     1.0  0.95513  0.15573  0.34249  1.0000
  H   H3724     1.0  0.93421  0.16654  0.31908  1.0000
  H   H3725     1.0  0.88949  0.18693  0.36145  1.0000
  C   C4645     1.0  0.75860  0.37193  0.57725  1.0000
  C   C4646     1.0  0.79575  0.12827  0.59304  1.0000
  C   C4647     1.0  0.73759  0.06591  0.40706  1.0000
  H   H3726     1.0  0.77447  0.07211  0.30954  1.0000
  C   C4648     1.0  0.74101  0.07425  0.47463  1.0000
  P   P152      1.0  0.78863  0.07310  0.60587  1.0000
  C   C4649     1.0  0.75420  0.31543  0.45502  1.0000
  H   H3727     1.0  0.83723  0.32945  0.57039  1.0000
  C   C4650     1.0  0.74452  0.07144  0.31500  1.0000
  C   C4651     1.0  0.92072  0.28021  0.38566  1.0000
  H   H3728     1.0  0.86704  0.21133  0.34266  1.0000
  H   H3729     1.0  0.83391  0.21051  0.35690  1.0000
  H   H3730     1.0  0.81856  0.18475  0.35374  1.0000
  H   H3731     1.0  0.83675  0.15965  0.33625  1.0000
  H   H3732     1.0  0.85161  0.23371  0.51094  1.0000
  H   H3733     1.0  0.74812  0.09920  0.43055  1.0000
  H   H3734     1.0  0.75725  0.23942  0.48445  1.0000
  C   C4652     1.0  0.73216  0.05148  0.38262  1.0000
  H   H3735     1.0  0.77255  0.32526  0.48214  1.0000
  H   H3736     1.0  0.76665  0.26207  0.52973  1.0000
  C   C4653     1.0  0.88628  0.35626  0.30255  1.0000
  H   H3737     1.0  0.87030  0.38706  0.59844  1.0000
  C   C4654     1.0  0.79913  0.04444  0.58460  1.0000
  H   H3738     1.0  0.78158  0.29788  0.41734  1.0000
  C   C4655     1.0  0.74309  0.09207  0.34322  1.0000
  H   H3739     1.0  0.73952  0.05376  0.59262  1.0000
  H   H3740     1.0  0.77511  0.15303  0.58705  1.0000
  C   C4656     1.0  0.79013  0.06308  0.58524  1.0000
  H   H3741     1.0  0.82945  0.12184  0.55816  1.0000
  C   C4657     1.0  0.91863  0.29962  0.37947  1.0000
  H   H3742     1.0  0.96959  0.33878  0.39802  1.0000
  C   C4658     1.0  0.79213  0.04699  0.55364  1.0000
  C   C4659     1.0  0.78043  0.03808  0.29889  1.0000
  H   H3743     1.0  0.77313  0.08936  0.33488  1.0000
  H   H3744     1.0  0.74279  0.19334  0.54192  1.0000
  S   S634      1.0  0.75377  0.35498  0.56585  1.0000
  C   C4660     1.0  0.83810  0.22942  0.51678  1.0000
  H   H3745     1.0  0.77050  0.37647  0.61790  1.0000
  C   C4661     1.0  0.87073  0.32912  0.31436  1.0000
  C   C4662     1.0  0.74371  0.05301  0.39477  1.0000
  S   S635      1.0  0.75804  0.25650  0.58097  1.0000
  H   H3746     1.0  0.84503  0.41893  0.61684  1.0000
  C   C4663     1.0  0.76106  0.07589  0.31825  1.0000
  H   H3747     1.0  0.80756  0.40277  0.58765  1.0000
  S   S636      1.0  0.76520  0.98948  0.58236  1.0000
  C   C4664     1.0  0.81941  0.44526  0.58468  1.0000
  H   H3748     1.0  0.75717  0.29396  0.51336  1.0000
  H   H3749     1.0  0.84372  0.33176  0.30588  1.0000
  C   C4665     1.0  0.73619  0.06576  0.58201  1.0000
  C   C4666     1.0  0.96094  0.30877  0.58394  1.0000
  H   H3750     1.0  0.82775  0.06450  0.58691  1.0000
  C   C4667     1.0  0.74649  0.18679  0.45160  1.0000
  H   H3751     1.0  0.73949  0.19168  0.40898  1.0000
  C   C4668     1.0  0.74460  0.20009  0.51206  1.0000
  H   H3752     1.0  0.86489  0.33121  0.58352  1.0000
  H   H3753     1.0  0.90575  0.30514  0.30203  1.0000
  H   H3754     1.0  0.92950  0.24027  0.30912  1.0000
  C   C4669     1.0  0.90231  0.17365  0.30185  1.0000
  P   P153      1.0  0.83165  0.38426  0.61617  1.0000
  C   C4670     1.0  0.82737  0.40796  0.60314  1.0000
  C   C4671     1.0  0.77770  0.13785  0.59081  1.0000
  H   H3755     1.0  0.97322  0.41437  0.33350  1.0000
  H   H3756     1.0  0.93716  0.29961  0.60344  1.0000
  H   H3757     1.0  0.84508  0.18598  0.43475  1.0000
  H   H3758     1.0  0.80771  0.02112  0.30125  1.0000
  H   H3759     1.0  0.90725  0.14658  0.31984  1.0000
  C   C4672     1.0  0.76517  0.36678  0.59431  1.0000
  H   H3760     1.0  0.73693  0.04154  0.37305  1.0000
  C   C4673     1.0  0.74971  0.08502  0.45865  1.0000
  H   H3761     1.0  0.89794  0.36340  0.30171  1.0000
  H   H3762     1.0  0.74055  0.27024  0.38433  1.0000
  H   H3763     1.0  0.73111  0.13961  0.36542  1.0000
  H   H3764     1.0  0.76325  0.08865  0.45847  1.0000
  C   C4674     1.0  0.85072  0.35433  0.59761  1.0000
  C   C4675     1.0  0.76034  0.08593  0.33248  1.0000
  H   H3765     1.0  0.80522  0.03596  0.59636  1.0000
  C   C4676     1.0  0.91490  0.21689  0.31354  1.0000
  S   S637      1.0  0.73434  0.01556  0.60967  1.0000
  C   C4677     1.0  0.81483  0.41291  0.59032  1.0000
  C   C4678     1.0  0.85827  0.29504  0.29954  1.0000
  H   H3766     1.0  0.75745  0.04423  0.39463  1.0000
  H   H3767     1.0  0.74513  0.17210  0.45534  1.0000
  C   C4679     1.0  0.97935  0.27173  0.59240  1.0000
  H   H3768     1.0  0.80830  0.31112  0.61411  1.0000
  Fe  Fe320     1.0  0.74287  0.01531  0.57888  1.0000
  C   C4680     1.0  0.81094  0.43145  0.58111  1.0000
  C   C4681     1.0  0.77329  0.30809  0.42567  1.0000
  S   S638      1.0  0.74630  0.04119  0.55680  1.0000
  H   H3769     1.0  0.95330  0.26686  0.61070  1.0000
  C   C4682     1.0  0.73622  0.20092  0.39628  1.0000
  C   C4683     1.0  0.78230  0.07363  0.56978  1.0000
  H   H3770     1.0  0.90566  0.30858  0.38422  1.0000
  H   H3771     1.0  0.79296  0.00883  0.61808  1.0000
  H   H3772     1.0  0.80437  0.37313  0.59901  1.0000
  H   H3773     1.0  0.90933  0.27406  0.39499  1.0000
  H   H3774     1.0  0.75072  0.21884  0.58717  1.0000
  H   H3775     1.0  0.89674  0.33216  0.32167  1.0000
  H   H3776     1.0  0.80095  0.43516  0.57154  1.0000
  C   C4684     1.0  0.83176  0.44056  0.59748  1.0000
  C   C4685     1.0  0.74098  0.09110  0.44288  1.0000
  C   C4686     1.0  0.74973  0.22478  0.44245  1.0000
  C   C4687     1.0  0.83576  0.42203  0.60666  1.0000
  H   H3777     1.0  0.86629  0.28563  0.60210  1.0000
  C   C4688     1.0  0.81066  0.06520  0.61444  1.0000
  C   C4689     1.0  0.77119  0.32713  0.41789  1.0000
  C   C4690     1.0  0.75388  0.39115  0.57001  1.0000
  C   C4691     1.0  0.91373  0.26750  0.34590  1.0000
  C   C4692     1.0  0.92875  0.27080  0.33146  1.0000
  H   H3778     1.0  0.73596  0.07754  0.53526  1.0000
  C   C4693     1.0  0.90785  0.29493  0.31452  1.0000
  C   C4694     1.0  0.89289  0.29231  0.32948  1.0000
  C   C4695     1.0  0.89575  0.27783  0.34473  1.0000
  P   P154      1.0  0.86979  0.30619  0.32847  1.0000
  C   C4696     1.0  0.95226  0.27648  0.36767  1.0000
  C   C4697     1.0  0.85722  0.29296  0.31896  1.0000
  H   H3779     1.0  0.81606  0.45972  0.57787  1.0000
  C   C4698     1.0  0.79913  0.10865  0.59769  1.0000
  C   C4699     1.0  0.91695  0.23571  0.30754  1.0000
  C   C4700     1.0  0.97029  0.16024  0.29827  1.0000
  C   C4701     1.0  0.84680  0.27998  0.33091  1.0000
  H   H3780     1.0  0.74415  0.34512  0.45516  1.0000
  H   H3781     1.0  0.83783  0.45145  0.60064  1.0000
  C   C4702     1.0  0.90745  0.15402  0.30559  1.0000
  C   C4703     1.0  0.76627  0.10827  0.59824  1.0000
  H   H3782     1.0  0.86287  0.35430  0.60358  1.0000
  C   C4704     1.0  0.85754  0.31086  0.35122  1.0000
  C   C4705     1.0  0.86739  0.31021  0.36571  1.0000
  C   C4706     1.0  0.85761  0.31366  0.38330  1.0000
  C   C4707     1.0  0.83799  0.31830  0.38638  1.0000
  C   C4708     1.0  0.82818  0.31977  0.37179  1.0000
  C   C4709     1.0  0.83791  0.31615  0.35427  1.0000
  H   H3783     1.0  0.91601  0.25683  0.35801  1.0000
  H   H3784     1.0  0.94265  0.26263  0.33242  1.0000
  C   C4710     1.0  0.86980  0.38438  0.61346  1.0000
  C   C4711     1.0  0.85496  0.29329  0.61083  1.0000
  H   H3785     1.0  0.88414  0.27454  0.35581  1.0000
  H   H3786     1.0  0.79221  0.04058  0.54174  1.0000
  H   H3787     1.0  0.74531  0.27108  0.46882  1.0000
  C   C4712     1.0  0.73159  0.14979  0.39041  1.0000
  C   C4713     1.0  0.95146  0.29548  0.59647  1.0000
  H   H3788     1.0  0.84601  0.27794  0.34593  1.0000
  C   C4714     1.0  0.74762  0.21444  0.38739  1.0000
  C   C4715     1.0  0.85858  0.29873  0.62669  1.0000
  C   C4716     1.0  0.75639  0.25132  0.49106  1.0000
  C   C4717     1.0  0.76176  0.24862  0.50852  1.0000
  C   C4718     1.0  0.97969  0.30362  0.57573  1.0000
  H   H3789     1.0  0.88257  0.30704  0.36348  1.0000
  H   H3790     1.0  0.86517  0.31270  0.39460  1.0000
  H   H3791     1.0  0.83034  0.32081  0.40003  1.0000
  H   H3792     1.0  0.81299  0.32360  0.37407  1.0000
  H   H3793     1.0  0.83011  0.31749  0.34308  1.0000
  C   C4719     1.0  0.83559  0.14960  0.54646  1.0000
  C   C4720     1.0  0.82544  0.13498  0.54909  1.0000
  C   C4721     1.0  0.81018  0.13727  0.53990  1.0000
  C   C4722     1.0  0.80510  0.15415  0.52803  1.0000
  C   C4723     1.0  0.81507  0.16902  0.52553  1.0000
  C   C4724     1.0  0.83049  0.16654  0.53468  1.0000
  P   P155      1.0  0.80879  0.19062  0.50982  1.0000
  C   C4725     1.0  0.81520  0.20967  0.51771  1.0000
  C   C4726     1.0  0.82086  0.18890  0.48623  1.0000
  C   C4727     1.0  0.82227  0.20528  0.47285  1.0000
  C   C4728     1.0  0.83098  0.20421  0.45439  1.0000
  C   C4729     1.0  0.83839  0.18674  0.44911  1.0000
  C   C4730     1.0  0.83708  0.17032  0.46233  1.0000
  C   C4731     1.0  0.82830  0.17136  0.48084  1.0000
  C   C4732     1.0  0.80299  0.21889  0.53153  1.0000
  C   C4733     1.0  0.80834  0.23318  0.53789  1.0000
  H   H3794     1.0  0.77686  0.07360  0.54235  1.0000
  C   C4734     1.0  0.73235  0.27194  0.39801  1.0000
  C   C4735     1.0  0.83290  0.21498  0.51053  1.0000
  C   C4736     1.0  0.78366  0.19459  0.51054  1.0000
  C   C4737     1.0  0.77602  0.19948  0.49397  1.0000
  C   C4738     1.0  0.75657  0.20192  0.49481  1.0000
  C   C4739     1.0  0.76079  0.34041  0.42864  1.0000
  C   C4740     1.0  0.76298  0.12784  0.59343  1.0000
  C   C4741     1.0  0.77152  0.19206  0.52783  1.0000
  C   C4742     1.0  0.73808  0.06343  0.56344  1.0000
  C   C4743     1.0  0.74428  0.24609  0.57030  1.0000
  H   H3795     1.0  0.80231  0.12593  0.54190  1.0000
  H   H3796     1.0  0.79342  0.15556  0.52078  1.0000
  H   H3797     1.0  0.83862  0.17765  0.53272  1.0000
  H   H3798     1.0  0.81645  0.21894  0.47664  1.0000
  H   H3799     1.0  0.77764  0.33151  0.40351  1.0000
  C   C4744     1.0  0.76190  0.26410  0.51644  1.0000
  H   H3800     1.0  0.84280  0.15678  0.45819  1.0000
  H   H3801     1.0  0.82729  0.15848  0.49079  1.0000
  H   H3802     1.0  0.78934  0.21525  0.53756  1.0000
  H   H3803     1.0  0.79880  0.24024  0.54852  1.0000
  H   H3804     1.0  0.83181  0.21700  0.44416  1.0000
  C   C4745     1.0  0.93756  0.26866  0.37980  1.0000
  H   H3805     1.0  0.84274  0.20801  0.50007  1.0000
  H   H3806     1.0  0.78490  0.20139  0.48037  1.0000
  H   H3807     1.0  0.75068  0.20537  0.48211  1.0000
  C   C4746     1.0  0.83774  0.27216  0.30430  1.0000
  C   C4747     1.0  0.88619  0.38345  0.62050  1.0000
  H   H3808     1.0  0.77701  0.18778  0.54080  1.0000
  C   C4748     1.0  0.85195  0.34105  0.58626  1.0000
  C   C4749     1.0  0.83630  0.33992  0.57898  1.0000
  C   C4750     1.0  0.81921  0.35162  0.58356  1.0000
  C   C4751     1.0  0.81790  0.36479  0.59501  1.0000
  C   C4752     1.0  0.83378  0.36678  0.60160  1.0000
  H   H3809     1.0  0.95389  0.32318  0.58107  1.0000
  H   H3810     1.0  0.87148  0.21972  0.30299  1.0000
  C   C4753     1.0  0.76199  0.34217  0.50352  1.0000
  H   H3811     1.0  0.93159  0.32255  0.36282  1.0000
  C   C4754     1.0  0.77006  0.06470  0.62384  1.0000
  C   C4755     1.0  0.82229  0.30760  0.61756  1.0000
  H   H3812     1.0  0.74775  0.06955  0.48687  1.0000
  H   H3813     1.0  0.74683  0.06699  0.41622  1.0000
  C   C4756     1.0  0.73153  0.21833  0.56896  1.0000
  P   P156      1.0  0.74151  0.30841  0.47834  1.0000
  H   H3814     1.0  0.75925  0.35520  0.42261  1.0000
  C   C4757     1.0  0.76554  0.04691  0.62489  1.0000
  H   H3815     1.0  0.73201  0.30170  0.39344  1.0000
  C   C4758     1.0  0.84497  0.05326  0.62760  1.0000
  C   C4759     1.0  0.74289  0.32501  0.49255  1.0000
  H   H3816     1.0  0.76621  0.23459  0.51572  1.0000
  H   H3817     1.0  0.93919  0.25356  0.38457  1.0000
  C   C4760     1.0  0.75073  0.28510  0.48957  1.0000
  H   H3818     1.0  0.93458  0.31729  0.32980  1.0000
  H   H3819     1.0  0.89931  0.38504  0.61102  1.0000
  H   H3820     1.0  0.74810  0.35707  0.52601  1.0000
  H   H3821     1.0  0.74246  0.10015  0.35402  1.0000
  C   C4761     1.0  0.73180  0.04060  0.30262  1.0000
  C   C4762     1.0  0.93334  0.30747  0.36733  1.0000
  H   H3822     1.0  0.75157  0.23709  0.36426  1.0000
  C   C4763     1.0  0.96061  0.27697  0.60060  1.0000
  C   C4764     1.0  0.94309  0.32786  0.30076  1.0000
  C   C4765     1.0  0.94644  0.31976  0.31886  1.0000
  C   C4766     1.0  0.88566  0.33850  0.31364  1.0000
  H   H3823     1.0  0.73238  0.46948  0.46177  1.0000
  Fe  Fe321     1.0  0.97800  0.22641  0.32406  1.0000
  H   H3824     1.0  0.88330  0.44827  0.62752  1.0000
  H   H3825     1.0  0.81863  0.02085  0.62678  1.0000
  C   C4767     1.0  0.73390  0.25652  0.55667  1.0000
  C   C4768     1.0  0.96493  0.31488  0.32256  1.0000
  H   H3826     1.0  0.73650  0.16258  0.38282  1.0000
  C   C4769     1.0  0.97255  0.33938  0.38298  1.0000
  C   C4770     1.0  0.73187  0.21962  0.44578  1.0000
  H   H3827     1.0  0.77215  0.03835  0.61439  1.0000
  S   S639      1.0  0.97643  0.23118  0.35334  1.0000
  P   P157      1.0  0.96955  0.30619  0.34618  1.0000
  C   C4771     1.0  0.97314  0.32541  0.35590  1.0000
  C   C4772     1.0  0.96920  0.32486  0.37536  1.0000
  C   C4773     1.0  0.88650  0.24275  0.29801  1.0000
  H   H3828     1.0  0.73727  0.02083  0.52821  1.0000
  Fe  Fe322     1.0  0.74215  0.97338  0.58247  1.0000
  H   H3829     1.0  0.96385  0.31305  0.38471  1.0000
  C   C4774     1.0  0.85287  0.38180  0.62569  1.0000
  S   S640      1.0  0.77309  0.46993  0.58849  1.0000
  P   P158      1.0  0.74502  0.05961  0.29587  1.0000
  C   C4775     1.0  0.97994  0.31801  0.30780  1.0000
  C   C4776     1.0  0.97991  0.35453  0.37126  1.0000
  H   H3830     1.0  0.73050  0.20369  0.57399  1.0000
  C   C4777     1.0  0.73035  0.20052  0.45068  1.0000
  C   C4778     1.0  0.73054  0.08376  0.58675  1.0000
  Fe  Fe323     1.0  0.84762  0.00425  0.68700  1.0000
  S   S641      1.0  0.83683  0.01123  0.65911  1.0000
  Fe  Fe324     1.0  0.87263  0.01906  0.70799  1.0000
  S   S642      1.0  0.86539  0.99903  0.73463  1.0000
  S   S643      1.0  0.88937  0.04297  0.70368  1.0000
  Fe  Fe325     1.0  0.83578  0.00660  0.72878  1.0000
  S   S644      1.0  0.81033  0.01948  0.74768  1.0000
  S   S645      1.0  0.87846  0.99705  0.68939  1.0000
  S   S646      1.0  0.84285  0.02777  0.70314  1.0000
  H   H3831     1.0  0.81529  0.98172  0.67834  1.0000
  H   H3832     1.0  0.81276  0.19630  0.93835  1.0000
  H   H3833     1.0  0.79540  0.07307  0.78330  1.0000
  P   P159      1.0  0.75701  0.99060  0.71406  1.0000
  C   C4779     1.0  0.87830  0.14753  0.89496  1.0000
  S   S647      1.0  0.88485  0.44378  0.69031  1.0000
  H   H3834     1.0  0.83653  0.41435  0.77111  1.0000
  H   H3835     1.0  0.86203  0.19613  0.95970  1.0000
  C   C4780     1.0  0.82176  0.07584  0.82307  1.0000
  H   H3836     1.0  0.93782  0.22738  0.80931  1.0000
  C   C4781     1.0  0.82896  0.18392  0.74376  1.0000
  Fe  Fe326     1.0  0.89202  0.33189  0.69157  1.0000
  S   S648      1.0  0.89435  0.33253  0.66067  1.0000
  S   S649      1.0  0.88176  0.35593  0.70843  1.0000
  Fe  Fe327     1.0  0.89788  0.28830  0.70021  1.0000
  S   S650      1.0  0.89978  0.28602  0.67013  1.0000
  S   S651      1.0  0.90177  0.26483  0.72524  1.0000
  Fe  Fe328     1.0  0.91835  0.30810  0.66421  1.0000
  H   H3837     1.0  0.74409  0.03843  0.86901  1.0000
  Fe  Fe329     1.0  0.87575  0.31049  0.66896  1.0000
  H   H3838     1.0  0.79573  0.40802  0.62932  1.0000
  S   S652      1.0  0.91753  0.30922  0.69441  1.0000
  S   S653      1.0  0.87236  0.31086  0.69977  1.0000
  Fe  Fe330     1.0  0.91901  0.11263  0.76131  1.0000
  S   S654      1.0  0.89391  0.13415  0.76970  1.0000
  S   S655      1.0  0.91434  0.08278  0.76122  1.0000
  Fe  Fe331     1.0  0.94651  0.13819  0.76470  1.0000
  S   S656      1.0  0.92294  0.16072  0.77400  1.0000
  H   H3839     1.0  0.73692  0.07486  0.78319  1.0000
  Fe  Fe332     1.0  0.90916  0.13701  0.79170  1.0000
  S   S657      1.0  0.89490  0.13568  0.82196  1.0000
  Fe  Fe333     1.0  0.90984  0.15591  0.75110  1.0000
  S   S658      1.0  0.89583  0.17907  0.73056  1.0000
  S   S659      1.0  0.93384  0.11470  0.78442  1.0000
  S   S660      1.0  0.93392  0.13427  0.74076  1.0000
  Fe  Fe334     1.0  0.76390  0.12280  0.88530  1.0000
  S   S661      1.0  0.76012  0.14726  0.86190  1.0000
  H   H3840     1.0  0.80850  0.43747  0.72422  1.0000
  Fe  Fe335     1.0  0.77820  0.14598  0.90809  1.0000
  S   S662      1.0  0.77622  0.17204  0.88604  1.0000
  H   H3841     1.0  0.93695  0.18810  0.86946  1.0000
  Fe  Fe336     1.0  0.74851  0.16525  0.88407  1.0000
  Fe  Fe337     1.0  0.78813  0.15231  0.86533  1.0000
  S   S663      1.0  0.80639  0.16014  0.83733  1.0000
  S   S664      1.0  0.74962  0.14032  0.90735  1.0000
  S   S665      1.0  0.79281  0.12681  0.88746  1.0000
  C   C4782     1.0  0.79972  0.17288  0.93777  1.0000
  C   C4783     1.0  0.73846  0.34645  0.90888  1.0000
  H   H3842     1.0  0.79909  0.17666  0.92299  1.0000
  H   H3843     1.0  0.76341  0.10499  0.93861  1.0000
  S   S666      1.0  0.97644  0.14461  0.75756  1.0000
  H   H3844     1.0  0.81179  0.19343  0.80913  1.0000
  H   H3845     1.0  0.84006  0.44447  0.63951  1.0000
  C   C4784     1.0  0.82206  0.42781  0.74820  1.0000
  H   H3846     1.0  0.76299  0.21938  0.95145  1.0000
  C   C4785     1.0  0.87012  0.14084  0.82588  1.0000
  C   C4786     1.0  0.86046  0.15015  0.81133  1.0000
  C   C4787     1.0  0.84086  0.15554  0.81497  1.0000
  C   C4788     1.0  0.83071  0.15146  0.83312  1.0000
  C   C4789     1.0  0.84025  0.14153  0.84757  1.0000
  C   C4790     1.0  0.85996  0.13642  0.84400  1.0000
  H   H3847     1.0  0.86816  0.15402  0.79744  1.0000
  H   H3848     1.0  0.83366  0.16336  0.80374  1.0000
  H   H3849     1.0  0.83249  0.13816  0.86156  1.0000
  H   H3850     1.0  0.86736  0.12914  0.85530  1.0000
  C   C4791     1.0  0.90008  0.24110  0.72619  1.0000
  C   C4792     1.0  0.90528  0.22776  0.74154  1.0000
  C   C4793     1.0  0.90439  0.20869  0.74285  1.0000
  C   C4794     1.0  0.89770  0.20286  0.72909  1.0000
  C   C4795     1.0  0.89217  0.21625  0.71389  1.0000
  C   C4796     1.0  0.89354  0.23528  0.71232  1.0000
  H   H3851     1.0  0.91009  0.23224  0.75243  1.0000
  H   H3852     1.0  0.90873  0.19856  0.75457  1.0000
  H   H3853     1.0  0.88700  0.21188  0.70315  1.0000
  H   H3854     1.0  0.88945  0.24545  0.70044  1.0000
  H   H3855     1.0  0.77469  0.07707  0.83860  1.0000
  H   H3856     1.0  0.81318  0.42866  0.64112  1.0000
  H   H3857     1.0  0.78476  0.03481  0.66083  1.0000
  H   H3858     1.0  0.79834  0.06516  0.64366  1.0000
  H   H3859     1.0  0.84192  0.23382  0.74535  1.0000
  H   H3860     1.0  0.90764  0.19965  0.88987  1.0000
  C   C4797     1.0  0.74327  0.32518  0.93779  1.0000
  C   C4798     1.0  0.80573  0.20763  0.81129  1.0000
  C   C4799     1.0  0.76092  0.07535  0.63779  1.0000
  C   C4800     1.0  0.73849  0.20567  0.82200  1.0000
  H   H3861     1.0  0.85653  0.06673  0.77556  1.0000
  H   H3862     1.0  0.85398  0.26200  0.72714  1.0000
  H   H3863     1.0  0.88150  0.17214  0.87359  1.0000
  P   P160      1.0  0.86077  0.16008  0.91094  1.0000
  H   H3864     1.0  0.87886  0.12035  0.91313  1.0000
  C   C4801     1.0  0.95087  0.00303  0.73354  1.0000
  C   C4802     1.0  0.79573  0.98112  0.66042  1.0000
  H   H3865     1.0  0.75408  0.24171  0.86730  1.0000
  H   H3866     1.0  0.75318  0.20759  0.87267  1.0000
  C   C4803     1.0  0.83686  0.13361  0.92045  1.0000
  H   H3867     1.0  0.83541  0.13650  0.90589  1.0000
  C   C4804     1.0  0.88367  0.41942  0.69554  1.0000
  C   C4805     1.0  0.89342  0.40787  0.68250  1.0000
  C   C4806     1.0  0.89313  0.38841  0.68620  1.0000
  C   C4807     1.0  0.88297  0.38029  0.70295  1.0000
  C   C4808     1.0  0.87333  0.39182  0.71601  1.0000
  C   C4809     1.0  0.87357  0.41128  0.71234  1.0000
  H   H3868     1.0  0.90145  0.41398  0.66954  1.0000
  H   H3869     1.0  0.90104  0.37960  0.67632  1.0000
  H   H3870     1.0  0.86587  0.38555  0.72917  1.0000
  H   H3871     1.0  0.86612  0.41991  0.72259  1.0000
  C   C4810     1.0  0.78878  0.21072  0.82371  1.0000
  C   C4811     1.0  0.88974  0.18924  0.94370  1.0000
  C   C4812     1.0  0.84556  0.24335  0.75274  1.0000
  C   C4813     1.0  0.78219  0.06871  0.79001  1.0000
  H   H3872     1.0  0.82058  0.44175  0.75147  1.0000
  H   H3873     1.0  0.87899  0.21479  0.87637  1.0000
  C   C4814     1.0  0.75257  0.43093  0.70928  1.0000
  H   H3874     1.0  0.87998  0.21905  0.84208  1.0000
  H   H3875     1.0  0.76165  0.04269  0.82972  1.0000
  H   H3876     1.0  0.73188  0.34935  0.63783  1.0000
  C   C4815     1.0  0.89518  0.05422  0.72023  1.0000
  C   C4816     1.0  0.90116  0.07172  0.71403  1.0000
  C   C4817     1.0  0.90655  0.08091  0.72644  1.0000
  C   C4818     1.0  0.90630  0.07258  0.74522  1.0000
  C   C4819     1.0  0.90027  0.05508  0.75144  1.0000
  C   C4820     1.0  0.89457  0.04602  0.73910  1.0000
  H   H3877     1.0  0.90178  0.07816  0.69946  1.0000
  H   H3878     1.0  0.91140  0.09419  0.72133  1.0000
  H   H3879     1.0  0.90031  0.04834  0.76584  1.0000
  H   H3880     1.0  0.89022  0.03250  0.74405  1.0000
  C   C4821     1.0  0.79917  0.00673  0.76824  1.0000
  H   H3881     1.0  0.95833  0.32520  0.66371  1.0000
  H   H3882     1.0  0.95462  0.18561  0.76185  1.0000
  C   C4822     1.0  0.95340  0.22020  0.71200  1.0000
  C   C4823     1.0  0.77428  0.00671  0.79553  1.0000
  C   C4824     1.0  0.78359  0.01622  0.77896  1.0000
  H   H3883     1.0  0.76264  0.01430  0.80385  1.0000
  H   H3884     1.0  0.77873  0.03101  0.77449  1.0000
  C   C4825     1.0  0.81855  0.00226  0.65336  1.0000
  C   C4826     1.0  0.81205  0.38004  0.63462  1.0000
  H   H3885     1.0  0.95709  0.17230  0.79444  1.0000
  C   C4827     1.0  0.76765  0.44009  0.78533  1.0000
  H   H3886     1.0  0.81447  0.32035  0.64231  1.0000
  H   H3887     1.0  0.82091  0.10604  0.96106  1.0000
  C   C4828     1.0  0.73479  0.09276  0.86499  1.0000
  C   C4829     1.0  0.97044  0.31645  0.65704  1.0000
  H   H3888     1.0  0.73698  0.36055  0.90080  1.0000
  H   H3889     1.0  0.81075  0.04247  0.77949  1.0000
  C   C4830     1.0  0.76340  0.05150  0.81606  1.0000
  C   C4831     1.0  0.93474  0.99896  0.66638  1.0000
  C   C4832     1.0  0.87216  0.17201  0.92328  1.0000
  H   H3890     1.0  0.79657  0.34395  0.66681  1.0000
  Fe  Fe338     1.0  0.86901  0.46642  0.70735  1.0000
  H   H3891     1.0  0.85288  0.44316  0.66833  1.0000
  C   C4833     1.0  0.73955  0.31309  0.91108  1.0000
  C   C4834     1.0  0.96129  0.45452  0.76571  1.0000
  C   C4835     1.0  0.77258  0.43522  0.76752  1.0000
  H   H3892     1.0  0.78780  0.02294  0.88678  1.0000
  C   C4836     1.0  0.82758  0.11993  0.93258  1.0000
  H   H3893     1.0  0.75769  0.24921  0.93074  1.0000
  C   C4837     1.0  0.78041  0.98760  0.80150  1.0000
  H   H3894     1.0  0.74963  0.02569  0.64078  1.0000
  C   C4838     1.0  0.73695  0.22279  0.80967  1.0000
  H   H3895     1.0  0.76054  0.18518  0.96031  1.0000
  C   C4839     1.0  0.74363  0.05033  0.65370  1.0000
  H   H3896     1.0  0.75653  0.17449  0.93223  1.0000
  H   H3897     1.0  0.73527  0.33378  0.88637  1.0000
  C   C4840     1.0  0.83843  0.03168  0.81312  1.0000
  C   C4841     1.0  0.75398  0.41005  0.73896  1.0000
  C   C4842     1.0  0.79613  0.97812  0.79087  1.0000
  H   H3898     1.0  0.94446  0.21984  0.75234  1.0000
  C   C4843     1.0  0.90411  0.12792  0.86925  1.0000
  H   H3899     1.0  0.91352  0.12028  0.85903  1.0000
  C   C4844     1.0  0.95333  0.03615  0.72745  1.0000
  C   C4845     1.0  0.74307  0.25412  0.92964  1.0000
  H   H3900     1.0  0.97310  0.13501  0.79821  1.0000
  H   H3901     1.0  0.90410  0.15464  0.85105  1.0000
  C   C4846     1.0  0.74023  0.21751  0.87436  1.0000
  C   C4847     1.0  0.89869  0.14734  0.86472  1.0000
  H   H3902     1.0  0.73912  0.30151  0.90440  1.0000
  H   H3903     1.0  0.73363  0.04463  0.66531  1.0000
  C   C4848     1.0  0.78258  0.03041  0.67588  1.0000
  H   H3904     1.0  0.95619  0.04877  0.71768  1.0000
  C   C4849     1.0  0.81402  0.19688  0.75095  1.0000
  C   C4850     1.0  0.81635  0.20683  0.76417  1.0000
  C   C4851     1.0  0.83361  0.20368  0.77048  1.0000
  P   P161      1.0  0.83691  0.21817  0.78597  1.0000
  C   C4852     1.0  0.81493  0.22267  0.80192  1.0000
  C   C4853     1.0  0.85564  0.20615  0.79867  1.0000
  C   C4854     1.0  0.85190  0.19669  0.81721  1.0000
  C   C4855     1.0  0.86668  0.18642  0.82617  1.0000
  C   C4856     1.0  0.88521  0.18538  0.81666  1.0000
  C   C4857     1.0  0.88911  0.19540  0.79855  1.0000
  C   C4858     1.0  0.87440  0.20583  0.78962  1.0000
  C   C4859     1.0  0.74484  0.18297  0.93978  1.0000
  C   C4860     1.0  0.84425  0.23952  0.77231  1.0000
  C   C4861     1.0  0.85789  0.27165  0.75123  1.0000
  C   C4862     1.0  0.85680  0.26787  0.77064  1.0000
  C   C4863     1.0  0.85010  0.25181  0.78116  1.0000
  H   H3905     1.0  0.80075  0.19951  0.74598  1.0000
  H   H3906     1.0  0.80480  0.21726  0.76914  1.0000
  H   H3907     1.0  0.83769  0.19661  0.82468  1.0000
  H   H3908     1.0  0.86370  0.17843  0.84014  1.0000
  H   H3909     1.0  0.89653  0.17658  0.82324  1.0000
  H   H3910     1.0  0.90351  0.19476  0.79121  1.0000
  H   H3911     1.0  0.87764  0.21318  0.77540  1.0000
  H   H3912     1.0  0.81298  0.25292  0.79736  1.0000
  H   H3913     1.0  0.86369  0.28375  0.74297  1.0000
  H   H3914     1.0  0.86163  0.27719  0.77739  1.0000
  H   H3915     1.0  0.84977  0.24882  0.79614  1.0000
  C   C4864     1.0  0.84222  0.06558  0.73303  1.0000
  C   C4865     1.0  0.82328  0.06594  0.73283  1.0000
  C   C4866     1.0  0.80949  0.07916  0.74116  1.0000
  C   C4867     1.0  0.81461  0.09177  0.75009  1.0000
  C   C4868     1.0  0.83357  0.09079  0.75127  1.0000
  C   C4869     1.0  0.84738  0.07810  0.74199  1.0000
  P   P162      1.0  0.84075  0.10691  0.76254  1.0000
  C   C4870     1.0  0.85553  0.09522  0.77963  1.0000
  C   C4871     1.0  0.85345  0.12160  0.74369  1.0000
  C   C4872     1.0  0.87312  0.11932  0.74103  1.0000
  C   C4873     1.0  0.88283  0.13097  0.72658  1.0000
  C   C4874     1.0  0.87303  0.14469  0.71443  1.0000
  C   C4875     1.0  0.85350  0.14652  0.71648  1.0000
  C   C4876     1.0  0.84372  0.13498  0.73105  1.0000
  C   C4877     1.0  0.86120  0.07563  0.78285  1.0000
  C   C4878     1.0  0.87375  0.09760  0.80259  1.0000
  C   C4879     1.0  0.86160  0.10607  0.78990  1.0000
  C   C4880     1.0  0.82146  0.12120  0.77530  1.0000
  C   C4881     1.0  0.82198  0.14016  0.77493  1.0000
  C   C4882     1.0  0.80770  0.15090  0.78580  1.0000
  C   C4883     1.0  0.79290  0.14275  0.79728  1.0000
  C   C4884     1.0  0.79239  0.12385  0.79789  1.0000
  C   C4885     1.0  0.80684  0.11301  0.78730  1.0000
  C   C4886     1.0  0.78958  0.03131  0.70602  1.0000
  C   C4887     1.0  0.89171  0.17166  0.91897  1.0000
  H   H3916     1.0  0.79487  0.07963  0.74052  1.0000
  H   H3917     1.0  0.80375  0.10230  0.75582  1.0000
  H   H3918     1.0  0.86219  0.07788  0.74165  1.0000
  H   H3919     1.0  0.88102  0.10863  0.75013  1.0000
  H   H3920     1.0  0.89800  0.12944  0.72487  1.0000
  H   H3921     1.0  0.88064  0.15388  0.70344  1.0000
  H   H3922     1.0  0.84601  0.15693  0.70679  1.0000
  H   H3923     1.0  0.82859  0.13651  0.73252  1.0000
  H   H3924     1.0  0.87889  0.10615  0.80998  1.0000
  H   H3925     1.0  0.85731  0.12117  0.78782  1.0000
  H   H3926     1.0  0.83374  0.14649  0.76680  1.0000
  C   C4888     1.0  0.84782  0.14333  0.92715  1.0000
  H   H3927     1.0  0.82856  0.05422  0.65501  1.0000
  H   H3928     1.0  0.78107  0.11746  0.80703  1.0000
  H   H3929     1.0  0.80685  0.09816  0.78881  1.0000
  H   H3930     1.0  0.74714  0.40441  0.75279  1.0000
  C   C4889     1.0  0.78408  0.22908  0.96099  1.0000
  H   H3931     1.0  0.74083  0.07642  0.66339  1.0000
  C   C4890     1.0  0.81215  0.00984  0.63627  1.0000
  C   C4891     1.0  0.80756  0.18393  0.94648  1.0000
  H   H3932     1.0  0.91552  0.17981  0.92592  1.0000
  P   P163      1.0  0.80106  0.04932  0.81908  1.0000
  H   H3933     1.0  0.95480  0.10907  0.84495  1.0000
  C   C4892     1.0  0.83393  0.43695  0.65278  1.0000
  C   C4893     1.0  0.92451  0.00775  0.68119  1.0000
  C   C4894     1.0  0.83982  0.03034  0.77552  1.0000
  C   C4895     1.0  0.79632  0.39411  0.63771  1.0000
  H   H3934     1.0  0.93355  0.45124  0.72997  1.0000
  S   S667      1.0  0.76889  0.97547  0.82238  1.0000
  H   H3935     1.0  0.84026  0.02947  0.76102  1.0000
  H   H3936     1.0  0.79691  0.03674  0.71437  1.0000
  H   H3937     1.0  0.76431  0.08900  0.63745  1.0000
  C   C4896     1.0  0.84479  0.17645  0.89716  1.0000
  C   C4897     1.0  0.79046  0.09726  0.84165  1.0000
  C   C4898     1.0  0.75780  0.45799  0.78757  1.0000
  C   C4899     1.0  0.78073  0.39013  0.65128  1.0000
  C   C4900     1.0  0.86163  0.18096  0.93802  1.0000
  S   S668      1.0  0.83805  0.47002  0.71863  1.0000
  P   P164      1.0  0.95195  0.98164  0.72487  1.0000
  H   H3938     1.0  0.77833  0.10557  0.84885  1.0000
  H   H3939     1.0  0.73417  0.05434  0.81422  1.0000
  H   H3940     1.0  0.93051  0.00293  0.65276  1.0000
  C   C4901     1.0  0.82306  0.03804  0.78608  1.0000
  C   C4902     1.0  0.80805  0.10273  0.83828  1.0000
  C   C4903     1.0  0.74107  0.00594  0.74636  1.0000
  C   C4904     1.0  0.79645  0.35805  0.65888  1.0000
  H   H3941     1.0  0.78214  0.15095  0.80610  1.0000
  H   H3942     1.0  0.97051  0.43291  0.78792  1.0000
  H   H3943     1.0  0.83406  0.06797  0.81578  1.0000
  C   C4905     1.0  0.82368  0.09203  0.82898  1.0000
  C   C4906     1.0  0.82823  0.05681  0.64014  1.0000
  C   C4907     1.0  0.97192  0.44749  0.73434  1.0000
  S   S669      1.0  0.76427  0.45567  0.63350  1.0000
  C   C4908     1.0  0.88572  0.38031  0.63980  1.0000
  C   C4909     1.0  0.74071  0.23686  0.87120  1.0000
  C   C4910     1.0  0.95528  0.01925  0.72102  1.0000
  C   C4911     1.0  0.83692  0.19436  0.90147  1.0000
  H   H3944     1.0  0.79606  0.04763  0.86021  1.0000
  C   C4912     1.0  0.86886  0.37815  0.65209  1.0000
  H   H3945     1.0  0.86871  0.01720  0.77543  1.0000
  C   C4913     1.0  0.83294  0.39434  0.75523  1.0000
  C   C4914     1.0  0.82613  0.39183  0.73982  1.0000
  C   C4915     1.0  0.81742  0.40738  0.72835  1.0000
  S   S670      1.0  0.78378  0.14179  0.93792  1.0000
  P   P165      1.0  0.80752  0.40457  0.70898  1.0000
  C   C4916     1.0  0.81759  0.41786  0.68719  1.0000
  C   C4917     1.0  0.81350  0.38061  0.70507  1.0000
  C   C4918     1.0  0.79961  0.36954  0.70709  1.0000
  C   C4919     1.0  0.80463  0.35130  0.70307  1.0000
  C   C4920     1.0  0.82343  0.34416  0.69667  1.0000
  C   C4921     1.0  0.83725  0.35515  0.69454  1.0000
  C   C4922     1.0  0.83236  0.37326  0.69879  1.0000
  C   C4923     1.0  0.81102  0.41800  0.67069  1.0000
  C   C4924     1.0  0.73842  0.98938  0.68518  1.0000
  C   C4925     1.0  0.84105  0.43629  0.66899  1.0000
  C   C4926     1.0  0.89705  0.11832  0.88678  1.0000
  C   C4927     1.0  0.83297  0.42673  0.68614  1.0000
  C   C4928     1.0  0.78233  0.41151  0.71540  1.0000
  C   C4929     1.0  0.77179  0.42494  0.70347  1.0000
  C   C4930     1.0  0.77324  0.40408  0.73320  1.0000
  H   H3946     1.0  0.84011  0.38235  0.76375  1.0000
  H   H3947     1.0  0.82800  0.37778  0.73682  1.0000
  H   H3948     1.0  0.90927  0.20839  0.82148  1.0000
  H   H3949     1.0  0.78493  0.37495  0.71151  1.0000
  H   H3950     1.0  0.79397  0.34274  0.70458  1.0000
  H   H3951     1.0  0.82738  0.33015  0.69320  1.0000
  H   H3952     1.0  0.85182  0.34962  0.68953  1.0000
  H   H3953     1.0  0.84333  0.38154  0.69707  1.0000
  H   H3954     1.0  0.79978  0.41051  0.67099  1.0000
  C   C4931     1.0  0.84946  0.13889  0.94620  1.0000
  H   H3955     1.0  0.74212  0.35515  0.93362  1.0000
  C   C4932     1.0  0.74366  0.42354  0.72702  1.0000
  H   H3956     1.0  0.83900  0.42619  0.69838  1.0000
  H   H3957     1.0  0.77828  0.43113  0.68981  1.0000
  H   H3958     1.0  0.78115  0.39384  0.74270  1.0000
  S   S671      1.0  0.84773  0.31541  0.65850  1.0000
  C   C4933     1.0  0.78078  0.37210  0.66186  1.0000
  H   H3959     1.0  0.76859  0.36894  0.67213  1.0000
  H   H3960     1.0  0.85794  0.17093  0.74408  1.0000
  H   H3961     1.0  0.77145  0.44413  0.73833  1.0000
  C   C4934     1.0  0.79604  0.03129  0.83904  1.0000
  H   H3962     1.0  0.79499  0.01118  0.82201  1.0000
  H   H3963     1.0  0.80681  0.26697  0.90390  1.0000
  C   C4935     1.0  0.82392  0.20639  0.89119  1.0000
  C   C4936     1.0  0.81872  0.20071  0.87645  1.0000
  C   C4937     1.0  0.82662  0.18303  0.87190  1.0000
  C   C4938     1.0  0.83955  0.17096  0.88219  1.0000
  C   C4939     1.0  0.84402  0.30851  0.63816  1.0000
  C   C4940     1.0  0.75189  0.97307  0.77097  1.0000
  H   H3964     1.0  0.92152  0.00951  0.71015  1.0000
  H   H3965     1.0  0.78652  0.98671  0.84885  1.0000
  H   H3966     1.0  0.81110  0.46239  0.69294  1.0000
  C   C4941     1.0  0.79353  0.01390  0.83609  1.0000
  C   C4942     1.0  0.78846  0.08111  0.83576  1.0000
  H   H3967     1.0  0.73847  0.98869  0.79296  1.0000
  S   S672      1.0  0.83250  0.46922  0.77205  1.0000
  C   C4943     1.0  0.78665  0.00324  0.86955  1.0000
  C   C4944     1.0  0.78947  0.02039  0.87262  1.0000
  H   H3968     1.0  0.83959  0.37727  0.65491  1.0000
  C   C4945     1.0  0.75221  0.06239  0.87583  1.0000
  C   C4946     1.0  0.77085  0.27939  0.93863  1.0000
  H   H3969     1.0  0.94151  0.99165  0.76263  1.0000
  H   H3970     1.0  0.76301  0.05397  0.88334  1.0000
  H   H3971     1.0  0.85296  0.05564  0.72614  1.0000
  H   H3972     1.0  0.86741  0.01797  0.80900  1.0000
  C   C4947     1.0  0.80549  0.98765  0.77420  1.0000
  C   C4948     1.0  0.74770  0.06821  0.65259  1.0000
  C   C4949     1.0  0.82587  0.31290  0.63350  1.0000
  H   H3973     1.0  0.81766  0.22004  0.89482  1.0000
  H   H3974     1.0  0.80845  0.20990  0.86863  1.0000
  H   H3975     1.0  0.73729  0.06248  0.92864  1.0000
  C   C4950     1.0  0.76954  0.00991  0.70360  1.0000
  C   C4951     1.0  0.79976  0.27029  0.91745  1.0000
  P   P166      1.0  0.74556  0.28634  0.94283  1.0000
  C   C4952     1.0  0.85584  0.02331  0.78368  1.0000
  C   C4953     1.0  0.81886  0.42790  0.65365  1.0000
  C   C4954     1.0  0.78939  0.24407  0.81696  1.0000
  H   H3976     1.0  0.97180  0.23906  0.71168  1.0000
  C   C4955     1.0  0.94727  0.03694  0.74645  1.0000
  H   H3977     1.0  0.83728  0.09636  0.82634  1.0000
  C   C4956     1.0  0.96141  0.13349  0.85208  1.0000
  H   H3978     1.0  0.90128  0.10326  0.89025  1.0000
  H   H3979     1.0  0.89849  0.37933  0.64522  1.0000
  H   H3980     1.0  0.79256  0.23145  0.94721  1.0000
  H   H3981     1.0  0.77823  0.01201  0.72926  1.0000
  H   H3982     1.0  0.96231  0.17277  0.72520  1.0000
  C   C4957     1.0  0.73759  0.33132  0.90073  1.0000
  H   H3983     1.0  0.89650  0.19574  0.95173  1.0000
  C   C4958     1.0  0.87035  0.18954  0.94814  1.0000
  C   C4959     1.0  0.79416  0.03441  0.85744  1.0000
  C   C4960     1.0  0.94189  0.13467  0.82930  1.0000
  C   C4961     1.0  0.85246  0.37890  0.64510  1.0000
  C   C4962     1.0  0.95579  0.97992  0.68678  1.0000
  C   C4963     1.0  0.81203  0.36201  0.64534  1.0000
  C   C4964     1.0  0.94924  0.16360  0.83438  1.0000
  C   C4965     1.0  0.93969  0.15426  0.82562  1.0000
  P   P167      1.0  0.94686  0.18896  0.82922  1.0000
  C   C4966     1.0  0.92535  0.19753  0.84392  1.0000
  C   C4967     1.0  0.96619  0.19687  0.83505  1.0000
  C   C4968     1.0  0.96326  0.21398  0.84154  1.0000
  C   C4969     1.0  0.81026  0.26997  0.93120  1.0000
  H   H3984     1.0  0.78038  0.42139  0.76577  1.0000
  C   C4970     1.0  0.82236  0.03926  0.80488  1.0000
  H   H3985     1.0  0.80953  0.11532  0.84278  1.0000
  C   C4971     1.0  0.90914  0.20631  0.83636  1.0000
  C   C4972     1.0  0.89246  0.21239  0.84804  1.0000
  C   C4973     1.0  0.89189  0.20995  0.86734  1.0000
  C   C4974     1.0  0.90799  0.20131  0.87496  1.0000
  C   C4975     1.0  0.92461  0.19493  0.86334  1.0000
  C   C4976     1.0  0.94649  0.19862  0.80472  1.0000
  C   C4977     1.0  0.95180  0.18710  0.79099  1.0000
  C   C4978     1.0  0.95070  0.19471  0.77227  1.0000
  C   C4979     1.0  0.94507  0.21397  0.76692  1.0000
  C   C4980     1.0  0.94051  0.22569  0.78031  1.0000
  C   C4981     1.0  0.94132  0.21808  0.79913  1.0000
  H   H3986     1.0  0.93507  0.12752  0.82194  1.0000
  C   C4982     1.0  0.73373  0.27156  0.93432  1.0000
  H   H3987     1.0  0.76756  0.08440  0.76779  1.0000
  C   C4983     1.0  0.96161  0.45985  0.74634  1.0000
  H   H3988     1.0  0.93076  0.16199  0.81570  1.0000
  H   H3989     1.0  0.94953  0.22279  0.84279  1.0000
  C   C4984     1.0  0.95293  0.12427  0.84234  1.0000
  H   H3990     1.0  0.87259  0.29522  0.63010  1.0000
  H   H3991     1.0  0.80837  0.16542  0.78573  1.0000
  C   C4985     1.0  0.75256  0.03969  0.63985  1.0000
  C   C4986     1.0  0.73638  0.99311  0.70340  1.0000
  C   C4987     1.0  0.80652  0.24098  0.80470  1.0000
  C   C4988     1.0  0.93214  0.46272  0.71832  1.0000
  H   H3992     1.0  0.76539  0.01077  0.67528  1.0000
  C   C4989     1.0  0.87977  0.07821  0.80530  1.0000
  H   H3993     1.0  0.82729  0.17651  0.73324  1.0000
  C   C4990     1.0  0.74874  0.08198  0.87479  1.0000
  H   H3994     1.0  0.84541  0.15729  0.87847  1.0000
  C   C4991     1.0  0.84858  0.19061  0.76315  1.0000
  C   C4992     1.0  0.85234  0.25938  0.74230  1.0000
  C   C4993     1.0  0.97094  0.43700  0.77295  1.0000
  H   H3995     1.0  0.78274  0.99248  0.88128  1.0000
  H   H3996     1.0  0.93833  0.02157  0.77374  1.0000
  H   H3997     1.0  0.87832  0.05224  0.79745  1.0000
  C   C4994     1.0  0.80412  0.07016  0.82652  1.0000
  C   C4995     1.0  0.81527  0.42535  0.73279  1.0000
  C   C4996     1.0  0.84620  0.18076  0.74989  1.0000
  C   C4997     1.0  0.83099  0.41232  0.75937  1.0000
  H   H3998     1.0  0.86226  0.18821  0.76718  1.0000
  C   C4998     1.0  0.87337  0.06722  0.79556  1.0000
  H   H3999     1.0  0.88967  0.07176  0.81467  1.0000
  C   C4999     1.0  0.77155  0.01663  0.68423  1.0000
  C   C5000     1.0  0.74918  0.06984  0.78988  1.0000
  C   C5001     1.0  0.96449  0.18724  0.72226  1.0000
  C   C5002     1.0  0.81112  0.06278  0.63364  1.0000
  H   H4000     1.0  0.75217  0.98445  0.67756  1.0000
  H   H4001     1.0  0.79731  0.97866  0.71417  1.0000
  H   H4002     1.0  0.78211  0.19891  0.83125  1.0000
  H   H4003     1.0  0.82249  0.17856  0.86056  1.0000
  S   S673      1.0  0.94522  0.30216  0.64318  1.0000
  C   C5003     1.0  0.73644  0.00545  0.76572  1.0000
  C   C5004     1.0  0.79755  0.00315  0.63134  1.0000
  C   C5005     1.0  0.95042  0.98510  0.66916  1.0000
  H   H4004     1.0  0.94547  0.05015  0.75136  1.0000
  C   C5006     1.0  0.97007  0.22453  0.71485  1.0000
  H   H4005     1.0  0.77163  0.43012  0.79740  1.0000
  H   H4006     1.0  0.93638  0.24069  0.77603  1.0000
  C   C5007     1.0  0.79305  0.15677  0.94819  1.0000
  C   C5008     1.0  0.78876  0.99998  0.85128  1.0000
  H   H4007     1.0  0.91250  0.01869  0.67896  1.0000
  C   C5009     1.0  0.78092  0.05653  0.80731  1.0000
  H   H4008     1.0  0.86860  0.37562  0.66706  1.0000
  C   C5010     1.0  0.88583  0.15715  0.87749  1.0000
  C   C5011     1.0  0.75623  0.97336  0.75165  1.0000
  C   C5012     1.0  0.78729  0.46629  0.67921  1.0000
  H   H4009     1.0  0.73709  0.01888  0.73703  1.0000
  H   H4010     1.0  0.93771  0.19823  0.71342  1.0000
  H   H4011     1.0  0.74921  0.22671  0.79992  1.0000
  H   H4012     1.0  0.85808  0.04792  0.63284  1.0000
  H   H4013     1.0  0.83804  0.03188  0.82776  1.0000
  C   C5013     1.0  0.85509  0.02379  0.80255  1.0000
  H   H4014     1.0  0.97244  0.45136  0.71934  1.0000
  H   H4015     1.0  0.94256  0.23133  0.70693  1.0000
  C   C5014     1.0  0.95062  0.20157  0.71568  1.0000
  S   S674      1.0  0.76174  0.09207  0.88658  1.0000
  H   H4016     1.0  0.74465  0.44155  0.70003  1.0000
  C   C5015     1.0  0.74765  0.05814  0.80733  1.0000
  H   H4017     1.0  0.76730  0.23133  0.83599  1.0000
  C   C5016     1.0  0.78055  0.22894  0.82649  1.0000
  H   H4018     1.0  0.79567  0.46241  0.66633  1.0000
  H   H4019     1.0  0.78293  0.25821  0.81907  1.0000
  H   H4020     1.0  0.81875  0.11286  0.92739  1.0000
  C   C5017     1.0  0.95937  0.15308  0.84832  1.0000
  C   C5018     1.0  0.76644  0.07519  0.78124  1.0000
  C   C5019     1.0  0.78916  0.98882  0.64348  1.0000
  Fe  Fe339     1.0  0.86917  0.97746  0.71582  1.0000
  H   H4021     1.0  0.82404  0.35095  0.64304  1.0000
  C   C5020     1.0  0.81029  0.98780  0.66535  1.0000
  C   C5021     1.0  0.73349  0.24276  0.92345  1.0000
  H   H4022     1.0  0.74471  0.03295  0.91624  1.0000
  H   H4023     1.0  0.81930  0.05611  0.72602  1.0000
  C   C5022     1.0  0.74198  0.30994  0.92982  1.0000
  H   H4024     1.0  0.84056  0.19914  0.91281  1.0000
  C   C5023     1.0  0.90042  0.18028  0.92914  1.0000
  C   C5024     1.0  0.79163  0.03771  0.68676  1.0000
  H   H4025     1.0  0.81040  0.45982  0.80840  1.0000
  S   S675      1.0  0.83852  0.98353  0.71239  1.0000
  C   C5025     1.0  0.82879  0.11607  0.95157  1.0000
  H   H4026     1.0  0.82546  0.26623  0.92841  1.0000
  H   H4027     1.0  0.88071  0.46467  0.65407  1.0000
  C   C5026     1.0  0.83975  0.12553  0.95837  1.0000
  C   C5027     1.0  0.74707  0.18919  0.95561  1.0000
  C   C5028     1.0  0.94520  0.98823  0.70194  1.0000
  H   H4028     1.0  0.96983  0.12544  0.86235  1.0000
  C   C5029     1.0  0.74187  0.98903  0.77798  1.0000
  H   H4029     1.0  0.84669  0.18085  0.94207  1.0000
  H   H4030     1.0  0.90035  0.16456  0.90799  1.0000
  C   C5030     1.0  0.88425  0.12808  0.89966  1.0000
  H   H4031     1.0  0.80936  0.27498  0.95898  1.0000
  C   C5031     1.0  0.94498  0.00390  0.75266  1.0000
  H   H4032     1.0  0.77224  0.27587  0.91007  1.0000
  H   H4033     1.0  0.80070  0.04790  0.68021  1.0000
  C   C5032     1.0  0.96786  0.30353  0.64686  1.0000
  C   C5033     1.0  0.74144  0.05355  0.86778  1.0000
  C   C5034     1.0  0.74133  0.34338  0.92739  1.0000
  C   C5035     1.0  0.92965  0.00241  0.69890  1.0000
  H   H4034     1.0  0.91112  0.98170  0.72932  1.0000
  Fe  Fe340     1.0  0.73959  0.98921  0.83388  1.0000
  H   H4035     1.0  0.74587  0.32300  0.95199  1.0000
  H   H4036     1.0  0.74078  0.22947  0.91950  1.0000
  C   C5036     1.0  0.73716  0.09810  0.93605  1.0000
  C   C5037     1.0  0.80118  0.27486  0.94845  1.0000
  C   C5038     1.0  0.94318  0.02081  0.75905  1.0000
  C   C5039     1.0  0.75081  0.98981  0.73915  1.0000
  C   C5040     1.0  0.77877  0.01734  0.71443  1.0000
  H   H4037     1.0  0.76841  0.40094  0.65307  1.0000
  C   C5041     1.0  0.75034  0.10049  0.94605  1.0000
  H   H4038     1.0  0.81755  0.98027  0.76601  1.0000
  C   C5042     1.0  0.92317  0.46083  0.70414  1.0000
  C   C5043     1.0  0.78015  0.27521  0.92105  1.0000
  C   C5044     1.0  0.76775  0.44829  0.75193  1.0000
  C   C5045     1.0  0.78158  0.27975  0.95210  1.0000
  H   H4039     1.0  0.91793  0.44799  0.70480  1.0000
  H   H4040     1.0  0.73594  0.43596  0.66069  1.0000
  H   H4041     1.0  0.95838  0.97827  0.65767  1.0000
  H   H4042     1.0  0.74022  0.10068  0.92091  1.0000
  C   C5046     1.0  0.79594  0.46602  0.69432  1.0000
  H   H4043     1.0  0.95986  0.01898  0.70620  1.0000
  S   S676      1.0  0.77035  0.98009  0.63841  1.0000
  H   H4044     1.0  0.75188  0.19625  0.82185  1.0000
  H   H4045     1.0  0.96595  0.15988  0.85618  1.0000
  C   C5047     1.0  0.73101  0.04166  0.91582  1.0000
  C   C5048     1.0  0.91676  0.97125  0.74020  1.0000
  C   C5049     1.0  0.75837  0.46652  0.75400  1.0000
  H   H4046     1.0  0.85814  0.14561  0.95187  1.0000
  H   H4047     1.0  0.73226  0.10786  0.86374  1.0000
  H   H4048     1.0  0.97584  0.23305  0.85152  1.0000
  H   H4049     1.0  0.95354  0.46376  0.77529  1.0000
  H   H4050     1.0  0.75404  0.46184  0.80137  1.0000
  C   C5050     1.0  0.97813  0.21988  0.84649  1.0000
  Fe  Fe341     1.0  0.87660  0.72023  0.98416  1.0000
  S   S677      1.0  0.87677  0.69252  0.00451  1.0000
  Fe  Fe342     1.0  0.84013  0.73841  0.00674  1.0000
  S   S678      1.0  0.83843  0.71219  0.02766  1.0000
  S   S679      1.0  0.81707  0.76163  0.01573  1.0000
  Fe  Fe343     1.0  0.86916  0.71057  0.02724  1.0000
  S   S680      1.0  0.87655  0.70604  0.05669  1.0000
  Fe  Fe344     1.0  0.84548  0.69692  0.00321  1.0000
  S   S681      1.0  0.82246  0.67883  0.00669  1.0000
  S   S682      1.0  0.87054  0.73759  0.00726  1.0000
  H   H4051     1.0  0.85252  0.87674  0.01177  1.0000
  C   C5051     1.0  0.74527  0.87926  0.04188  1.0000
  H   H4052     1.0  0.94328  0.59854  0.16144  1.0000
  P   P168      1.0  0.84650  0.81273  0.00683  1.0000
  C   C5052     1.0  0.74127  0.57248  0.24030  1.0000
  C   C5053     1.0  0.76993  0.50238  0.02343  1.0000
  H   H4053     1.0  0.77393  0.53911  0.21125  1.0000
  S   S683      1.0  0.75900  0.58303  0.98434  1.0000
  H   H4054     1.0  0.74608  0.57195  0.02835  1.0000
  S   S684      1.0  0.79326  0.56163  0.26998  1.0000
  C   C5054     1.0  0.83679  0.77739  0.10863  1.0000
  H   H4055     1.0  0.87374  0.80934  0.10361  1.0000
  C   C5055     1.0  0.84195  0.68743  0.25953  1.0000
  C   C5056     1.0  0.74977  0.88441  0.07222  1.0000
  C   C5057     1.0  0.77539  0.81983  0.12575  1.0000
  H   H4056     1.0  0.77928  0.94206  0.26014  1.0000
  S   S685      1.0  0.88719  0.71088  0.27029  1.0000
  Fe  Fe345     1.0  0.91618  0.75721  0.12374  1.0000
  S   S686      1.0  0.89474  0.74510  0.14656  1.0000
  S   S687      1.0  0.91907  0.75294  0.09336  1.0000
  Fe  Fe346     1.0  0.92935  0.77745  0.15028  1.0000
  S   S688      1.0  0.90786  0.76718  0.17442  1.0000
  S   S689      1.0  0.94577  0.79607  0.15946  1.0000
  Fe  Fe347     1.0  0.91676  0.73948  0.16484  1.0000
  S   S690      1.0  0.92317  0.71208  0.18476  1.0000
  Fe  Fe348     1.0  0.88766  0.77382  0.15431  1.0000
  S   S691      1.0  0.85677  0.78438  0.16366  1.0000
  S   S692      1.0  0.93928  0.74922  0.14145  1.0000
  S   S693      1.0  0.90809  0.78658  0.13063  1.0000
  Fe  Fe349     1.0  0.76020  0.89514  0.11566  1.0000
  S   S694      1.0  0.76821  0.86831  0.13527  1.0000
  H   H4057     1.0  0.85566  0.96376  0.15743  1.0000
  Fe  Fe350     1.0  0.76920  0.91944  0.14145  1.0000
  S   S695      1.0  0.77831  0.89438  0.16245  1.0000
  S   S696      1.0  0.76922  0.95011  0.14223  1.0000
  Fe  Fe351     1.0  0.79278  0.88070  0.13757  1.0000
  S   S697      1.0  0.82341  0.86794  0.13070  1.0000
  Fe  Fe352     1.0  0.75287  0.88415  0.15873  1.0000
  S   S698      1.0  0.78568  0.90667  0.11688  1.0000
  C   C5058     1.0  0.83571  0.67411  0.27487  1.0000
  C   C5059     1.0  0.74303  0.88431  0.23049  1.0000
  C   C5060     1.0  0.74145  0.70619  0.96642  1.0000
  C   C5061     1.0  0.74376  0.86739  0.08065  1.0000
  C   C5062     1.0  0.86866  0.78095  0.10861  1.0000
  P   P169      1.0  0.73145  0.49705  0.08134  1.0000
  C   C5063     1.0  0.84756  0.80762  0.15443  1.0000
  C   C5064     1.0  0.82832  0.81448  0.15938  1.0000
  C   C5065     1.0  0.82060  0.83293  0.15206  1.0000
  C   C5066     1.0  0.83224  0.84467  0.14002  1.0000
  C   C5067     1.0  0.85150  0.83789  0.13526  1.0000
  C   C5068     1.0  0.85914  0.81942  0.14242  1.0000
  H   H4058     1.0  0.81940  0.80550  0.16895  1.0000
  H   H4059     1.0  0.80572  0.83808  0.15581  1.0000
  H   H4060     1.0  0.86057  0.84700  0.12608  1.0000
  H   H4061     1.0  0.87402  0.81439  0.13879  1.0000
  C   C5069     1.0  0.78217  0.95801  0.15582  1.0000
  C   C5070     1.0  0.79104  0.94586  0.16977  1.0000
  H   H4062     1.0  0.78946  0.93128  0.17294  1.0000
  H   H4063     1.0  0.84192  0.72233  0.28317  1.0000
  C   C5071     1.0  0.89805  0.71087  0.24684  1.0000
  C   C5072     1.0  0.90886  0.69470  0.24069  1.0000
  C   C5073     1.0  0.91697  0.69529  0.22168  1.0000
  C   C5074     1.0  0.91392  0.71193  0.20872  1.0000
  C   C5075     1.0  0.90319  0.72804  0.21499  1.0000
  C   C5076     1.0  0.89537  0.72755  0.23396  1.0000
  H   H4064     1.0  0.91076  0.68174  0.25053  1.0000
  H   H4065     1.0  0.92541  0.68280  0.21699  1.0000
  H   H4066     1.0  0.90065  0.74090  0.20529  1.0000
  H   H4067     1.0  0.88700  0.74012  0.23862  1.0000
  C   C5077     1.0  0.85533  0.76943  0.11066  1.0000
  P   P170      1.0  0.84755  0.68175  0.23622  1.0000
  C   C5078     1.0  0.79261  0.78188  0.96977  1.0000
  H   H4068     1.0  0.76872  0.58028  0.23335  1.0000
  H   H4069     1.0  0.74424  0.66191  0.07719  1.0000
  H   H4070     1.0  0.78090  0.60053  0.00471  1.0000
  C   C5079     1.0  0.79235  0.60509  0.02743  1.0000
  S   S699      1.0  0.73835  0.57237  0.26465  1.0000
  C   C5080     1.0  0.82088  0.64138  0.97336  1.0000
  H   H4071     1.0  0.94272  0.76471  0.25471  1.0000
  H   H4072     1.0  0.81636  0.76084  0.97678  1.0000
  H   H4073     1.0  0.75300  0.52549  0.98127  1.0000
  C   C5081     1.0  0.84534  0.70291  0.21880  1.0000
  C   C5082     1.0  0.79031  0.82143  0.02919  1.0000
  H   H4074     1.0  0.75633  0.88600  0.20145  1.0000
  H   H4075     1.0  0.77461  0.47219  0.02770  1.0000
  C   C5083     1.0  0.86343  0.80044  0.10477  1.0000
  H   H4076     1.0  0.77146  0.58115  0.19920  1.0000
  H   H4077     1.0  0.75053  0.47302  0.96566  1.0000
  H   H4078     1.0  0.80819  0.94328  0.19082  1.0000
  H   H4079     1.0  0.85943  0.75432  0.11382  1.0000
  C   C5084     1.0  0.80157  0.95271  0.17990  1.0000
  H   H4080     1.0  0.88027  0.89769  0.22429  1.0000
  H   H4081     1.0  0.79985  0.61103  0.05173  1.0000
  C   C5085     1.0  0.85340  0.62717  0.29188  1.0000
  H   H4082     1.0  0.79299  0.51753  0.26361  1.0000
  H   H4083     1.0  0.77077  0.82910  0.11356  1.0000
  H   H4084     1.0  0.79502  0.73117  0.02513  1.0000
  C   C5086     1.0  0.88731  0.72041  0.06649  1.0000
  C   C5087     1.0  0.89946  0.73224  0.05544  1.0000
  C   C5088     1.0  0.90894  0.74210  0.06390  1.0000
  C   C5089     1.0  0.90619  0.74059  0.08350  1.0000
  C   C5090     1.0  0.89370  0.72910  0.09455  1.0000
  C   C5091     1.0  0.88446  0.71900  0.08608  1.0000
  H   H4085     1.0  0.90192  0.73346  0.04037  1.0000
  H   H4086     1.0  0.91853  0.75094  0.05518  1.0000
  H   H4087     1.0  0.89140  0.72772  0.10962  1.0000
  H   H4088     1.0  0.87509  0.70993  0.09475  1.0000
  C   C5092     1.0  0.81514  0.66318  0.99531  1.0000
  C   C5093     1.0  0.79664  0.65932  0.00086  1.0000
  C   C5094     1.0  0.79030  0.64660  0.99276  1.0000
  C   C5095     1.0  0.80249  0.63730  0.97910  1.0000
  C   C5096     1.0  0.82712  0.65433  0.98126  1.0000
  H   H4089     1.0  0.78714  0.66624  0.01151  1.0000
  H   H4090     1.0  0.77609  0.64380  0.99726  1.0000
  C   C5097     1.0  0.80166  0.77369  0.00044  1.0000
  C   C5098     1.0  0.80464  0.77102  0.98187  1.0000
  C   C5099     1.0  0.79075  0.95207  0.09033  1.0000
  C   C5100     1.0  0.77770  0.79543  0.97625  1.0000
  C   C5101     1.0  0.77445  0.79766  0.99495  1.0000
  C   C5102     1.0  0.78634  0.78668  0.00703  1.0000
  H   H4091     1.0  0.76300  0.80807  0.00004  1.0000
  H   H4092     1.0  0.78381  0.78845  0.02148  1.0000
  C   C5103     1.0  0.82238  0.96848  0.07316  1.0000
  C   C5104     1.0  0.94340  0.75895  0.24226  1.0000
  C   C5105     1.0  0.93789  0.77089  0.22633  1.0000
  C   C5106     1.0  0.93854  0.76370  0.21019  1.0000
  C   C5107     1.0  0.94430  0.74448  0.21010  1.0000
  C   C5108     1.0  0.94978  0.73248  0.22603  1.0000
  H   H4093     1.0  0.76779  0.84089  0.01773  1.0000
  H   H4094     1.0  0.93314  0.78576  0.22642  1.0000
  H   H4095     1.0  0.93449  0.77301  0.19776  1.0000
  H   H4096     1.0  0.94429  0.73889  0.19770  1.0000
  H   H4097     1.0  0.77333  0.51932  0.18984  1.0000
  C   C5109     1.0  0.78541  0.72450  0.02055  1.0000
  H   H4098     1.0  0.84092  0.74945  0.18256  1.0000
  H   H4099     1.0  0.93501  0.66423  0.26876  1.0000
  C   C5110     1.0  0.85832  0.73019  0.20061  1.0000
  H   H4100     1.0  0.77518  0.71078  0.04825  1.0000
  H   H4101     1.0  0.75415  0.88925  0.23453  1.0000
  C   C5111     1.0  0.75066  0.89015  0.05275  1.0000
  C   C5112     1.0  0.79591  0.50219  0.17405  1.0000
  C   C5113     1.0  0.78550  0.51921  0.17879  1.0000
  C   C5114     1.0  0.79084  0.53627  0.16942  1.0000
  C   C5115     1.0  0.80677  0.53648  0.15543  1.0000
  C   C5116     1.0  0.81752  0.51958  0.15096  1.0000
  H   H4102     1.0  0.96138  0.71338  0.16295  1.0000
  H   H4103     1.0  0.87238  0.76688  0.07154  1.0000
  C   C5117     1.0  0.79939  0.79297  0.08834  1.0000
  C   C5118     1.0  0.94427  0.69074  0.26518  1.0000
  C   C5119     1.0  0.75226  0.93923  0.25492  1.0000
  H   H4104     1.0  0.76140  0.81056  0.17296  1.0000
  H   H4105     1.0  0.80686  0.68456  0.24734  1.0000
  C   C5120     1.0  0.84093  0.79738  0.97717  1.0000
  H   H4106     1.0  0.78273  0.54936  0.17319  1.0000
  H   H4107     1.0  0.81094  0.54974  0.14831  1.0000
  H   H4108     1.0  0.78506  0.52450  0.96360  1.0000
  C   C5121     1.0  0.77421  0.71301  0.03355  1.0000
  C   C5122     1.0  0.80602  0.77341  0.06434  1.0000
  Fe  Fe353     1.0  0.76251  0.57058  0.28025  1.0000
  H   H4109     1.0  0.75645  0.50538  0.17335  1.0000
  C   C5123     1.0  0.74030  0.63292  0.08199  1.0000
  H   H4110     1.0  0.76273  0.53223  0.02316  1.0000
  H   H4111     1.0  0.75385  0.69483  0.03754  1.0000
  C   C5124     1.0  0.96076  0.67746  0.12791  1.0000
  C   C5125     1.0  0.74435  0.88238  0.21173  1.0000
  C   C5126     1.0  0.73210  0.48196  0.25879  1.0000
  Fe  Fe354     1.0  0.73049  0.59973  0.99315  1.0000
  S   S700      1.0  0.74727  0.57357  0.17709  1.0000
  C   C5127     1.0  0.83159  0.67821  0.29299  1.0000
  C   C5128     1.0  0.73861  0.86258  0.05041  1.0000
  C   C5129     1.0  0.86049  0.80646  0.04043  1.0000
  H   H4112     1.0  0.92026  0.62152  0.17838  1.0000
  C   C5130     1.0  0.78833  0.61030  0.04508  1.0000
  S   S701      1.0  0.76723  0.59427  0.29256  1.0000
  H   H4113     1.0  0.75987  0.62123  0.11623  1.0000
  C   C5131     1.0  0.73816  0.85661  0.06980  1.0000
  H   H4114     1.0  0.86586  0.63349  0.28677  1.0000
  S   S702      1.0  0.89864  0.65563  0.29135  1.0000
  C   C5132     1.0  0.97180  0.73557  0.99014  1.0000
  C   C5133     1.0  0.81875  0.95329  0.06671  1.0000
  C   C5134     1.0  0.95263  0.73785  0.98950  1.0000
  H   H4115     1.0  0.95794  0.60839  0.12848  1.0000
  S   S703      1.0  0.74282  0.91012  0.13881  1.0000
  H   H4116     1.0  0.91516  0.56109  0.28367  1.0000
  H   H4117     1.0  0.79546  0.67610  0.04003  1.0000
  C   C5135     1.0  0.76958  0.61495  0.05384  1.0000
  H   H4118     1.0  0.77325  0.65395  0.04569  1.0000
  H   H4119     1.0  0.74775  0.60891  0.01985  1.0000
  H   H4120     1.0  0.87244  0.70902  0.21998  1.0000
  C   C5136     1.0  0.76456  0.48062  0.19352  1.0000
  H   H4121     1.0  0.73142  0.60575  0.08876  1.0000
  C   C5137     1.0  0.86115  0.57314  0.25613  1.0000
  S   S704      1.0  0.73205  0.87175  0.18313  1.0000
  C   C5138     1.0  0.80130  0.47521  0.20691  1.0000
  H   H4122     1.0  0.75226  0.69947  0.00394  1.0000
  C   C5139     1.0  0.74947  0.49899  0.97533  1.0000
  H   H4123     1.0  0.82981  0.47985  0.28428  1.0000
  C   C5140     1.0  0.76771  0.51144  0.10892  1.0000
  H   H4124     1.0  0.79353  0.47900  0.25307  1.0000
  C   C5141     1.0  0.78007  0.79323  0.08962  1.0000
  H   H4125     1.0  0.76360  0.50504  0.27637  1.0000
  C   C5142     1.0  0.82911  0.70925  0.21061  1.0000
  C   C5143     1.0  0.87140  0.66918  0.23206  1.0000
  C   C5144     1.0  0.87993  0.65850  0.24701  1.0000
  C   C5145     1.0  0.89814  0.64826  0.24364  1.0000
  C   C5146     1.0  0.90805  0.64884  0.22535  1.0000
  C   C5147     1.0  0.89968  0.65950  0.21038  1.0000
  C   C5148     1.0  0.88135  0.66947  0.21368  1.0000
  C   C5149     1.0  0.82592  0.63681  0.23058  1.0000
  C   C5150     1.0  0.84401  0.70492  0.26267  1.0000
  H   H4126     1.0  0.81496  0.73087  0.19135  1.0000
  H   H4127     1.0  0.81762  0.70145  0.21425  1.0000
  H   H4128     1.0  0.87264  0.65816  0.26128  1.0000
  H   H4129     1.0  0.90467  0.64011  0.25527  1.0000
  H   H4130     1.0  0.92233  0.64129  0.22283  1.0000
  H   H4131     1.0  0.90751  0.66034  0.19625  1.0000
  H   H4132     1.0  0.87502  0.67750  0.20191  1.0000
  H   H4133     1.0  0.76977  0.80111  0.09904  1.0000
  H   H4134     1.0  0.84942  0.71525  0.25131  1.0000
  H   H4135     1.0  0.78846  0.85308  0.98886  1.0000
  C   C5151     1.0  0.80330  0.65302  0.08309  1.0000
  C   C5152     1.0  0.80481  0.66605  0.06645  1.0000
  H   H4136     1.0  0.75558  0.75540  0.99016  1.0000
  C   C5153     1.0  0.81513  0.47882  0.28921  1.0000
  H   H4137     1.0  0.97645  0.73279  0.00354  1.0000
  C   C5154     1.0  0.79097  0.64016  0.08633  1.0000
  C   C5155     1.0  0.97034  0.79387  0.15929  1.0000
  C   C5156     1.0  0.81371  0.83527  0.99668  1.0000
  C   C5157     1.0  0.73199  0.56711  0.07575  1.0000
  C   C5158     1.0  0.97537  0.68751  0.12604  1.0000
  C   C5159     1.0  0.75743  0.57705  0.22797  1.0000
  S   S705      1.0  0.84577  0.72379  0.98207  1.0000
  H   H4138     1.0  0.88303  0.77474  0.11008  1.0000
  C   C5160     1.0  0.93822  0.72845  0.28268  1.0000
  C   C5161     1.0  0.81224  0.50247  0.16036  1.0000
  H   H4139     1.0  0.80681  0.60194  0.02047  1.0000
  H   H4140     1.0  0.74299  0.86277  0.09557  1.0000
  C   C5162     1.0  0.76761  0.59231  0.12818  1.0000
  C   C5163     1.0  0.77353  0.57394  0.12479  1.0000
  C   C5164     1.0  0.77750  0.57048  0.10644  1.0000
  C   C5165     1.0  0.77550  0.58536  0.09144  1.0000
  H   H4141     1.0  0.81203  0.65264  0.09328  1.0000
  H   H4142     1.0  0.81476  0.67566  0.06363  1.0000
  C   C5166     1.0  0.85850  0.86483  0.00476  1.0000
  S   S706      1.0  0.75519  0.89963  0.08535  1.0000
  H   H4143     1.0  0.79059  0.62987  0.09903  1.0000
  C   C5167     1.0  0.77779  0.51289  0.96464  1.0000
  C   C5168     1.0  0.87483  0.86535  0.99129  1.0000
  H   H4144     1.0  0.95376  0.71761  0.22575  1.0000
  C   C5169     1.0  0.84991  0.84891  0.00929  1.0000
  C   C5170     1.0  0.76223  0.70405  0.02750  1.0000
  H   H4145     1.0  0.82261  0.84076  0.98401  1.0000
  H   H4146     1.0  0.76412  0.59493  0.14244  1.0000
  H   H4147     1.0  0.77445  0.56239  0.13646  1.0000
  H   H4148     1.0  0.78138  0.55619  0.10385  1.0000
  H   H4149     1.0  0.77794  0.58221  0.07744  1.0000
  C   C5171     1.0  0.88767  0.70066  0.16389  1.0000
  C   C5172     1.0  0.87040  0.70294  0.15806  1.0000
  C   C5173     1.0  0.86950  0.69662  0.14184  1.0000
  C   C5174     1.0  0.88587  0.68795  0.13147  1.0000
  C   C5175     1.0  0.90334  0.68586  0.13710  1.0000
  C   C5176     1.0  0.90411  0.69232  0.15337  1.0000
  P   P171      1.0  0.92453  0.67392  0.12445  1.0000
  C   C5177     1.0  0.94335  0.68670  0.12297  1.0000
  C   C5178     1.0  0.93025  0.65005  0.13636  1.0000
  C   C5179     1.0  0.83967  0.70904  0.28081  1.0000
  C   C5180     1.0  0.75537  0.74482  0.96503  1.0000
  C   C5181     1.0  0.73254  0.49334  0.18829  1.0000
  H   H4150     1.0  0.74454  0.52678  0.22367  1.0000
  C   C5182     1.0  0.92197  0.64436  0.15500  1.0000
  P   P172      1.0  0.78961  0.48014  0.18690  1.0000
  C   C5183     1.0  0.74404  0.49761  0.13238  1.0000
  C   C5184     1.0  0.74953  0.96560  0.28030  1.0000
  C   C5185     1.0  0.95551  0.71603  0.11418  1.0000
  C   C5186     1.0  0.94069  0.70617  0.11666  1.0000
  C   C5187     1.0  0.92096  0.67296  0.10126  1.0000
  C   C5188     1.0  0.91133  0.65929  0.09894  1.0000
  C   C5189     1.0  0.90795  0.65860  0.08125  1.0000
  C   C5190     1.0  0.91425  0.67147  0.06572  1.0000
  C   C5191     1.0  0.92399  0.68497  0.06784  1.0000
  C   C5192     1.0  0.92732  0.68578  0.08550  1.0000
  H   H4151     1.0  0.88844  0.70579  0.17633  1.0000
  H   H4152     1.0  0.85777  0.70979  0.16602  1.0000
  H   H4153     1.0  0.85614  0.69854  0.13719  1.0000
  H   H4154     1.0  0.88479  0.68315  0.11899  1.0000
  H   H4155     1.0  0.91743  0.69089  0.15797  1.0000
  C   C5193     1.0  0.74313  0.93379  0.24258  1.0000
  C   C5194     1.0  0.76095  0.70410  0.96577  1.0000
  Fe  Fe355     1.0  0.89357  0.68623  0.29306  1.0000
  H   H4156     1.0  0.74002  0.74928  0.02972  1.0000
  H   H4157     1.0  0.91187  0.65409  0.16265  1.0000
  C   C5195     1.0  0.84815  0.96946  0.14584  1.0000
  H   H4158     1.0  0.89526  0.85034  0.97192  1.0000
  C   C5196     1.0  0.97280  0.70676  0.11900  1.0000
  H   H4159     1.0  0.95352  0.73092  0.10847  1.0000
  H   H4160     1.0  0.92728  0.71368  0.11314  1.0000
  H   H4161     1.0  0.90608  0.64939  0.11087  1.0000
  H   H4162     1.0  0.90011  0.64838  0.07957  1.0000
  H   H4163     1.0  0.91106  0.67140  0.05211  1.0000
  H   H4164     1.0  0.92838  0.69527  0.05585  1.0000
  H   H4165     1.0  0.93452  0.69668  0.08663  1.0000
  C   C5197     1.0  0.79788  0.86031  0.19619  1.0000
  C   C5198     1.0  0.79247  0.86255  0.21490  1.0000
  C   C5199     1.0  0.80359  0.87054  0.22310  1.0000
  C   C5200     1.0  0.82020  0.87622  0.21263  1.0000
  C   C5201     1.0  0.82565  0.87417  0.19374  1.0000
  C   C5202     1.0  0.81436  0.86614  0.18564  1.0000
  P   P173      1.0  0.84705  0.88142  0.17993  1.0000
  C   C5203     1.0  0.84220  0.89401  0.15728  1.0000
  C   C5204     1.0  0.85408  0.89749  0.19145  1.0000
  C   C5205     1.0  0.84685  0.91680  0.18803  1.0000
  C   C5206     1.0  0.85172  0.92910  0.19748  1.0000
  C   C5207     1.0  0.86385  0.92223  0.21046  1.0000
  C   C5208     1.0  0.87099  0.90302  0.21410  1.0000
  C   C5209     1.0  0.86605  0.89066  0.20473  1.0000
  C   C5210     1.0  0.85595  0.89303  0.14110  1.0000
  C   C5211     1.0  0.85213  0.90339  0.12381  1.0000
  C   C5212     1.0  0.83462  0.91479  0.12256  1.0000
  C   C5213     1.0  0.82091  0.91585  0.13859  1.0000
  C   C5214     1.0  0.82465  0.90545  0.15585  1.0000
  C   C5215     1.0  0.86555  0.86129  0.17724  1.0000
  C   C5216     1.0  0.86130  0.84314  0.17987  1.0000
  C   C5217     1.0  0.87573  0.82773  0.17767  1.0000
  C   C5218     1.0  0.89447  0.83030  0.17258  1.0000
  C   C5219     1.0  0.89883  0.84829  0.16985  1.0000
  C   C5220     1.0  0.88446  0.86373  0.17219  1.0000
  H   H4166     1.0  0.78917  0.85425  0.18978  1.0000
  H   H4167     1.0  0.77961  0.85814  0.22301  1.0000
  H   H4168     1.0  0.79929  0.87231  0.23760  1.0000
  H   H4169     1.0  0.82863  0.88225  0.21934  1.0000
  H   H4170     1.0  0.81828  0.86448  0.17112  1.0000
  H   H4171     1.0  0.83728  0.92248  0.17825  1.0000
  H   H4172     1.0  0.84595  0.94398  0.19483  1.0000
  H   H4173     1.0  0.86759  0.93180  0.21777  1.0000
  H   H4174     1.0  0.87141  0.87578  0.20801  1.0000
  H   H4175     1.0  0.86948  0.88410  0.14165  1.0000
  H   H4176     1.0  0.86262  0.90223  0.11132  1.0000
  H   H4177     1.0  0.83151  0.92254  0.10914  1.0000
  H   H4178     1.0  0.80728  0.92458  0.13763  1.0000
  H   H4179     1.0  0.81385  0.90632  0.16811  1.0000
  H   H4180     1.0  0.84692  0.84073  0.18339  1.0000
  H   H4181     1.0  0.87233  0.81378  0.17957  1.0000
  H   H4182     1.0  0.90561  0.81835  0.17059  1.0000
  H   H4183     1.0  0.91340  0.85020  0.16578  1.0000
  H   H4184     1.0  0.88810  0.87759  0.16985  1.0000
  C   C5221     1.0  0.81227  0.78332  0.07528  1.0000
  P   P174      1.0  0.80748  0.80700  0.10134  1.0000
  C   C5222     1.0  0.83145  0.79700  0.10442  1.0000
  C   C5223     1.0  0.80544  0.83094  0.08894  1.0000
  C   C5224     1.0  0.80096  0.83557  0.07084  1.0000
  C   C5225     1.0  0.79742  0.85435  0.06216  1.0000
  C   C5226     1.0  0.79860  0.86861  0.07138  1.0000
  C   C5227     1.0  0.80343  0.86409  0.08922  1.0000
  C   C5228     1.0  0.80666  0.84536  0.09805  1.0000
  C   C5229     1.0  0.84489  0.80849  0.10271  1.0000
  C   C5230     1.0  0.79265  0.80740  0.12405  1.0000
  C   C5231     1.0  0.78704  0.79697  0.15778  1.0000
  C   C5232     1.0  0.79839  0.79598  0.14025  1.0000
  H   H4185     1.0  0.81607  0.76590  0.05436  1.0000
  H   H4186     1.0  0.82715  0.78366  0.07328  1.0000
  H   H4187     1.0  0.79965  0.82481  0.06361  1.0000
  H   H4188     1.0  0.79323  0.85789  0.04851  1.0000
  H   H4189     1.0  0.79532  0.88321  0.06494  1.0000
  H   H4190     1.0  0.80424  0.87513  0.09644  1.0000
  H   H4191     1.0  0.80973  0.84218  0.11215  1.0000
  H   H4192     1.0  0.84120  0.82362  0.09995  1.0000
  H   H4193     1.0  0.79174  0.78841  0.17024  1.0000
  H   H4194     1.0  0.81181  0.78664  0.13958  1.0000
  H   H4195     1.0  0.82661  0.76824  0.11035  1.0000
  C   C5233     1.0  0.97641  0.80497  0.16939  1.0000
  C   C5234     1.0  0.77234  0.71847  0.99534  1.0000
  S   S707      1.0  0.79580  0.62015  0.96910  1.0000
  H   H4196     1.0  0.80008  0.93331  0.07039  1.0000
  C   C5235     1.0  0.94971  0.73968  0.24214  1.0000
  C   C5236     1.0  0.82754  0.72594  0.19754  1.0000
  C   C5237     1.0  0.77988  0.64039  0.07297  1.0000
  C   C5238     1.0  0.76997  0.80944  0.15933  1.0000
  H   H4197     1.0  0.79339  0.73607  0.99164  1.0000
  H   H4198     1.0  0.75732  0.55641  0.05805  1.0000
  C   C5239     1.0  0.83153  0.66663  0.23525  1.0000
  C   C5240     1.0  0.79157  0.47952  0.22430  1.0000
  C   C5241     1.0  0.78681  0.77366  0.06575  1.0000
  C   C5242     1.0  0.84213  0.73642  0.19257  1.0000
  C   C5243     1.0  0.76411  0.82080  0.14331  1.0000
  C   C5244     1.0  0.97253  0.71526  0.16951  1.0000
  H   H4199     1.0  0.76630  0.50887  0.13859  1.0000
  H   H4200     1.0  0.88141  0.78784  0.99534  1.0000
  C   C5245     1.0  0.85990  0.71356  0.21370  1.0000
  S   S708      1.0  0.74614  0.85692  0.98084  1.0000
  C   C5246     1.0  0.86715  0.79504  0.05610  1.0000
  C   C5247     1.0  0.76530  0.60718  0.11327  1.0000
  H   H4201     1.0  0.85305  0.64487  0.22431  1.0000
  C   C5248     1.0  0.83825  0.64923  0.22932  1.0000
  H   H4202     1.0  0.79830  0.53451  0.23097  1.0000
  H   H4203     1.0  0.87277  0.80107  0.06541  1.0000
  C   C5249     1.0  0.86697  0.77576  0.05956  1.0000
  H   H4204     1.0  0.93035  0.69795  0.27012  1.0000
  H   H4205     1.0  0.85209  0.62062  0.26513  1.0000
  C   C5250     1.0  0.77383  0.78362  0.07835  1.0000
  C   C5251     1.0  0.77188  0.93829  0.25068  1.0000
  H   H4206     1.0  0.74613  0.88387  0.02695  1.0000
  H   H4207     1.0  0.73217  0.71877  0.96996  1.0000
  H   H4208     1.0  0.83123  0.62306  0.22680  1.0000
  C   C5252     1.0  0.81226  0.67143  0.24225  1.0000
  H   H4209     1.0  0.78111  0.81596  0.04165  1.0000
  C   C5253     1.0  0.78550  0.52875  0.23644  1.0000
  C   C5254     1.0  0.94677  0.67170  0.26416  1.0000
  H   H4210     1.0  0.86958  0.73839  0.19678  1.0000
  H   H4211     1.0  0.77679  0.48559  0.22613  1.0000
  H   H4212     1.0  0.83624  0.94469  0.14831  1.0000
  C   C5255     1.0  0.76133  0.70672  0.00845  1.0000
  C   C5256     1.0  0.79444  0.96707  0.09691  1.0000
  C   C5257     1.0  0.75891  0.57758  0.20862  1.0000
  C   C5258     1.0  0.79997  0.65899  0.24341  1.0000
  P   P175      1.0  0.95672  0.72442  0.26290  1.0000
  C   C5259     1.0  0.85376  0.79858  0.02799  1.0000
  C   C5260     1.0  0.80682  0.64164  0.23769  1.0000
  C   C5261     1.0  0.76008  0.50604  0.12770  1.0000
  H   H4213     1.0  0.74245  0.52912  0.05422  1.0000
  H   H4214     1.0  0.83014  0.51971  0.14043  1.0000
  C   C5262     1.0  0.74683  0.49876  0.05882  1.0000
  C   C5263     1.0  0.76756  0.48457  0.03357  1.0000
  C   C5264     1.0  0.85997  0.76787  0.04746  1.0000
  C   C5265     1.0  0.80958  0.81412  0.02637  1.0000
  C   C5266     1.0  0.78275  0.83548  0.01569  1.0000
  C   C5267     1.0  0.78248  0.51924  0.25484  1.0000
  C   C5268     1.0  0.85339  0.77923  0.03177  1.0000
  C   C5269     1.0  0.87722  0.77629  0.97262  1.0000
  H   H4215     1.0  0.84135  0.65710  0.97677  1.0000
  H   H4216     1.0  0.81518  0.80304  0.03676  1.0000
  H   H4217     1.0  0.85992  0.75287  0.05005  1.0000
  H   H4218     1.0  0.83734  0.84868  0.01989  1.0000
  H   H4219     1.0  0.77849  0.94576  0.09712  1.0000
  C   C5270     1.0  0.73039  0.87538  0.20644  1.0000
  H   H4220     1.0  0.77880  0.50379  0.00974  1.0000
  H   H4221     1.0  0.86100  0.82129  0.03798  1.0000
  H   H4222     1.0  0.78206  0.76635  0.05684  1.0000
  S   S709      1.0  0.81962  0.60245  0.27108  1.0000
  H   H4223     1.0  0.97276  0.78251  0.20802  1.0000
  C   C5271     1.0  0.76091  0.51838  0.03097  1.0000
  C   C5272     1.0  0.95967  0.70021  0.26015  1.0000
  C   C5273     1.0  0.82142  0.82106  0.01015  1.0000
  C   C5274     1.0  0.79442  0.84235  0.99941  1.0000
  C   C5275     1.0  0.75175  0.49425  0.18414  1.0000
  C   C5276     1.0  0.85756  0.83336  0.00031  1.0000
  H   H4224     1.0  0.75890  0.78408  0.07922  1.0000
  C   C5277     1.0  0.97744  0.69056  0.25326  1.0000
  H   H4225     1.0  0.88151  0.87768  0.98782  1.0000
  H   H4226     1.0  0.84835  0.77282  0.02238  1.0000
  S   S710      1.0  0.74004  0.55505  0.09650  1.0000
  C   C5278     1.0  0.79382  0.66638  0.05315  1.0000
  C   C5279     1.0  0.85350  0.79846  0.98863  1.0000
  C   C5280     1.0  0.74349  0.56498  0.05845  1.0000
  P   P176      1.0  0.76483  0.62314  0.07591  1.0000
  C   C5281     1.0  0.84563  0.61981  0.27970  1.0000
  H   H4227     1.0  0.89112  0.76775  0.97111  1.0000
  H   H4228     1.0  0.78521  0.66254  0.24923  1.0000
  C   C5282     1.0  0.77181  0.53117  0.22529  1.0000
  H   H4229     1.0  0.79747  0.63164  0.23931  1.0000
  C   C5283     1.0  0.87164  0.78768  0.98633  1.0000
  H   H4230     1.0  0.96318  0.66255  0.13321  1.0000
  C   C5284     1.0  0.75606  0.48274  0.05121  1.0000
  C   C5285     1.0  0.94789  0.61843  0.13589  1.0000
  H   H4231     1.0  0.74035  0.61782  0.05097  1.0000
  H   H4232     1.0  0.80688  0.69829  0.97362  1.0000
  C   C5286     1.0  0.92068  0.58710  0.28803  1.0000
  H   H4233     1.0  0.96608  0.81415  0.17751  1.0000
  C   C5287     1.0  0.84323  0.54934  0.27384  1.0000
  C   C5288     1.0  0.85253  0.54757  0.28887  1.0000
  H   H4234     1.0  0.73208  0.67263  0.01685  1.0000
  C   C5289     1.0  0.76578  0.51218  0.26206  1.0000
  C   C5290     1.0  0.74949  0.90943  0.29326  1.0000
  H   H4235     1.0  0.93422  0.58611  0.27884  1.0000
  C   C5291     1.0  0.75185  0.51462  0.25105  1.0000
  C   C5292     1.0  0.73717  0.57380  0.04163  1.0000
  C   C5293     1.0  0.87070  0.57123  0.27103  1.0000
  H   H4236     1.0  0.83974  0.56395  0.24617  1.0000
  C   C5294     1.0  0.80292  0.94511  0.07528  1.0000
  H   H4237     1.0  0.82663  0.80488  0.97899  1.0000
  C   C5295     1.0  0.74439  0.57332  0.20145  1.0000
  C   C5296     1.0  0.91943  0.73412  0.28003  1.0000
  C   C5297     1.0  0.94661  0.74146  0.97225  1.0000
  C   C5298     1.0  0.73559  0.49464  0.11828  1.0000
  H   H4238     1.0  0.83431  0.66039  0.27291  1.0000
  C   C5299     1.0  0.75021  0.75794  0.97720  1.0000
  C   C5300     1.0  0.78452  0.72721  0.00152  1.0000
  H   H4239     1.0  0.91581  0.73631  0.26622  1.0000
  H   H4240     1.0  0.78067  0.92322  0.20882  1.0000
  H   H4241     1.0  0.82824  0.94781  0.05510  1.0000
  C   C5301     1.0  0.96456  0.66204  0.25789  1.0000
  C   C5302     1.0  0.73430  0.65228  0.08163  1.0000
  H   H4242     1.0  0.86394  0.58353  0.24372  1.0000
  C   C5303     1.0  0.88257  0.84995  0.98234  1.0000
  C   C5304     1.0  0.78132  0.65373  0.05640  1.0000
  H   H4243     1.0  0.74620  0.92429  0.21638  1.0000
  H   H4244     1.0  0.96653  0.64710  0.25784  1.0000
  H   H4245     1.0  0.94979  0.64106  0.11247  1.0000
  Fe  Fe356     1.0  0.76738  0.61123  0.97056  1.0000
  C   C5305     1.0  0.75503  0.52417  0.23251  1.0000
  P   P177      1.0  0.73922  0.94682  0.27632  1.0000
  C   C5306     1.0  0.97861  0.72869  0.26727  1.0000
  C   C5307     1.0  0.75906  0.60923  0.02696  1.0000
  C   C5308     1.0  0.76950  0.60388  0.09475  1.0000
  H   H4246     1.0  0.75699  0.90672  0.27965  1.0000
  C   C5309     1.0  0.75921  0.50862  0.09477  1.0000
  C   C5310     1.0  0.75493  0.61433  0.04467  1.0000
  H   H4247     1.0  0.93176  0.74296  0.97170  1.0000
  H   H4248     1.0  0.83250  0.54096  0.27498  1.0000
  H   H4249     1.0  0.96311  0.69829  0.19574  1.0000
  C   C5311     1.0  0.97987  0.67148  0.25235  1.0000
  C   C5312     1.0  0.86654  0.55831  0.28750  1.0000
  H   H4250     1.0  0.88031  0.82229  0.97969  1.0000
  C   C5313     1.0  0.74304  0.50026  0.09935  1.0000
  C   C5314     1.0  0.77772  0.60446  0.01844  1.0000
  H   H4251     1.0  0.75101  0.83071  0.14457  1.0000
  C   C5315     1.0  0.78209  0.93262  0.23406  1.0000
  H   H4252     1.0  0.82112  0.48952  0.15717  1.0000
  C   C5316     1.0  0.74943  0.51658  0.04858  1.0000
  C   C5317     1.0  0.84747  0.56216  0.25751  1.0000
  Fe  Fe357     1.0  0.74062  0.83060  0.97422  1.0000
  C   C5318     1.0  0.77282  0.92765  0.22168  1.0000
  H   H4253     1.0  0.81815  0.95788  0.12290  1.0000
  C   C5319     1.0  0.87402  0.83399  0.98684  1.0000
  H   H4254     1.0  0.94243  0.73673  0.00236  1.0000
  C   C5320     1.0  0.75336  0.92830  0.22591  1.0000
  C   C5321     1.0  0.94322  0.63694  0.12686  1.0000
  H   H4255     1.0  0.79717  0.93222  0.23070  1.0000
  H   H4256     1.0  0.73481  0.78525  0.98161  1.0000
  S   S711      1.0  0.73957  0.62770  0.98127  1.0000
  H   H4257     1.0  0.97950  0.77369  0.14078  1.0000
  C   C5322     1.0  0.82954  0.61137  0.28638  1.0000
  C   C5323     1.0  0.93963  0.61288  0.15445  1.0000
  C   C5324     1.0  0.92668  0.62584  0.16399  1.0000
  C   C5325     1.0  0.75947  0.51341  0.97469  1.0000
  H   H4258     1.0  0.77976  0.51853  0.10528  1.0000
  H   H4259     1.0  0.75534  0.90325  0.04607  1.0000
  H   H4260     1.0  0.76499  0.51357  0.08037  1.0000
  C   C5326     1.0  0.83718  0.95873  0.14072  1.0000
  H   H4261     1.0  0.88095  0.58017  0.26972  1.0000
  Fe  Fe358     1.0  0.79810  0.58353  0.28471  1.0000
  C   C5327     1.0  0.90989  0.57295  0.29088  1.0000
  H   H4262     1.0  0.75823  0.96862  0.22197  1.0000
  C   C5328     1.0  0.82690  0.96633  0.12624  1.0000
  P   P178      1.0  0.77069  0.72271  0.97082  1.0000
  C   C5329     1.0  0.97359  0.70667  0.18800  1.0000
  H   H4263     1.0  0.76135  0.47430  0.26209  1.0000
  H   H4264     1.0  0.73141  0.90375  0.99257  1.0000
  H   H4265     1.0  0.97832  0.75593  0.24924  1.0000
  H   H4266     1.0  0.88046  0.51919  0.29491  1.0000
  H   H4267     1.0  0.73783  0.49382  0.14691  1.0000
  C   C5330     1.0  0.80100  0.47597  0.23955  1.0000
  C   C5331     1.0  0.73833  0.77492  0.97246  1.0000
  C   C5332     1.0  0.75812  0.48408  0.96574  1.0000
  H   H4268     1.0  0.73318  0.84367  0.07655  1.0000
  H   H4269     1.0  0.79170  0.47905  0.14722  1.0000
  C   C5333     1.0  0.84659  0.78592  0.96348  1.0000
  H   H4270     1.0  0.89044  0.73996  0.29318  1.0000
  H   H4271     1.0  0.83045  0.63436  0.96279  1.0000
  H   H4272     1.0  0.92251  0.61341  0.29507  1.0000
  C   C5334     1.0  0.73952  0.92737  0.29570  1.0000
  S   S712      1.0  0.73050  0.84873  0.03773  1.0000
  C   C5335     1.0  0.90492  0.73621  0.29534  1.0000
  C   C5336     1.0  0.73340  0.49908  0.45657  1.0000
  C   C5337     1.0  0.75805  0.81384  0.40066  1.0000
  C   C5338     1.0  0.73704  0.65997  0.39543  1.0000
  S   S713      1.0  0.75003  0.94761  0.56759  1.0000
  H   H4273     1.0  0.74701  0.75860  0.53720  1.0000
  H   H4274     1.0  0.74290  0.76963  0.43143  1.0000
  H   H4275     1.0  0.75658  0.88057  0.30631  1.0000
  S   S714      1.0  0.95945  0.73427  0.60902  1.0000
  C   C5339     1.0  0.78031  0.52748  0.40752  1.0000
  H   H4276     1.0  0.78261  0.67194  0.40481  1.0000
  H   H4277     1.0  0.90950  0.55949  0.55502  1.0000
  Fe  Fe359     1.0  0.96605  0.74569  0.57813  1.0000
  S   S715      1.0  0.94527  0.75793  0.55761  1.0000
  C   C5340     1.0  0.75060  0.92139  0.54567  1.0000
  Fe  Fe360     1.0  0.75381  0.60091  0.48758  1.0000
  C   C5341     1.0  0.90468  0.50106  0.30383  1.0000
  C   C5342     1.0  0.83921  0.67763  0.36202  1.0000
  Fe  Fe361     1.0  0.74598  0.49068  0.59217  1.0000
  C   C5343     1.0  0.75373  0.96574  0.29791  1.0000
  S   S716      1.0  0.74825  0.87648  0.47710  1.0000
  Fe  Fe362     1.0  0.74614  0.84623  0.49000  1.0000
  S   S717      1.0  0.76717  0.82211  0.50228  1.0000
  S   S718      1.0  0.77910  0.60521  0.46510  1.0000
  C   C5344     1.0  0.97321  0.75424  0.51449  1.0000
  Fe  Fe363     1.0  0.76190  0.60103  0.44506  1.0000
  S   S719      1.0  0.77733  0.58381  0.42261  1.0000
  Fe  Fe364     1.0  0.76578  0.63558  0.46007  1.0000
  S   S720      1.0  0.78044  0.66103  0.45061  1.0000
  Fe  Fe365     1.0  0.87897  0.72438  0.49848  1.0000
  S   S721      1.0  0.88597  0.74108  0.46959  1.0000
  S   S722      1.0  0.89501  0.71697  0.52328  1.0000
  Fe  Fe366     1.0  0.84645  0.71050  0.48734  1.0000
  S   S723      1.0  0.85091  0.72644  0.45793  1.0000
  S   S724      1.0  0.82540  0.69064  0.49978  1.0000
  Fe  Fe367     1.0  0.88179  0.71655  0.45821  1.0000
  S   S725      1.0  0.90332  0.70346  0.43556  1.0000
  Fe  Fe368     1.0  0.85451  0.74981  0.47146  1.0000
  S   S726      1.0  0.84249  0.77967  0.45952  1.0000
  S   S727      1.0  0.87713  0.69914  0.48690  1.0000
  S   S728      1.0  0.84763  0.73467  0.50101  1.0000
  Fe  Fe369     1.0  0.76923  0.57334  0.31924  1.0000
  S   S729      1.0  0.80049  0.56401  0.31201  1.0000
  H   H4278     1.0  0.83976  0.71530  0.42446  1.0000
  H   H4279     1.0  0.89770  0.73362  0.32537  1.0000
  H   H4280     1.0  0.78461  0.55227  0.60684  1.0000
  C   C5345     1.0  0.75572  0.52200  0.49868  1.0000
  Fe  Fe370     1.0  0.89354  0.67919  0.33545  1.0000
  S   S730      1.0  0.89897  0.64778  0.33685  1.0000
  S   S731      1.0  0.88225  0.69732  0.35814  1.0000
  Fe  Fe371     1.0  0.87763  0.65251  0.31796  1.0000
  S   S732      1.0  0.85356  0.63590  0.32653  1.0000
  H   H4281     1.0  0.82080  0.58828  0.46856  1.0000
  H   H4282     1.0  0.82696  0.64589  0.46127  1.0000
  H   H4283     1.0  0.85952  0.68720  0.43917  1.0000
  H   H4284     1.0  0.86945  0.60696  0.43287  1.0000
  C   C5346     1.0  0.82905  0.61769  0.31729  1.0000
  C   C5347     1.0  0.84493  0.62635  0.31070  1.0000
  H   H4285     1.0  0.74814  0.49681  0.45773  1.0000
  H   H4286     1.0  0.82250  0.61677  0.33179  1.0000
  C   C5348     1.0  0.80805  0.55906  0.61575  1.0000
  H   H4287     1.0  0.80907  0.60369  0.31050  1.0000
  H   H4288     1.0  0.79074  0.66523  0.30569  1.0000
  C   C5349     1.0  0.73590  0.68323  0.34704  1.0000
  H   H4289     1.0  0.89768  0.66154  0.43688  1.0000
  H   H4290     1.0  0.75910  0.63527  0.52307  1.0000
  C   C5350     1.0  0.83341  0.69574  0.29594  1.0000
  C   C5351     1.0  0.89774  0.70206  0.41382  1.0000
  C   C5352     1.0  0.91022  0.69061  0.40202  1.0000
  C   C5353     1.0  0.90595  0.68909  0.38476  1.0000
  C   C5354     1.0  0.88902  0.69886  0.37930  1.0000
  C   C5355     1.0  0.87676  0.71050  0.39097  1.0000
  C   C5356     1.0  0.88115  0.71222  0.40805  1.0000
  H   H4291     1.0  0.92322  0.68287  0.40625  1.0000
  H   H4292     1.0  0.91573  0.68038  0.37575  1.0000
  H   H4293     1.0  0.86370  0.71813  0.38681  1.0000
  H   H4294     1.0  0.87170  0.72138  0.41682  1.0000
  C   C5357     1.0  0.77100  0.58592  0.40039  1.0000
  C   C5358     1.0  0.78295  0.57571  0.38725  1.0000
  C   C5359     1.0  0.77784  0.57568  0.36997  1.0000
  S   S733      1.0  0.87093  0.68334  0.31816  1.0000
  H   H4295     1.0  0.79591  0.56723  0.39080  1.0000
  H   H4296     1.0  0.78692  0.56730  0.36022  1.0000
  C   C5360     1.0  0.79218  0.66928  0.46496  1.0000
  C   C5361     1.0  0.79301  0.66069  0.48351  1.0000
  C   C5362     1.0  0.80318  0.66742  0.49410  1.0000
  C   C5363     1.0  0.81271  0.68261  0.48615  1.0000
  C   C5364     1.0  0.81157  0.69132  0.46772  1.0000
  C   C5365     1.0  0.80115  0.68482  0.45730  1.0000
  H   H4297     1.0  0.78603  0.64878  0.48964  1.0000
  H   H4298     1.0  0.80387  0.66070  0.50843  1.0000
  H   H4299     1.0  0.81875  0.70305  0.46152  1.0000
  H   H4300     1.0  0.80019  0.69171  0.44315  1.0000
  C   C5366     1.0  0.78816  0.81083  0.48999  1.0000
  C   C5367     1.0  0.79488  0.81733  0.47117  1.0000
  C   C5368     1.0  0.81175  0.80782  0.46205  1.0000
  C   C5369     1.0  0.82167  0.79153  0.47152  1.0000
  C   C5370     1.0  0.81497  0.78512  0.49033  1.0000
  C   C5371     1.0  0.79844  0.79489  0.49959  1.0000
  H   H4301     1.0  0.78720  0.82975  0.46375  1.0000
  H   H4302     1.0  0.81702  0.81299  0.44754  1.0000
  H   H4303     1.0  0.82255  0.77268  0.49777  1.0000
  H   H4304     1.0  0.79340  0.78991  0.51419  1.0000
  C   C5372     1.0  0.74125  0.53040  0.55316  1.0000
  C   C5373     1.0  0.75515  0.53842  0.55732  1.0000
  C   C5374     1.0  0.75215  0.56373  0.53015  1.0000
  S   S734      1.0  0.75198  0.50041  0.61692  1.0000
  H   H4305     1.0  0.74270  0.88394  0.60965  1.0000
  C   C5375     1.0  0.74747  0.70456  0.47137  1.0000
  H   H4306     1.0  0.83338  0.56201  0.62389  1.0000
  C   C5376     1.0  0.93200  0.74600  0.54778  1.0000
  C   C5377     1.0  0.92929  0.72755  0.55520  1.0000
  C   C5378     1.0  0.91788  0.71903  0.54756  1.0000
  C   C5379     1.0  0.90923  0.72865  0.53222  1.0000
  C   C5380     1.0  0.91234  0.74693  0.52444  1.0000
  C   C5381     1.0  0.92346  0.75559  0.53234  1.0000
  H   H4307     1.0  0.93568  0.71998  0.56709  1.0000
  H   H4308     1.0  0.91569  0.70486  0.55365  1.0000
  H   H4309     1.0  0.90584  0.75448  0.51263  1.0000
  H   H4310     1.0  0.92546  0.76984  0.52650  1.0000
  H   H4311     1.0  0.84008  0.70716  0.35695  1.0000
  H   H4312     1.0  0.80163  0.52120  0.60006  1.0000
  H   H4313     1.0  0.91335  0.66498  0.46180  1.0000
  H   H4314     1.0  0.93471  0.51255  0.32702  1.0000
  C   C5382     1.0  0.77095  0.65879  0.38737  1.0000
  Fe  Fe372     1.0  0.91975  0.65336  0.31016  1.0000
  S   S735      1.0  0.80699  0.48037  0.61860  1.0000
  C   C5383     1.0  0.80012  0.68803  0.36608  1.0000
  C   C5384     1.0  0.77983  0.62573  0.33527  1.0000
  S   S736      1.0  0.91592  0.68438  0.31011  1.0000
  C   C5385     1.0  0.73934  0.89738  0.32607  1.0000
  H   H4315     1.0  0.76420  0.91538  0.54955  1.0000
  S   S737      1.0  0.75034  0.63153  0.43855  1.0000
  H   H4316     1.0  0.76282  0.47462  0.30752  1.0000
  C   C5386     1.0  0.82137  0.61027  0.30522  1.0000
  H   H4317     1.0  0.77637  0.53362  0.50730  1.0000
  C   C5387     1.0  0.76045  0.55502  0.54596  1.0000
  H   H4318     1.0  0.77117  0.56109  0.54939  1.0000
  H   H4319     1.0  0.95639  0.72022  0.30363  1.0000
  C   C5388     1.0  0.74546  0.52284  0.48456  1.0000
  C   C5389     1.0  0.86751  0.50253  0.62150  1.0000
  C   C5390     1.0  0.75295  0.54040  0.39282  1.0000
  C   C5391     1.0  0.78398  0.49203  0.30348  1.0000
  H   H4320     1.0  0.74485  0.60480  0.40577  1.0000
  H   H4321     1.0  0.75005  0.91761  0.59986  1.0000
  C   C5392     1.0  0.96123  0.70256  0.46029  1.0000
  C   C5393     1.0  0.97004  0.73748  0.51078  1.0000
  C   C5394     1.0  0.96633  0.68810  0.53257  1.0000
  H   H4322     1.0  0.96447  0.68442  0.57956  1.0000
  S   S738      1.0  0.75215  0.58393  0.34559  1.0000
  H   H4323     1.0  0.95747  0.66652  0.31242  1.0000
  H   H4324     1.0  0.85489  0.56141  0.58931  1.0000
  H   H4325     1.0  0.75746  0.84272  0.40249  1.0000
  C   C5395     1.0  0.96922  0.64100  0.30154  1.0000
  H   H4326     1.0  0.85102  0.58178  0.44695  1.0000
  C   C5396     1.0  0.75580  0.71769  0.47638  1.0000
  C   C5397     1.0  0.92002  0.49906  0.31283  1.0000
  P   P179      1.0  0.87886  0.55550  0.30685  1.0000
  H   H4327     1.0  0.77235  0.70406  0.42536  1.0000
  H   H4328     1.0  0.74743  0.67279  0.34195  1.0000
  C   C5398     1.0  0.75407  0.59667  0.39588  1.0000
  C   C5399     1.0  0.86951  0.49320  0.60634  1.0000
  C   C5400     1.0  0.73803  0.76713  0.52766  1.0000
  C   C5401     1.0  0.73277  0.53925  0.53748  1.0000
  H   H4329     1.0  0.76179  0.53186  0.56932  1.0000
  H   H4330     1.0  0.77632  0.92807  0.60803  1.0000
  H   H4331     1.0  0.75459  0.64573  0.37415  1.0000
  H   H4332     1.0  0.77520  0.61277  0.33522  1.0000
  S   S739      1.0  0.76222  0.55024  0.30757  1.0000
  C   C5402     1.0  0.95295  0.67684  0.53320  1.0000
  H   H4333     1.0  0.81383  0.68051  0.40153  1.0000
  S   S740      1.0  0.73751  0.59453  0.46786  1.0000
  C   C5403     1.0  0.73618  0.67029  0.40943  1.0000
  H   H4334     1.0  0.73443  0.74369  0.51670  1.0000
  H   H4335     1.0  0.93073  0.72396  0.33033  1.0000
  C   C5404     1.0  0.94220  0.72496  0.30095  1.0000
  C   C5405     1.0  0.78989  0.64596  0.35184  1.0000
  H   H4336     1.0  0.79715  0.67193  0.33472  1.0000
  S   S741      1.0  0.75957  0.58460  0.51629  1.0000
  C   C5406     1.0  0.94354  0.66870  0.55043  1.0000
  C   C5407     1.0  0.73353  0.78655  0.52709  1.0000
  H   H4337     1.0  0.77077  0.71481  0.47671  1.0000
  C   C5408     1.0  0.77712  0.73124  0.42754  1.0000
  C   C5409     1.0  0.76907  0.75001  0.42866  1.0000
  C   C5410     1.0  0.76440  0.79499  0.40771  1.0000
  P   P180      1.0  0.78324  0.76601  0.43165  1.0000
  C   C5411     1.0  0.78375  0.76192  0.45642  1.0000
  C   C5412     1.0  0.80685  0.76106  0.41892  1.0000
  C   C5413     1.0  0.82202  0.76404  0.42595  1.0000
  C   C5414     1.0  0.84035  0.76062  0.41606  1.0000
  C   C5415     1.0  0.84365  0.75443  0.39894  1.0000
  C   C5416     1.0  0.82858  0.75170  0.39166  1.0000
  C   C5417     1.0  0.81019  0.75515  0.40154  1.0000
  C   C5418     1.0  0.77258  0.77432  0.46794  1.0000
  C   C5419     1.0  0.77303  0.77080  0.48710  1.0000
  C   C5420     1.0  0.78446  0.75480  0.49497  1.0000
  C   C5421     1.0  0.79540  0.74223  0.48367  1.0000
  C   C5422     1.0  0.79500  0.74573  0.46447  1.0000
  C   C5423     1.0  0.77475  0.79028  0.42244  1.0000
  H   H4338     1.0  0.94026  0.66532  0.58048  1.0000
  C   C5424     1.0  0.73852  0.74295  0.42790  1.0000
  C   C5425     1.0  0.73837  0.87793  0.58391  1.0000
  C   C5426     1.0  0.77314  0.82354  0.42218  1.0000
  C   C5427     1.0  0.77960  0.80473  0.42915  1.0000
  H   H4339     1.0  0.94959  0.67447  0.52045  1.0000
  C   C5428     1.0  0.90016  0.55346  0.56706  1.0000
  C   C5429     1.0  0.74959  0.75558  0.42948  1.0000
  H   H4340     1.0  0.79188  0.72629  0.42824  1.0000
  H   H4341     1.0  0.90032  0.51660  0.60317  1.0000
  H   H4342     1.0  0.81970  0.76917  0.43901  1.0000
  H   H4343     1.0  0.85196  0.76294  0.42171  1.0000
  H   H4344     1.0  0.85789  0.75192  0.39127  1.0000
  H   H4345     1.0  0.83121  0.74708  0.37828  1.0000
  H   H4346     1.0  0.79861  0.75337  0.39557  1.0000
  H   H4347     1.0  0.76370  0.78685  0.46227  1.0000
  H   H4348     1.0  0.76485  0.78081  0.49576  1.0000
  H   H4349     1.0  0.78512  0.75234  0.50976  1.0000
  H   H4350     1.0  0.80441  0.72988  0.48974  1.0000
  H   H4351     1.0  0.80368  0.73593  0.45589  1.0000
  H   H4352     1.0  0.93300  0.71033  0.45412  1.0000
  C   C5430     1.0  0.90900  0.73262  0.31345  1.0000
  Fe  Fe373     1.0  0.77797  0.47836  0.61435  1.0000
  H   H4353     1.0  0.77663  0.83462  0.42770  1.0000
  H   H4354     1.0  0.78841  0.80148  0.43977  1.0000
  C   C5431     1.0  0.78852  0.65535  0.31864  1.0000
  C   C5432     1.0  0.80285  0.49366  0.29682  1.0000
  H   H4355     1.0  0.75875  0.66941  0.51172  1.0000
  H   H4356     1.0  0.75591  0.69151  0.46791  1.0000
  H   H4357     1.0  0.91857  0.71579  0.48626  1.0000
  C   C5433     1.0  0.74862  0.92086  0.61371  1.0000
  H   H4358     1.0  0.83060  0.69877  0.31003  1.0000
  C   C5434     1.0  0.86189  0.55692  0.32813  1.0000
  H   H4359     1.0  0.73919  0.79316  0.53592  1.0000
  C   C5435     1.0  0.91028  0.53112  0.31825  1.0000
  C   C5436     1.0  0.75264  0.67469  0.41261  1.0000
  C   C5437     1.0  0.93364  0.71141  0.48276  1.0000
  C   C5438     1.0  0.84401  0.56792  0.32745  1.0000
  C   C5439     1.0  0.83113  0.56998  0.34393  1.0000
  C   C5440     1.0  0.83596  0.56094  0.36120  1.0000
  C   C5441     1.0  0.85370  0.54988  0.36203  1.0000
  C   C5442     1.0  0.86667  0.54791  0.34556  1.0000
  H   H4360     1.0  0.75156  0.74462  0.48445  1.0000
  C   C5443     1.0  0.76359  0.92689  0.61828  1.0000
  C   C5444     1.0  0.74562  0.66410  0.51662  1.0000
  C   C5445     1.0  0.77743  0.47579  0.30231  1.0000
  H   H4361     1.0  0.74675  0.54512  0.38024  1.0000
  C   C5446     1.0  0.96435  0.70280  0.49228  1.0000
  C   C5447     1.0  0.89244  0.57410  0.30299  1.0000
  H   H4362     1.0  0.75087  0.86728  0.58264  1.0000
  H   H4363     1.0  0.91264  0.54260  0.32398  1.0000
  H   H4364     1.0  0.87232  0.59128  0.32112  1.0000
  C   C5448     1.0  0.73106  0.75877  0.51583  1.0000
  H   H4365     1.0  0.84009  0.57506  0.31417  1.0000
  H   H4366     1.0  0.81741  0.57865  0.34325  1.0000
  H   H4367     1.0  0.82601  0.56256  0.37395  1.0000
  H   H4368     1.0  0.85742  0.54289  0.37545  1.0000
  H   H4369     1.0  0.88038  0.53947  0.34653  1.0000
  H   H4370     1.0  0.95693  0.73740  0.50649  1.0000
  C   C5449     1.0  0.83633  0.53521  0.61510  1.0000
  S   S742      1.0  0.74168  0.63195  0.48380  1.0000
  H   H4371     1.0  0.76136  0.78420  0.40150  1.0000
  C   C5450     1.0  0.88141  0.56213  0.57100  1.0000
  C   C5451     1.0  0.87465  0.75592  0.55714  1.0000
  C   C5452     1.0  0.86157  0.74564  0.55502  1.0000
  C   C5453     1.0  0.84915  0.75336  0.54244  1.0000
  C   C5454     1.0  0.84986  0.77133  0.53189  1.0000
  C   C5455     1.0  0.86276  0.78187  0.53417  1.0000
  C   C5456     1.0  0.87542  0.77386  0.54659  1.0000
  P   P181      1.0  0.86528  0.80396  0.51891  1.0000
  C   C5457     1.0  0.87390  0.81927  0.52991  1.0000
  C   C5458     1.0  0.88154  0.79777  0.49849  1.0000
  C   C5459     1.0  0.90101  0.79508  0.49814  1.0000
  C   C5460     1.0  0.91365  0.78924  0.48274  1.0000
  C   C5461     1.0  0.90692  0.78596  0.46764  1.0000
  C   C5462     1.0  0.88756  0.78840  0.46801  1.0000
  C   C5463     1.0  0.87490  0.79401  0.48349  1.0000
  C   C5464     1.0  0.88485  0.83240  0.51903  1.0000
  C   C5465     1.0  0.89132  0.84445  0.52753  1.0000
  C   C5466     1.0  0.88666  0.84368  0.54690  1.0000
  C   C5467     1.0  0.87532  0.83101  0.55776  1.0000
  C   C5468     1.0  0.86880  0.81896  0.54929  1.0000
  C   C5469     1.0  0.84306  0.81698  0.51321  1.0000
  C   C5470     1.0  0.84247  0.82955  0.49619  1.0000
  C   C5471     1.0  0.82536  0.84019  0.49204  1.0000
  C   C5472     1.0  0.80881  0.83865  0.50499  1.0000
  C   C5473     1.0  0.80931  0.82640  0.52206  1.0000
  C   C5474     1.0  0.82639  0.81567  0.52625  1.0000
  H   H4372     1.0  0.88482  0.74961  0.56629  1.0000
  H   H4373     1.0  0.86156  0.73142  0.56259  1.0000
  H   H4374     1.0  0.83940  0.74514  0.54042  1.0000
  H   H4375     1.0  0.84071  0.77677  0.52160  1.0000
  H   H4376     1.0  0.88638  0.78111  0.54769  1.0000
  H   H4377     1.0  0.90642  0.79711  0.50994  1.0000
  H   H4378     1.0  0.92865  0.78694  0.48267  1.0000
  H   H4379     1.0  0.91668  0.78123  0.45579  1.0000
  H   H4380     1.0  0.88227  0.78555  0.45648  1.0000
  H   H4381     1.0  0.85996  0.79512  0.48381  1.0000
  H   H4382     1.0  0.88834  0.83338  0.50397  1.0000
  H   H4383     1.0  0.89991  0.85444  0.51910  1.0000
  H   H4384     1.0  0.89172  0.85298  0.55349  1.0000
  H   H4385     1.0  0.87156  0.83053  0.57275  1.0000
  H   H4386     1.0  0.85979  0.80943  0.55786  1.0000
  H   H4387     1.0  0.85520  0.83115  0.48610  1.0000
  H   H4388     1.0  0.82486  0.84955  0.47874  1.0000
  H   H4389     1.0  0.79549  0.84670  0.50167  1.0000
  H   H4390     1.0  0.79633  0.82506  0.53187  1.0000
  H   H4391     1.0  0.82654  0.80642  0.53963  1.0000
  C   C5475     1.0  0.75000  0.53653  0.42662  1.0000
  H   H4392     1.0  0.86667  0.50101  0.59286  1.0000
  H   H4393     1.0  0.93286  0.66047  0.55084  1.0000
  C   C5476     1.0  0.74187  0.54195  0.41036  1.0000
  C   C5477     1.0  0.75434  0.65412  0.38453  1.0000
  H   H4394     1.0  0.73385  0.57451  0.42539  1.0000
  H   H4395     1.0  0.83401  0.51018  0.60537  1.0000
  C   C5478     1.0  0.86933  0.55441  0.58655  1.0000
  C   C5479     1.0  0.73829  0.55569  0.52596  1.0000
  H   H4396     1.0  0.75215  0.68151  0.42431  1.0000
  H   H4397     1.0  0.96751  0.70019  0.44624  1.0000
  H   H4398     1.0  0.82750  0.66758  0.30480  1.0000
  H   H4399     1.0  0.87620  0.57489  0.56201  1.0000
  H   H4400     1.0  0.78180  0.61894  0.36446  1.0000
  C   C5480     1.0  0.97250  0.69981  0.47400  1.0000
  C   C5481     1.0  0.80572  0.63014  0.38627  1.0000
  C   C5482     1.0  0.80208  0.62633  0.40592  1.0000
  C   C5483     1.0  0.81210  0.61041  0.41560  1.0000
  C   C5484     1.0  0.82575  0.59818  0.40583  1.0000
  C   C5485     1.0  0.82961  0.60199  0.38629  1.0000
  C   C5486     1.0  0.81964  0.61788  0.37655  1.0000
  C   C5487     1.0  0.82788  0.66385  0.36591  1.0000
  C   C5488     1.0  0.89672  0.60383  0.30910  1.0000
  C   C5489     1.0  0.73889  0.69543  0.35777  1.0000
  H   H4401     1.0  0.79521  0.52196  0.40637  1.0000
  H   H4402     1.0  0.79152  0.63544  0.41390  1.0000
  H   H4403     1.0  0.80892  0.60736  0.43072  1.0000
  H   H4404     1.0  0.83322  0.58571  0.41342  1.0000
  H   H4405     1.0  0.84038  0.59271  0.37864  1.0000
  H   H4406     1.0  0.82311  0.62084  0.36145  1.0000
  H   H4407     1.0  0.85438  0.67358  0.36038  1.0000
  H   H4408     1.0  0.83470  0.64934  0.36689  1.0000
  C   C5490     1.0  0.76605  0.71858  0.42598  1.0000
  C   C5491     1.0  0.76995  0.66902  0.40162  1.0000
  C   C5492     1.0  0.78373  0.62923  0.35175  1.0000
  C   C5493     1.0  0.74352  0.91279  0.53386  1.0000
  H   H4409     1.0  0.75164  0.90032  0.52885  1.0000
  C   C5494     1.0  0.74030  0.93762  0.55248  1.0000
  C   C5495     1.0  0.92764  0.72708  0.31623  1.0000
  C   C5496     1.0  0.90688  0.53703  0.57868  1.0000
  C   C5497     1.0  0.74867  0.59620  0.37886  1.0000
  C   C5498     1.0  0.81155  0.70181  0.36201  1.0000
  Fe  Fe374     1.0  0.79335  0.54268  0.29798  1.0000
  C   C5499     1.0  0.79225  0.65902  0.33514  1.0000
  H   H4410     1.0  0.89164  0.61578  0.31619  1.0000
  C   C5500     1.0  0.94766  0.67145  0.56712  1.0000
  H   H4411     1.0  0.80057  0.57260  0.61884  1.0000
  H   H4412     1.0  0.73520  0.60394  0.37579  1.0000
  H   H4413     1.0  0.92143  0.53033  0.57566  1.0000
  S   S743      1.0  0.94739  0.63387  0.30320  1.0000
  H   H4414     1.0  0.83313  0.65225  0.41624  1.0000
  C   C5501     1.0  0.76891  0.53383  0.49608  1.0000
  C   C5502     1.0  0.77182  0.54655  0.47938  1.0000
  C   C5503     1.0  0.76183  0.54717  0.46512  1.0000
  C   C5504     1.0  0.97055  0.69053  0.54941  1.0000
  C   C5505     1.0  0.82662  0.55294  0.61870  1.0000
  C   C5506     1.0  0.74582  0.64491  0.52310  1.0000
  H   H4415     1.0  0.81771  0.71214  0.40473  1.0000
  C   C5507     1.0  0.80868  0.53020  0.60505  1.0000
  C   C5508     1.0  0.88584  0.58976  0.31195  1.0000
  C   C5509     1.0  0.94485  0.70874  0.49645  1.0000
  H   H4416     1.0  0.80880  0.62051  0.47547  1.0000
  H   H4417     1.0  0.78154  0.55620  0.47763  1.0000
  H   H4418     1.0  0.76403  0.55726  0.45237  1.0000
  H   H4419     1.0  0.75307  0.51260  0.51192  1.0000
  C   C5510     1.0  0.92282  0.51409  0.32004  1.0000
  C   C5511     1.0  0.87504  0.47369  0.60853  1.0000
  C   C5512     1.0  0.76039  0.58548  0.36595  1.0000
  C   C5513     1.0  0.89752  0.64688  0.38631  1.0000
  C   C5514     1.0  0.91261  0.63264  0.39015  1.0000
  C   C5515     1.0  0.91265  0.62259  0.40832  1.0000
  C   C5516     1.0  0.89761  0.62682  0.42262  1.0000
  C   C5517     1.0  0.88228  0.64099  0.41876  1.0000
  C   C5518     1.0  0.88241  0.65105  0.40046  1.0000
  P   P182      1.0  0.86342  0.64694  0.43753  1.0000
  C   C5519     1.0  0.84980  0.62829  0.44646  1.0000
  C   C5520     1.0  0.87393  0.65122  0.45587  1.0000
  C   C5521     1.0  0.86540  0.64759  0.47475  1.0000
  C   C5522     1.0  0.87443  0.64960  0.48885  1.0000
  C   C5523     1.0  0.89200  0.65523  0.48423  1.0000
  C   C5524     1.0  0.90023  0.65958  0.46547  1.0000
  C   C5525     1.0  0.89120  0.65771  0.45134  1.0000
  C   C5526     1.0  0.83238  0.63193  0.45812  1.0000
  C   C5527     1.0  0.82206  0.61754  0.46617  1.0000
  C   C5528     1.0  0.82884  0.59943  0.46228  1.0000
  C   C5529     1.0  0.84589  0.59578  0.45014  1.0000
  C   C5530     1.0  0.85635  0.61015  0.44221  1.0000
  C   C5531     1.0  0.84780  0.66762  0.42877  1.0000
  C   C5532     1.0  0.83468  0.66593  0.41822  1.0000
  C   C5533     1.0  0.82380  0.68195  0.40969  1.0000
  C   C5534     1.0  0.82589  0.69975  0.41162  1.0000
  C   C5535     1.0  0.83840  0.70151  0.42268  1.0000
  C   C5536     1.0  0.84947  0.68551  0.43113  1.0000
  H   H4420     1.0  0.89775  0.65525  0.37247  1.0000
  H   H4421     1.0  0.92437  0.62965  0.37907  1.0000
  H   H4422     1.0  0.92449  0.61174  0.41138  1.0000
  H   H4423     1.0  0.89802  0.61926  0.43675  1.0000
  H   H4424     1.0  0.87125  0.66254  0.39703  1.0000
  H   H4425     1.0  0.85178  0.64335  0.47878  1.0000
  H   H4426     1.0  0.86758  0.64720  0.50335  1.0000
  H   H4427     1.0  0.89881  0.65715  0.49515  1.0000
  P   P183      1.0  0.86059  0.52780  0.61850  1.0000
  H   H4428     1.0  0.77587  0.52453  0.43739  1.0000
  C   C5537     1.0  0.76232  0.82810  0.40798  1.0000
  C   C5538     1.0  0.79906  0.54767  0.60896  1.0000
  C   C5539     1.0  0.78222  0.63876  0.31873  1.0000
  C   C5540     1.0  0.97022  0.65767  0.30707  1.0000
  C   C5541     1.0  0.74484  0.73452  0.48091  1.0000
  C   C5542     1.0  0.89485  0.53330  0.30914  1.0000
  C   C5543     1.0  0.87596  0.53788  0.59828  1.0000
  S   S744      1.0  0.81167  0.51383  0.29805  1.0000
  H   H4429     1.0  0.80530  0.71654  0.36031  1.0000
  H   H4430     1.0  0.78069  0.53198  0.37777  1.0000
  H   H4431     1.0  0.74994  0.81750  0.38938  1.0000
  C   C5544     1.0  0.96126  0.68225  0.56661  1.0000
  C   C5545     1.0  0.83110  0.69659  0.36007  1.0000
  H   H4432     1.0  0.78503  0.69230  0.36744  1.0000
  P   P184      1.0  0.73523  0.53717  0.44927  1.0000
  C   C5546     1.0  0.94179  0.70831  0.46469  1.0000
  H   H4433     1.0  0.75273  0.69442  0.36105  1.0000
  C   C5547     1.0  0.76929  0.52915  0.42509  1.0000
  C   C5548     1.0  0.82722  0.52397  0.60809  1.0000
  C   C5549     1.0  0.89484  0.52927  0.59424  1.0000
  C   C5550     1.0  0.80819  0.66890  0.36828  1.0000
  P   P185      1.0  0.79347  0.65104  0.37351  1.0000
  H   H4434     1.0  0.73201  0.56203  0.51371  1.0000
  C   C5551     1.0  0.74882  0.53512  0.46745  1.0000
  C   C5552     1.0  0.74932  0.89450  0.30840  1.0000
  H   H4435     1.0  0.73807  0.71471  0.42504  1.0000
  H   H4436     1.0  0.96258  0.76675  0.51317  1.0000
  C   C5553     1.0  0.74677  0.72451  0.42595  1.0000
  H   H4437     1.0  0.93826  0.71116  0.51037  1.0000
  S   S745      1.0  0.73335  0.97058  0.61384  1.0000
  H   H4438     1.0  0.84868  0.53782  0.30156  1.0000
  C   C5554     1.0  0.77213  0.53305  0.39141  1.0000
  H   H4439     1.0  0.77443  0.50325  0.30957  1.0000
  H   H4440     1.0  0.73478  0.51411  0.48722  1.0000
  H   H4441     1.0  0.77961  0.63572  0.30590  1.0000
  H   H4442     1.0  0.73894  0.88572  0.33772  1.0000
  P   P186      1.0  0.97852  0.69887  0.51042  1.0000
  C   C5555     1.0  0.73379  0.88752  0.59908  1.0000
  S   S746      1.0  0.73402  0.50940  0.56695  1.0000
  H   H4443     1.0  0.92973  0.48586  0.31422  1.0000
  C   C5556     1.0  0.91411  0.60251  0.29717  1.0000
  H   H4444     1.0  0.75105  0.95464  0.30961  1.0000
  H   H4445     1.0  0.90247  0.48940  0.29827  1.0000
  C   C5557     1.0  0.89215  0.51809  0.30197  1.0000
  H   H4446     1.0  0.73116  0.78970  0.46661  1.0000
  C   C5558     1.0  0.73176  0.92004  0.62654  1.0000
  H   H4447     1.0  0.73061  0.87508  0.55826  1.0000
  H   H4448     1.0  0.89209  0.54013  0.62891  1.0000
  H   H4449     1.0  0.73093  0.88328  0.90769  1.0000
  H   H4450     1.0  0.95843  0.85401  0.79318  1.0000
  S   S747      1.0  0.88213  0.94656  0.72389  1.0000
  H   H4451     1.0  0.80731  0.51566  0.90529  1.0000
  S   S748      1.0  0.95436  0.62021  0.74421  1.0000
  C   C5559     1.0  0.74971  0.82978  0.91722  1.0000
  C   C5560     1.0  0.93559  0.49442  0.70289  1.0000
  C   C5561     1.0  0.79195  0.96728  0.71108  1.0000
  Fe  Fe375     1.0  0.95900  0.59107  0.73714  1.0000
  S   S749      1.0  0.93603  0.57231  0.74682  1.0000
  C   C5562     1.0  0.80943  0.47877  0.78211  1.0000
  S   S750      1.0  0.95389  0.70152  0.88814  1.0000
  Fe  Fe376     1.0  0.74824  0.58311  0.95782  1.0000
  C   C5563     1.0  0.97862  0.78487  0.77654  1.0000
  C   C5564     1.0  0.77249  0.68727  0.96167  1.0000
  H   H4452     1.0  0.73951  0.66472  0.95454  1.0000
  H   H4453     1.0  0.77371  0.92592  0.70005  1.0000
  H   H4454     1.0  0.83910  0.48859  0.66710  1.0000
  C   C5565     1.0  0.77172  0.53935  0.83788  1.0000
  H   H4455     1.0  0.78092  0.59080  0.82983  1.0000
  S   S751      1.0  0.75475  0.55636  0.94480  1.0000
  S   S752      1.0  0.75914  0.60971  0.94333  1.0000
  Fe  Fe377     1.0  0.87294  0.50473  0.71660  1.0000
  S   S753      1.0  0.89387  0.52567  0.70906  1.0000
  Fe  Fe378     1.0  0.83699  0.49990  0.70410  1.0000
  S   S754      1.0  0.81276  0.51396  0.68893  1.0000
  C   C5566     1.0  0.93402  0.50074  0.76734  1.0000
  S   S755      1.0  0.84193  0.51089  0.72847  1.0000
  H   H4456     1.0  0.94129  0.59593  0.84063  1.0000
  C   C5567     1.0  0.79784  0.93588  0.70390  1.0000
  C   C5568     1.0  0.74867  0.74911  0.94795  1.0000
  H   H4457     1.0  0.78342  0.50459  0.71946  1.0000
  H   H4458     1.0  0.78044  0.53107  0.82778  1.0000
  C   C5569     1.0  0.97145  0.73297  0.77933  1.0000
  C   C5570     1.0  0.78028  0.50110  0.78062  1.0000
  H   H4459     1.0  0.97311  0.80395  0.88013  1.0000
  H   H4460     1.0  0.89568  0.54956  0.65785  1.0000
  C   C5571     1.0  0.95510  0.74170  0.68967  1.0000
  C   C5572     1.0  0.81121  0.50482  0.66926  1.0000
  C   C5573     1.0  0.77517  0.53030  0.72996  1.0000
  H   H4461     1.0  0.94268  0.78719  0.81935  1.0000
  H   H4462     1.0  0.74646  0.52992  0.83640  1.0000
  C   C5574     1.0  0.79312  0.50238  0.64607  1.0000
  C   C5575     1.0  0.79468  0.50990  0.66151  1.0000
  H   H4463     1.0  0.80758  0.92320  0.70122  1.0000
  H   H4464     1.0  0.78290  0.51934  0.66772  1.0000
  H   H4465     1.0  0.78020  0.50608  0.64042  1.0000
  H   H4466     1.0  0.79217  0.47125  0.72232  1.0000
  S   S756      1.0  0.86742  0.49588  0.69112  1.0000
  C   C5576     1.0  0.95106  0.74798  0.75680  1.0000
  H   H4467     1.0  0.93883  0.81414  0.83552  1.0000
  H   H4468     1.0  0.88385  0.48975  0.77209  1.0000
  C   C5577     1.0  0.93056  0.83481  0.81213  1.0000
  C   C5578     1.0  0.92754  0.83798  0.79354  1.0000
  C   C5579     1.0  0.95973  0.74280  0.95566  1.0000
  C   C5580     1.0  0.76145  0.59437  0.87858  1.0000
  H   H4469     1.0  0.80163  0.56471  0.92987  1.0000
  S   S757      1.0  0.74968  0.50341  0.80878  1.0000
  C   C5581     1.0  0.93685  0.71420  0.71408  1.0000
  C   C5582     1.0  0.93888  0.70996  0.90800  1.0000
  C   C5583     1.0  0.93851  0.72773  0.91202  1.0000
  C   C5584     1.0  0.92619  0.73378  0.92779  1.0000
  C   C5585     1.0  0.91425  0.72213  0.93995  1.0000
  C   C5586     1.0  0.74172  0.54850  0.93102  1.0000
  C   C5587     1.0  0.92686  0.69836  0.92009  1.0000
  H   H4470     1.0  0.94762  0.73685  0.90291  1.0000
  H   H4471     1.0  0.92582  0.74765  0.93054  1.0000
  H   H4472     1.0  0.74605  0.48510  0.77409  1.0000
  H   H4473     1.0  0.75461  0.81484  0.92094  1.0000
  H   H4474     1.0  0.83586  0.60600  0.81440  1.0000
  H   H4475     1.0  0.94820  0.66536  0.73701  1.0000
  C   C5588     1.0  0.82504  0.48570  0.64531  1.0000
  C   C5589     1.0  0.77284  0.49371  0.79909  1.0000
  C   C5590     1.0  0.95812  0.51827  0.72759  1.0000
  H   H4476     1.0  0.87475  0.87659  0.73859  1.0000
  H   H4477     1.0  0.78832  0.53507  0.72333  1.0000
  C   C5591     1.0  0.92382  0.56023  0.73583  1.0000
  C   C5592     1.0  0.91099  0.54901  0.74713  1.0000
  C   C5593     1.0  0.90156  0.53853  0.73927  1.0000
  C   C5594     1.0  0.90484  0.53903  0.71991  1.0000
  C   C5595     1.0  0.91749  0.55042  0.70857  1.0000
  C   C5596     1.0  0.92684  0.56099  0.71642  1.0000
  H   H4478     1.0  0.90840  0.54832  0.76213  1.0000
  H   H4479     1.0  0.89177  0.53005  0.74819  1.0000
  H   H4480     1.0  0.92014  0.55105  0.69358  1.0000
  H   H4481     1.0  0.93654  0.56957  0.70745  1.0000
  P   P187      1.0  0.75180  0.48348  0.73402  1.0000
  H   H4482     1.0  0.76364  0.55480  0.74265  1.0000
  C   C5597     1.0  0.97040  0.66265  0.67597  1.0000
  C   C5598     1.0  0.93799  0.80130  0.81233  1.0000
  C   C5599     1.0  0.73293  0.83631  0.91014  1.0000
  H   H4483     1.0  0.88409  0.91673  0.80908  1.0000
  C   C5600     1.0  0.92106  0.85842  0.72732  1.0000
  H   H4484     1.0  0.74006  0.56796  0.87462  1.0000
  H   H4485     1.0  0.88405  0.87377  0.76915  1.0000
  H   H4486     1.0  0.76029  0.87161  0.92015  1.0000
  H   H4487     1.0  0.83926  0.54168  0.68263  1.0000
  C   C5601     1.0  0.88914  0.87077  0.74038  1.0000
  H   H4488     1.0  0.79288  0.53488  0.87900  1.0000
  H   H4489     1.0  0.77315  0.93770  0.63880  1.0000
  C   C5602     1.0  0.93591  0.81654  0.82141  1.0000
  C   C5603     1.0  0.90578  0.93574  0.71682  1.0000
  C   C5604     1.0  0.91115  0.91634  0.72284  1.0000
  C   C5605     1.0  0.92987  0.90727  0.71800  1.0000
  C   C5606     1.0  0.94351  0.91754  0.70732  1.0000
  C   C5607     1.0  0.93805  0.93682  0.70099  1.0000
  C   C5608     1.0  0.91934  0.94592  0.70568  1.0000
  H   H4490     1.0  0.90077  0.90831  0.73136  1.0000
  H   H4491     1.0  0.93389  0.89244  0.72277  1.0000
  H   H4492     1.0  0.94840  0.94469  0.69229  1.0000
  H   H4493     1.0  0.91545  0.96079  0.70072  1.0000
  C   C5609     1.0  0.82714  0.70977  0.95144  1.0000
  C   C5610     1.0  0.80006  0.55829  0.91855  1.0000
  H   H4494     1.0  0.91068  0.90093  0.78873  1.0000
  C   C5611     1.0  0.80566  0.53897  0.91914  1.0000
  C   C5612     1.0  0.79401  0.59167  0.83379  1.0000
  C   C5613     1.0  0.73630  0.86834  0.90964  1.0000
  C   C5614     1.0  0.81584  0.73923  0.93263  1.0000
  C   C5615     1.0  0.88832  0.86367  0.80845  1.0000
  C   C5616     1.0  0.76018  0.61296  0.86890  1.0000
  C   C5617     1.0  0.75330  0.47121  0.77198  1.0000
  H   H4495     1.0  0.94121  0.85178  0.74589  1.0000
  C   C5618     1.0  0.88246  0.54604  0.65671  1.0000
  C   C5619     1.0  0.83057  0.72467  0.93687  1.0000
  S   S758      1.0  0.97270  0.72635  0.83685  1.0000
  C   C5620     1.0  0.78631  0.49799  0.95519  1.0000
  H   H4496     1.0  0.79459  0.55075  0.84225  1.0000
  H   H4497     1.0  0.74331  0.93681  0.66143  1.0000
  C   C5621     1.0  0.81390  0.58695  0.85716  1.0000
  C   C5622     1.0  0.79192  0.56934  0.90360  1.0000
  C   C5623     1.0  0.86760  0.54662  0.67185  1.0000
  H   H4498     1.0  0.95146  0.60383  0.80630  1.0000
  C   C5624     1.0  0.91469  0.70434  0.93597  1.0000
  H   H4499     1.0  0.86933  0.55056  0.68460  1.0000
  H   H4500     1.0  0.92912  0.84650  0.81931  1.0000
  C   C5625     1.0  0.74540  0.67558  0.95793  1.0000
  S   S759      1.0  0.89924  0.73063  0.95978  1.0000
  C   C5626     1.0  0.91225  0.48645  0.75688  1.0000
  H   H4501     1.0  0.87075  0.49881  0.65051  1.0000
  H   H4502     1.0  0.74670  0.64177  0.86927  1.0000
  S   S760      1.0  0.97496  0.59939  0.70810  1.0000
  C   C5627     1.0  0.73179  0.77912  0.95546  1.0000
  C   C5628     1.0  0.79488  0.54167  0.88983  1.0000
  H   H4503     1.0  0.95988  0.80390  0.91382  1.0000
  C   C5629     1.0  0.96662  0.74746  0.74217  1.0000
  C   C5630     1.0  0.78920  0.56112  0.88913  1.0000
  H   H4504     1.0  0.96807  0.96925  0.68842  1.0000
  C   C5631     1.0  0.73698  0.76623  0.94318  1.0000
  H   H4505     1.0  0.84471  0.72505  0.92909  1.0000
  C   C5632     1.0  0.79763  0.73878  0.94281  1.0000
  H   H4506     1.0  0.77371  0.66016  0.95455  1.0000
  C   C5633     1.0  0.90047  0.89282  0.79744  1.0000
  C   C5634     1.0  0.82635  0.49261  0.66117  1.0000
  H   H4507     1.0  0.84100  0.59546  0.84725  1.0000
  H   H4508     1.0  0.86002  0.89895  0.82914  1.0000
  C   C5635     1.0  0.76835  0.56121  0.85927  1.0000
  H   H4509     1.0  0.89836  0.86724  0.71159  1.0000
  H   H4510     1.0  0.75646  0.96055  0.78059  1.0000
  C   C5636     1.0  0.75252  0.53869  0.84274  1.0000
  H   H4511     1.0  0.76130  0.47305  0.66849  1.0000
  C   C5637     1.0  0.74908  0.56029  0.86423  1.0000
  C   C5638     1.0  0.74494  0.93185  0.64835  1.0000
  Fe  Fe379     1.0  0.73246  0.49337  0.83707  1.0000
  C   C5639     1.0  0.92958  0.82256  0.78456  1.0000
  C   C5640     1.0  0.89452  0.86917  0.75773  1.0000
  H   H4512     1.0  0.94152  0.74123  0.78658  1.0000
  C   C5641     1.0  0.79843  0.49365  0.77212  1.0000
  H   H4513     1.0  0.74207  0.48195  0.69743  1.0000
  C   C5642     1.0  0.77877  0.93745  0.70320  1.0000
  C   C5643     1.0  0.76125  0.54140  0.74075  1.0000
  C   C5644     1.0  0.75546  0.50631  0.73626  1.0000
  C   C5645     1.0  0.80833  0.49019  0.63794  1.0000
  H   H4514     1.0  0.97215  0.68705  0.92289  1.0000
  C   C5646     1.0  0.77232  0.51284  0.72777  1.0000
  H   H4515     1.0  0.76402  0.96076  0.74665  1.0000
  H   H4516     1.0  0.92763  0.82449  0.77023  1.0000
  C   C5647     1.0  0.77963  0.55056  0.84609  1.0000
  C   C5648     1.0  0.86469  0.77533  0.96125  1.0000
  C   C5649     1.0  0.95533  0.90016  0.75687  1.0000
  H   H4517     1.0  0.93686  0.79253  0.78674  1.0000
  P   P188      1.0  0.94897  0.48231  0.73679  1.0000
  H   H4518     1.0  0.77820  0.47291  0.82329  1.0000
  C   C5650     1.0  0.97242  0.87661  0.77802  1.0000
  H   H4519     1.0  0.96273  0.78595  0.66856  1.0000
  H   H4520     1.0  0.75060  0.57634  0.90358  1.0000
  H   H4521     1.0  0.97503  0.81116  0.67725  1.0000
  C   C5651     1.0  0.90242  0.86551  0.72517  1.0000
  H   H4522     1.0  0.96196  0.75237  0.67994  1.0000
  C   C5652     1.0  0.76178  0.93234  0.63560  1.0000
  H   H4523     1.0  0.94791  0.50403  0.76618  1.0000
  H   H4524     1.0  0.80576  0.60373  0.80582  1.0000
  H   H4525     1.0  0.76449  0.52666  0.92299  1.0000
  C   C5653     1.0  0.74750  0.62741  0.87663  1.0000
  C   C5654     1.0  0.91332  0.86230  0.75994  1.0000
  H   H4526     1.0  0.95483  0.91261  0.74608  1.0000
  H   H4527     1.0  0.77194  0.51264  0.77281  1.0000
  H   H4528     1.0  0.81856  0.75094  0.92152  1.0000
  H   H4529     1.0  0.93957  0.50780  0.70251  1.0000
  H   H4530     1.0  0.81647  0.58242  0.87138  1.0000
  S   S761      1.0  0.73885  0.48444  0.86653  1.0000
  C   C5655     1.0  0.79696  0.58528  0.85234  1.0000
  P   P189      1.0  0.77879  0.57563  0.86978  1.0000
  H   H4531     1.0  0.92356  0.50434  0.67780  1.0000
  H   H4532     1.0  0.81182  0.53046  0.93082  1.0000
  C   C5656     1.0  0.95350  0.74077  0.77531  1.0000
  H   H4533     1.0  0.86267  0.86503  0.82870  1.0000
  H   H4534     1.0  0.73206  0.76960  0.92990  1.0000
  C   C5657     1.0  0.94070  0.87416  0.77567  1.0000
  H   H4535     1.0  0.78760  0.58429  0.90348  1.0000
  C   C5658     1.0  0.74072  0.52720  0.90992  1.0000
  H   H4536     1.0  0.76909  0.61643  0.85557  1.0000
  C   C5659     1.0  0.97154  0.89314  0.76474  1.0000
  H   H4537     1.0  0.94753  0.73151  0.66759  1.0000
  C   C5660     1.0  0.88536  0.90188  0.80899  1.0000
  H   H4538     1.0  0.95482  0.74558  0.94242  1.0000
  C   C5661     1.0  0.87327  0.87277  0.82002  1.0000
  C   C5662     1.0  0.92655  0.85686  0.74461  1.0000
  C   C5663     1.0  0.75704  0.47744  0.69699  1.0000
  C   C5664     1.0  0.93471  0.80431  0.79397  1.0000
  C   C5665     1.0  0.74122  0.54916  0.85587  1.0000
  C   C5666     1.0  0.95712  0.86706  0.78337  1.0000
  H   H4539     1.0  0.93707  0.75399  0.75386  1.0000
  C   C5667     1.0  0.96781  0.68159  0.66762  1.0000
  C   C5668     1.0  0.79408  0.72377  0.95745  1.0000
  C   C5669     1.0  0.75976  0.84251  0.92048  1.0000
  C   C5670     1.0  0.75029  0.53345  0.92150  1.0000
  H   H4540     1.0  0.75270  0.73930  0.93823  1.0000
  H   H4541     1.0  0.74758  0.51571  0.90263  1.0000
  H   H4542     1.0  0.77241  0.83740  0.92658  1.0000
  C   C5671     1.0  0.92027  0.47573  0.68942  1.0000
  C   C5672     1.0  0.76627  0.95395  0.70639  1.0000
  C   C5673     1.0  0.94690  0.77838  0.71728  1.0000
  C   C5674     1.0  0.80801  0.59908  0.82017  1.0000
  S   S762      1.0  0.76335  0.80961  0.96084  1.0000
  C   C5675     1.0  0.93599  0.96787  0.74121  1.0000
  H   H4543     1.0  0.92239  0.51542  0.79048  1.0000
  S   S763      1.0  0.87679  0.47470  0.73197  1.0000
  H   H4544     1.0  0.96242  0.69217  0.67624  1.0000
  C   C5676     1.0  0.93540  0.78407  0.70349  1.0000
  C   C5677     1.0  0.92319  0.80131  0.70252  1.0000
  C   C5678     1.0  0.92232  0.81303  0.71530  1.0000
  C   C5679     1.0  0.93371  0.80751  0.72903  1.0000
  C   C5680     1.0  0.94592  0.79027  0.73004  1.0000
  H   H4545     1.0  0.81918  0.94955  0.70854  1.0000
  C   C5681     1.0  0.75301  0.86176  0.91679  1.0000
  H   H4546     1.0  0.78657  0.75033  0.93935  1.0000
  C   C5682     1.0  0.93748  0.71634  0.69482  1.0000
  C   C5683     1.0  0.94677  0.72997  0.68260  1.0000
  H   H4547     1.0  0.91274  0.47441  0.67879  1.0000
  C   C5684     1.0  0.76556  0.47677  0.71246  1.0000
  H   H4548     1.0  0.94319  0.52327  0.73112  1.0000
  H   H4549     1.0  0.93260  0.71558  0.85523  1.0000
  H   H4550     1.0  0.86895  0.76607  0.95098  1.0000
  C   C5685     1.0  0.80438  0.95073  0.70801  1.0000
  C   C5686     1.0  0.82787  0.59440  0.84350  1.0000
  C   C5687     1.0  0.94509  0.72598  0.72122  1.0000
  C   C5688     1.0  0.93041  0.49050  0.75490  1.0000
  C   C5689     1.0  0.92650  0.49250  0.68878  1.0000
  C   C5690     1.0  0.76471  0.67310  0.95777  1.0000
  H   H4551     1.0  0.93592  0.77549  0.69321  1.0000
  H   H4552     1.0  0.91462  0.80571  0.69164  1.0000
  H   H4553     1.0  0.91301  0.82647  0.71438  1.0000
  H   H4554     1.0  0.93347  0.81675  0.73865  1.0000
  H   H4555     1.0  0.73371  0.54350  0.75789  1.0000
  C   C5691     1.0  0.95417  0.73997  0.70907  1.0000
  H   H4556     1.0  0.90565  0.69518  0.94511  1.0000
  H   H4557     1.0  0.93107  0.70719  0.68931  1.0000
  S   S764      1.0  0.96770  0.90733  0.70243  1.0000
  H   H4558     1.0  0.89033  0.50824  0.79365  1.0000
  C   C5692     1.0  0.96589  0.69072  0.76042  1.0000
  C   C5693     1.0  0.96365  0.68279  0.74567  1.0000
  C   C5694     1.0  0.94989  0.67160  0.74841  1.0000
  C   C5695     1.0  0.93844  0.66826  0.76588  1.0000
  C   C5696     1.0  0.94085  0.67584  0.78091  1.0000
  C   C5697     1.0  0.95471  0.68710  0.77806  1.0000
  P   P190      1.0  0.92554  0.67166  0.80325  1.0000
  C   C5698     1.0  0.93048  0.64754  0.81491  1.0000
  C   C5699     1.0  0.92829  0.68650  0.81867  1.0000
  C   C5700     1.0  0.91530  0.70295  0.82134  1.0000
  C   C5701     1.0  0.91693  0.71348  0.83439  1.0000
  C   C5702     1.0  0.93148  0.70765  0.84485  1.0000
  C   C5703     1.0  0.94464  0.69152  0.84199  1.0000
  C   C5704     1.0  0.94314  0.68105  0.82889  1.0000
  C   C5705     1.0  0.92470  0.64295  0.83437  1.0000
  C   C5706     1.0  0.92854  0.62440  0.84361  1.0000
  C   C5707     1.0  0.88035  0.54063  0.64037  1.0000
  C   C5708     1.0  0.94376  0.61469  0.81417  1.0000
  C   C5709     1.0  0.94001  0.63323  0.80490  1.0000
  C   C5710     1.0  0.90168  0.67716  0.79875  1.0000
  C   C5711     1.0  0.88797  0.66673  0.80932  1.0000
  C   C5712     1.0  0.86960  0.67106  0.80557  1.0000
  C   C5713     1.0  0.86477  0.68580  0.79126  1.0000
  C   C5714     1.0  0.87831  0.69630  0.78073  1.0000
  C   C5715     1.0  0.89668  0.69204  0.78446  1.0000
  H   H4559     1.0  0.75153  0.95479  0.70600  1.0000
  C   C5716     1.0  0.97557  0.77665  0.92300  1.0000
  H   H4560     1.0  0.97340  0.72732  0.79365  1.0000
  H   H4561     1.0  0.92782  0.65956  0.76770  1.0000
  H   H4562     1.0  0.95714  0.69295  0.78939  1.0000
  H   H4563     1.0  0.90376  0.70755  0.81364  1.0000
  H   H4564     1.0  0.90679  0.72603  0.83663  1.0000
  P   P191      1.0  0.96334  0.75645  0.71822  1.0000
  H   H4565     1.0  0.95594  0.68707  0.85012  1.0000
  H   H4566     1.0  0.95333  0.66846  0.82701  1.0000
  H   H4567     1.0  0.91731  0.65371  0.84245  1.0000
  H   H4568     1.0  0.92426  0.62101  0.85863  1.0000
  S   S765      1.0  0.97481  0.76414  0.63911  1.0000
  H   H4569     1.0  0.90175  0.93856  0.77685  1.0000
  H   H4570     1.0  0.94498  0.63620  0.79000  1.0000
  H   H4571     1.0  0.89140  0.65520  0.82039  1.0000
  H   H4572     1.0  0.85911  0.66289  0.81371  1.0000
  H   H4573     1.0  0.85056  0.68906  0.78830  1.0000
  H   H4574     1.0  0.87459  0.70768  0.76958  1.0000
  H   H4575     1.0  0.90701  0.70032  0.77616  1.0000
  C   C5717     1.0  0.90450  0.96084  0.75321  1.0000
  C   C5718     1.0  0.97512  0.79078  0.66004  1.0000
  H   H4576     1.0  0.92745  0.89647  0.75621  1.0000
  Fe  Fe380     1.0  0.97220  0.62775  0.71609  1.0000
  H   H4577     1.0  0.80396  0.49949  0.75788  1.0000
  H   H4578     1.0  0.92700  0.68459  0.91718  1.0000
  H   H4579     1.0  0.93140  0.85461  0.71543  1.0000
  C   C5719     1.0  0.90210  0.87361  0.79711  1.0000
  H   H4580     1.0  0.96645  0.94295  0.71931  1.0000
  C   C5720     1.0  0.93992  0.89081  0.76243  1.0000
  P   P192      1.0  0.92100  0.86175  0.78168  1.0000
  C   C5721     1.0  0.74969  0.59051  0.89588  1.0000
  C   C5722     1.0  0.80312  0.53066  0.90477  1.0000
  C   C5723     1.0  0.87178  0.89187  0.82028  1.0000
  C   C5724     1.0  0.90156  0.50310  0.78304  1.0000
  C   C5725     1.0  0.86331  0.53569  0.63913  1.0000
  H   H4581     1.0  0.90902  0.47863  0.74753  1.0000
  C   C5726     1.0  0.89790  0.49270  0.77090  1.0000
  C   C5727     1.0  0.96503  0.49897  0.72881  1.0000
  C   C5728     1.0  0.85065  0.54166  0.67073  1.0000
  H   H4582     1.0  0.83859  0.69862  0.95505  1.0000
  C   C5729     1.0  0.84856  0.53608  0.65452  1.0000
  C   C5730     1.0  0.74150  0.51763  0.74698  1.0000
  H   H4583     1.0  0.88911  0.84892  0.80821  1.0000
  H   H4584     1.0  0.74338  0.92045  0.91213  1.0000
  H   H4585     1.0  0.78293  0.47220  0.94813  1.0000
  H   H4586     1.0  0.83547  0.53184  0.65413  1.0000
  C   C5731     1.0  0.93810  0.61027  0.83350  1.0000
  C   C5732     1.0  0.82496  0.60038  0.82500  1.0000
  H   H4587     1.0  0.92995  0.70335  0.72345  1.0000
  S   S766      1.0  0.97222  0.85081  0.70356  1.0000
  C   C5733     1.0  0.74441  0.53506  0.74927  1.0000
  H   H4588     1.0  0.95490  0.78645  0.74054  1.0000
  H   H4589     1.0  0.94421  0.72415  0.73619  1.0000
  S   S767      1.0  0.96425  0.65708  0.70048  1.0000
  Fe  Fe381     1.0  0.73771  0.47679  0.63460  1.0000
  C   C5734     1.0  0.97755  0.79217  0.89060  1.0000
  H   H4590     1.0  0.83675  0.78495  0.95487  1.0000
  H   H4591     1.0  0.97261  0.68516  0.73212  1.0000
  H   H4592     1.0  0.78746  0.68483  0.96147  1.0000
  C   C5735     1.0  0.77288  0.96916  0.70992  1.0000
  C   C5736     1.0  0.93854  0.47951  0.71775  1.0000
  Fe  Fe382     1.0  0.84529  0.48046  0.74217  1.0000
  H   H4593     1.0  0.96501  0.54612  0.72178  1.0000
  H   H4594     1.0  0.80037  0.49780  0.94712  1.0000
  C   C5737     1.0  0.91962  0.50710  0.78127  1.0000
  H   H4595     1.0  0.97672  0.69919  0.75838  1.0000
  C   C5738     1.0  0.91130  0.94683  0.76715  1.0000
  C   C5739     1.0  0.87755  0.47261  0.64073  1.0000
  C   C5740     1.0  0.77648  0.48357  0.95576  1.0000
  C   C5741     1.0  0.80908  0.70953  0.96190  1.0000
  C   C5742     1.0  0.97044  0.53126  0.72217  1.0000
  H   H4596     1.0  0.79503  0.78003  0.95533  1.0000
  Fe  Fe383     1.0  0.97759  0.71321  0.86623  1.0000
  C   C5743     1.0  0.94263  0.95408  0.75565  1.0000
  C   C5744     1.0  0.97266  0.68698  0.64824  1.0000
  H   H4597     1.0  0.97077  0.70171  0.64204  1.0000
  H   H4598     1.0  0.80102  0.96336  0.79548  1.0000
  H   H4599     1.0  0.88972  0.96334  0.75218  1.0000
  Fe  Fe384     1.0  0.73075  0.62456  0.95509  1.0000
  C   C5745     1.0  0.97778  0.64891  0.66474  1.0000
  C   C5746     1.0  0.80198  0.47133  0.80059  1.0000
  C   C5747     1.0  0.87186  0.49208  0.63864  1.0000
  C   C5748     1.0  0.97534  0.96778  0.72338  1.0000
  S   S768      1.0  0.97147  0.81466  0.74869  1.0000
  H   H4600     1.0  0.78958  0.96982  0.66976  1.0000
  C   C5749     1.0  0.93036  0.94350  0.76844  1.0000
  C   C5750     1.0  0.73709  0.60495  0.90360  1.0000
  C   C5751     1.0  0.73604  0.62342  0.89402  1.0000
  C   C5752     1.0  0.97004  0.79206  0.90955  1.0000
  C   C5753     1.0  0.78376  0.47875  0.80907  1.0000
  H   H4601     1.0  0.95730  0.95146  0.75708  1.0000
  H   H4602     1.0  0.96929  0.71497  0.93667  1.0000
  H   H4603     1.0  0.93566  0.93268  0.77929  1.0000
  H   H4604     1.0  0.97528  0.77653  0.76771  1.0000
  C   C5754     1.0  0.97815  0.94909  0.72060  1.0000
  C   C5755     1.0  0.78515  0.47124  0.71086  1.0000
  H   H4605     1.0  0.96980  0.77697  0.93761  1.0000
  C   C5756     1.0  0.97901  0.80407  0.77003  1.0000
  H   H4606     1.0  0.83697  0.47668  0.63886  1.0000
  C   C5757     1.0  0.76790  0.47222  0.68047  1.0000
  C   C5758     1.0  0.97906  0.74018  0.95614  1.0000
  C   C5759     1.0  0.97978  0.67336  0.63695  1.0000
  H   H4607     1.0  0.97975  0.63423  0.67108  1.0000
  H   H4608     1.0  0.73068  0.88415  0.87078  1.0000
  C   C5760     1.0  0.73373  0.69206  0.96237  1.0000
