data_image0
_chemical_formula_structural       CHC3FeS2CFeSFeSFeSFeSHFeCFeS2FeS2FeHFeS3HCHCHCH2C2H3C6H3C5HC6H5C2H2PC2HCH2C2H2CSH2CHC6PC14HC3H2CH5CH8C4SC3H2C2HC6H3CH3CH7CH2C2H7C2HCHC2HC2HC2HSC2SHCHCSHCH3C2H2SC7H2C2HCH3CHC3HC3H2CH7CH3CHC5H2C2HC3HPC3H2C2HCH2C2HCHCHC5HCPCHC2H2CH2CFeH2CH5C2SFeS2HC2HS2FeS2FeS2FeSFeS3C2H4C2FeS2C6HCHCH3C6H5CHCH2C2HCHC6H4CH3C6H5CSC3H2CHC5HC3HCHC3H3CH4CHPHC8HCHCHCH2SH2C2HSC6SC2HC4H7C4H2C3PC8H14C2HCHC3HCH2C3PC2HC3H2CHCHCHC2HC2HCH2CH2C4HCH2C2HFeCHCHPH2FeC4H2C5H3CHCHCPCHC3HC2HC7HCH2C4HPH2C2HSHCH3CHCHC2HPC2HFeH3CH3CHFeHC7H2CPH4CHCHC4H2CHC4SFeS2CFeS2FeSHFeSFeS3FeS2FeSCFeSFeS3C3H2C2H5C6H4C2PH2CHC3HCSCH2C7H8C2H2CH4C3H3CHC7HCHC8H3CH5C3H3SH2C3HC3PC10H12C2HCHC2H3CSC2HC3H3CHSCFeH3CHCFeH3C2H2SC4HCFeHC2H2CSC6SHCHCH3CSC2HCFeHCHC2H5C2H3CHC2H4PCH5FeS2FeS2C2HFeS2FeS2FeHFeS3PSC2SHFeHFeS2CHCHCHCHC6H4C2H4CH2C6H6C5HSHFeCH2C10PC9H2C4H2CH10C3H2CHCHC7H2CHC3HCSCH8CHCSHCH3C6HC5HC3HCHC5HCH3FeCFeC3HC6PC14H2C2H2CH8C2HCSC3H2C4H2SH4CHCH2CHC2S2C3HCH3CHCHCH2FeS2FeHSHC3FeSFeS2FeS2FeSFeS3CFeS2FeS2HCH3C2HCH3C6H4C3H2C8H5C6H4CSC3H2CH2CHCH2C3H2CH3C4HC2HC2HSHC6SH2C9PC18H20PC15H11CHC2SPHC2HC2HCHC5SH2SC2H8C5HPC8FeCH2C6H11FeCH2CHCHCHC2H2C2FeC3HC2PH4SHC3H2C3HCH3C2H2CH2C2HCHC5HCFeC5SHC2H3SH2FeS2FeS2FeSFeS3FeS2FeS2FeSFeS3FeCSC3HC2PFeS2CHC3HCHC10H4C2HC3H3C6H4C6H5SCSH2CHCH4CPC6HC10HC2FeHCHC3H5CH3CHC6PC10HC7H6CH4CFeCH6C2H6C2HCH2CH4CHPCH2C4H2C4HCHPHC2HCHC3HC3H2C2H3C2SHCH3CH2CHCH2C6H3C3H5CH5CH2C3HCHC5H8SCHCSH2CFe2PC3HSH2FeSC3HFeCHC2SCH2CS2C3H2C2FeC3SC3HC2HC3HS2H2C2H4C3H2C2HCH3SHC8HC2HSH2CHC3HCH4SC2H2PH4CHCHCHCSHC6H2C4HC2H3CHC2H4FeS2FeH2CHCSCFeS2HSFeSCSH2CH3FeH2SC2HCHCHFeH2C8H4CH2C2H2C2HCH3CH2CH4C2H2SC2H3CHC6PC15HSHCH5CH2CHFeCHC3SC3HC3H2CFeS2FeSHFeSFeS3FeS2FeS2FeSFeS3C4HC2HC2HC4H2C6H6CPCSC3HC3H5C4HC3H2CH2C2HCH2SH3C3H2C2H4C5H2C2HCH2PCHC3HCHCH3C3HCSC2HCH2C8HCH2C2H3C3HC2H3C2H2C3HCHCHC4HSC3H2C4HCHC2H3C5H2C3H2C2HC2HC2HC4H4PCPHPC2H2C2H2CHC2H2C3HC3H3C2HCFeS2CH4PFeS2C3HCHCHCSC9H2C3H4CHC3HCH2CHCHC3SH2CH2CHCSHCH4C5HCH2CH2CH2CH2C4HC5SC6SHC2SCHCH3CH2C2H7CHCHC2H4CH2CHCSC2H3CH2PH2CH4C2HC2H2C2HCH4C4HC2HC4H2CHCHC7PC14H4C2HC4HFeC3SHC2PCH3CH3C2HPHFeS2FeSFeSC2FeS2FeSFeSH4SFeS2C2HCH3SHC7H2C2H2C6H4C7H2C2HC4H2C3H6CH3FeHC4FeHCHC8HCH2CP2CH2C2SCH4C2HC2FeHS2C4HCHSH2CH2C8PC18H22CSCHSCH5CH2C5HC2SHSHC3HC5HCH5CH3C3H2C5HFeCHFeS2FeS2FeSFeS3FeS2FeS2FeSFeS3FeCSFeCSHPHC7H2C2HC2HC6H4C6H4C2H3C3H2C2H2C4HCHCH2PC9H9CHC5H3C2H3PC4H2C7HC2HC3HCH4CH4CHC4PC18H2CH17C2H2C2HCHC3H2C3H2CHC2H2C2H3CH2C2H3C3HC3H6CH4C11SC2HPC3HCHPH2C2H3CHC3H3C4HCHC3H3CH2C3HC2HCHCHC6HSHCHCH2CFeSFeS2FeHS2CSCSFeSFeS2C6H4C6H4C6H2CHSPC7HC2HC3HC13H3CH5C3H2C3H2CHCHPC3H2CH4SHC8PHC3HCSH3CHCHPH5CFeH3CPC2HC3HC3H3C3HC3HC2HCHCH2CHCH2CH2SH2CHSHFeCHC4PC18H5C2H8C2H2CHC9H3FeH2SC9HSH2C2H5CHCH2CSC4HCH2C4H4C2H3FeS2CS2CSCSHCFeCSH4C2H2SCHC4HCHCH2CH4C6H4CFeSCH2C2H2C4HCFeSPC3HC3SH4CH3C2HCHPC3H4CHC3H2C2HC4HC2SH2CSCHCHC3HC2HCHCHC2H2C6PC9HCH12CSFeH3CH2C3HC3HC2HCH4C2HCHCHFeH2CH2C2HC2H3C6HCHSHCHSCHCSC5HCFeSFeS2HCHCFeSH2CHC3H11C4HCHCHC3PCH4C5PHCH2CHCH3C2H6C2HSC6HCFeHC6PHCPCHC3HC5H4CHCH3C4H3C3H2C9H2CHCH2C2H2CHC2H5CH3CHCHC6SHCHC4H2C2HC2HCHC2HC4HC3HC2HCH2CSHSFeHFeS2FeSFeSFeSFeS2CSC6H4C6H4C7H3C7HCH3CH2C3H4CHFeC2H2C4H2PC2H4C4HCHC2HCH4SC4H5C9H7CHSHP2C4H2CH6CHC3PC8H2C8H10CH6C6PC18H6SCH12C3HCSCH2C4SHFeCH3CHC2PHCHCSHCP2C10H2C2H6C2SHFeCSC3HCSCSC6H4CHC2H4FeC2HCHCH3PC3HC3HCH3C2H4C2HCH2C3HC4PHC2H2CH5C2HCHCH2C2SH2C3HC5H6C3H2PC3HCH3C2SCH2C3HC9H3CHC6H2CHCSCHCHC2HPHC3H3PC2SFeHCH2C2H2C2HCH5CHCHCH5C3FeHCH2C3H5CH3SC2HFeS2HSCSFeHFeS3CSFeS2FeS2FeSFePS2CHSCH2C2HC7H3CH2C6H6C5H2C2H2CHC7PC3HCHSCHC7H7CHCH4SHCH2C3HC3H5CHCHC3PC2HCFeHCSC3HC2HCHCH4C2HCFeC2H3CH3C4HC3HC8H2C4SCHC2H2CHCHC2HC3H4C2H2PHCH2CHCHPHCHC4HC2H2C2FeHC3HC2HCHC4HC2H3PH2CHC2HCH2C2H2C3FeCHSCH2C4HCH6SCHCFeCH3FeC3HC4H5FeHCSH3C3SHC2H3C2SC2SH5CFeS2FeS2FeS2FeSFeS3FeS2CPHCH2SHC3H2C2HC6H4C3H2CH2C9H4CH2C7H5C3H2C2HPH2C5HCH4PC9H3CH2C3H2CSCH6CH2C2FeH3CHCHC2H2CHC5HC8PH3C2H2C6H3C6H3C4HCH3C7H4C2HC8HCHCHCHCHC6H2PCH2CH3C2HCH3CHCH3C2HSHC2HCFeH6C2FeHCH2C3HPC2HC3FeCSC3H2CSH2CHC3HCH3CH2C2SH2CHFeHSHFeS2HCSCHCHFeS2FeS2FeCFeS3FeSCFeSFe2SFeS3C3HCHC2HC6H4C2PHC2HC2FeC3SH2C7H4CSHC3HSHC3H3CHC2HCH7C2HCSC6H2CH3CH3C2HC2H2CHC4HC7PC18H8CH9PCHC3PC5HC9HCH2SCH12CH2CHSC3HCH4C10PC18H20CSHSHCHCH2CHC2HC2HCHC4H3CFeCSFePC3HC2PHC2H3CH3C2HCHCHCHCHC4H7CFeS2HC2FeS2C3HFeSCFeSCFeHFeS2FeS2FeS2FeCFeS3CHC3HC2H3C6H4CHC5HC2HPHCH2C6H5CH3CH7CHC2H2C3HC4HC4HC2H3C4SHCHCHCH2C2H2CSH3C5HCHCHCSHCH2C2H3PC3H2CH2CHCHCHC6HC2H2C2FeHCHCH5CH2CHCHCHC2HCFeC2SC2HCH3CHCHC3HC8PC7H2C2HCSCHC3H2CHCH2C2SH2C4HCH2C2H2C2HCH5CH3FeS2FeHCHCSFeS2FeS2FeSFeS3FeCSH2CFeS2PHC4SCSC9H4C3H2C7H4C6H4C7H3CHFeC6PC18H20CHCHC4HC7H4FeH3CFeCH2C2H2C2HCH2CSHC4SC2HCH2C3H2SC2H2CHCHC5H2C2H2C4H4C3FeC2SCH3C3H2CHCH3CHC2H3CHCH3C2H2CH2CHCH2CHC2SC4SHCHCH2C2PHPHC3HCHC2H2PC3HCHCSH7CH2C2FeS2FeSCFeSFeS3FeS2FeS2FeSFeS3CH3CHC3HCHC2FeS2C3HC3H2SHC6H5CH3CH2C6H4C3H2CHCHC2H2CH2C6PCH3C2HC5HC4H7CH9C2HCHC2HCHC2HCHC2HCHC4HCHCSH4C2H4CHCHCH4CHC4H2C5H3C2H4CHPC3FeH3C2H4C8PC18HCH4CH5C6H2CH2C2H2PH3SHCH2C6HC5HCH3C3PHC4H2CH2CHC3HSHC2HS
_chemical_formula_sum              "C3240 H2592 Fe216 S432 P108"
_cell_length_a       48.5968
_cell_length_b       48.2035
_cell_length_c       113.221
_cell_angle_alpha    90.9525
_cell_angle_beta     90.817
_cell_angle_gamma    113.954

_space_group_name_H-M_alt    "P 1"
_space_group_IT_number       1

loop_
  _space_group_symop_operation_xyz
  'x, y, z'

loop_
  _atom_site_type_symbol
  _atom_site_label
  _atom_site_symmetry_multiplicity
  _atom_site_fract_x
  _atom_site_fract_y
  _atom_site_fract_z
  _atom_site_occupancy
  C   C1        1.0  0.37588  0.13720  0.12611  1.0000
  H   H1        1.0  0.98611  0.33071  0.05438  1.0000
  C   C2        1.0  0.28920  0.04363  0.99727  1.0000
  C   C3        1.0  0.32462  0.17647  0.09563  1.0000
  C   C4        1.0  0.98861  0.37637  0.02628  1.0000
  Fe  Fe1       1.0  0.27249  0.22554  0.97503  1.0000
  S   S1        1.0  0.30563  0.23263  0.99073  1.0000
  S   S2        1.0  0.22760  0.18534  0.97376  1.0000
  C   C5        1.0  0.25419  0.03036  0.01348  1.0000
  Fe  Fe2       1.0  0.35679  0.00214  0.06228  1.0000
  S   S3        1.0  0.40705  0.03058  0.06443  1.0000
  Fe  Fe3       1.0  0.34945  0.99026  0.08951  1.0000
  S   S4        1.0  0.39876  0.01666  0.09318  1.0000
  Fe  Fe4       1.0  0.39528  0.05083  0.08069  1.0000
  S   S5        1.0  0.41449  0.09922  0.08790  1.0000
  Fe  Fe5       1.0  0.40715  0.99427  0.07683  1.0000
  S   S6        1.0  0.34576  0.02563  0.07772  1.0000
  H   H2        1.0  0.41013  0.30381  0.12625  1.0000
  Fe  Fe6       1.0  0.96997  0.23565  0.96886  1.0000
  C   C6        1.0  0.45059  0.31178  0.11661  1.0000
  Fe  Fe7       1.0  0.35621  0.28341  0.05818  1.0000
  S   S7        1.0  0.39818  0.27679  0.05453  1.0000
  S   S8        1.0  0.32346  0.28602  0.04390  1.0000
  Fe  Fe8       1.0  0.36542  0.28083  0.08534  1.0000
  S   S9        1.0  0.40823  0.27340  0.08323  1.0000
  S   S10       1.0  0.33891  0.28236  0.10181  1.0000
  Fe  Fe9       1.0  0.42044  0.31036  0.06955  1.0000
  H   H3        1.0  0.44932  0.32780  0.04155  1.0000
  Fe  Fe10      1.0  0.38273  0.24110  0.06832  1.0000
  S   S11       1.0  0.37667  0.19415  0.06194  1.0000
  S   S12       1.0  0.37892  0.31939  0.07242  1.0000
  S   S13       1.0  0.33960  0.24623  0.07131  1.0000
  H   H4        1.0  0.33708  0.18644  0.08778  1.0000
  C   C7        1.0  0.33487  0.26643  0.11612  1.0000
  H   H5        1.0  0.32965  0.16733  0.96635  1.0000
  C   C8        1.0  0.29253  0.15083  0.11601  1.0000
  H   H6        1.0  0.41854  0.22263  0.01173  1.0000
  C   C9        1.0  0.37980  0.33593  0.98638  1.0000
  H   H7        1.0  0.04104  0.22017  0.01839  1.0000
  H   H8        1.0  0.26947  0.21798  0.05955  1.0000
  C   C10       1.0  0.01556  0.21239  0.10228  1.0000
  C   C11       1.0  0.35336  0.07387  0.00402  1.0000
  H   H9        1.0  0.40106  0.07120  0.11337  1.0000
  H   H10       1.0  0.41704  0.15737  0.09552  1.0000
  H   H11       1.0  0.37073  0.25134  0.11482  1.0000
  C   C12       1.0  0.40244  0.12492  0.08097  1.0000
  C   C13       1.0  0.38864  0.11829  0.06976  1.0000
  C   C14       1.0  0.38044  0.13966  0.06415  1.0000
  C   C15       1.0  0.38566  0.16759  0.06976  1.0000
  C   C16       1.0  0.39826  0.17373  0.08118  1.0000
  C   C17       1.0  0.40683  0.15246  0.08675  1.0000
  H   H12       1.0  0.38493  0.09700  0.06530  1.0000
  H   H13       1.0  0.37046  0.13475  0.05535  1.0000
  H   H14       1.0  0.28054  0.08910  0.98658  1.0000
  C   C18       1.0  0.24175  0.07991  0.11704  1.0000
  C   C19       1.0  0.27937  0.15672  0.00539  1.0000
  C   C20       1.0  0.30763  0.04459  0.11628  1.0000
  C   C21       1.0  0.11875  0.23433  0.96217  1.0000
  C   C22       1.0  0.32946  0.14852  0.97155  1.0000
  H   H15       1.0  0.11328  0.35355  0.97469  1.0000
  C   C23       1.0  0.31861  0.27065  0.02919  1.0000
  C   C24       1.0  0.29601  0.27269  0.02178  1.0000
  C   C25       1.0  0.29130  0.26079  0.01007  1.0000
  C   C26       1.0  0.30935  0.24686  0.00559  1.0000
  C   C27       1.0  0.33193  0.24479  0.01302  1.0000
  C   C28       1.0  0.33650  0.25650  0.02474  1.0000
  H   H16       1.0  0.28204  0.28359  0.02511  1.0000
  H   H17       1.0  0.27397  0.26272  0.00448  1.0000
  H   H18       1.0  0.34611  0.23416  0.00966  1.0000
  H   H19       1.0  0.35392  0.25471  0.03032  1.0000
  H   H20       1.0  0.27027  0.02094  0.98051  1.0000
  C   C29       1.0  0.37218  0.05740  0.02142  1.0000
  C   C30       1.0  0.01423  0.35947  0.04115  1.0000
  H   H21       1.0  0.30001  0.06265  0.01507  1.0000
  H   H22       1.0  0.17021  0.13278  0.12589  1.0000
  P   P1        1.0  0.32642  0.06491  0.99173  1.0000
  C   C31       1.0  0.33435  0.04206  0.98049  1.0000
  C   C32       1.0  0.08696  0.17453  0.12551  1.0000
  H   H23       1.0  0.37331  0.09913  0.10679  1.0000
  C   C33       1.0  0.11262  0.17146  0.12138  1.0000
  H   H24       1.0  0.98963  0.38902  0.01836  1.0000
  H   H25       1.0  0.24105  0.09367  0.10966  1.0000
  C   C34       1.0  0.29978  0.06185  0.04642  1.0000
  C   C35       1.0  0.35864  0.19263  0.02972  1.0000
  H   H26       1.0  0.31354  0.21454  0.09950  1.0000
  H   H27       1.0  0.33534  0.02796  0.01049  1.0000
  C   C36       1.0  0.32794  0.09885  0.98460  1.0000
  S   S14       1.0  0.25560  0.25579  0.96511  1.0000
  H   H28       1.0  0.40849  0.09209  0.03124  1.0000
  H   H29       1.0  0.19816  0.09340  0.96443  1.0000
  C   C37       1.0  0.37429  0.10377  0.00649  1.0000
  H   H30       1.0  0.37088  0.03943  0.02734  1.0000
  C   C38       1.0  0.03958  0.30864  0.97906  1.0000
  C   C39       1.0  0.06483  0.33209  0.97460  1.0000
  C   C40       1.0  0.09368  0.33519  0.97806  1.0000
  C   C41       1.0  0.09728  0.31473  0.98592  1.0000
  C   C42       1.0  0.07198  0.29085  0.99034  1.0000
  C   C43       1.0  0.04312  0.28803  0.98683  1.0000
  P   P2        1.0  0.07626  0.26612  0.00140  1.0000
  C   C44       1.0  0.11243  0.26409  0.99991  1.0000
  C   C45       1.0  0.07270  0.28059  0.01588  1.0000
  C   C46       1.0  0.08788  0.27562  0.02574  1.0000
  C   C47       1.0  0.08259  0.28395  0.03710  1.0000
  C   C48       1.0  0.06180  0.29686  0.03873  1.0000
  C   C49       1.0  0.04666  0.30188  0.02898  1.0000
  C   C50       1.0  0.05210  0.29388  0.01761  1.0000
  C   C51       1.0  0.11484  0.23968  0.99373  1.0000
  C   C52       1.0  0.14290  0.23846  0.99251  1.0000
  C   C53       1.0  0.16885  0.26173  0.99725  1.0000
  C   C54       1.0  0.16672  0.28616  0.00338  1.0000
  C   C55       1.0  0.13863  0.28736  0.00472  1.0000
  C   C56       1.0  0.04686  0.22833  0.99959  1.0000
  C   C57       1.0  0.03694  0.21564  0.98825  1.0000
  H   H31       1.0  0.02960  0.31070  0.03028  1.0000
  C   C58       1.0  0.32204  0.14793  0.09919  1.0000
  C   C59       1.0  0.35352  0.25291  0.12040  1.0000
  C   C60       1.0  0.42993  0.34404  0.10109  1.0000
  H   H32       1.0  0.01710  0.30613  0.97644  1.0000
  H   H33       1.0  0.15947  0.19478  0.11708  1.0000
  C   C61       1.0  0.14085  0.22588  0.12325  1.0000
  H   H34       1.0  0.11982  0.31776  0.98852  1.0000
  H   H35       1.0  0.02322  0.27007  0.99014  1.0000
  H   H36       1.0  0.10301  0.26436  0.02472  1.0000
  H   H37       1.0  0.09395  0.27962  0.04469  1.0000
  H   H38       1.0  0.29790  0.27844  0.12031  1.0000
  C   C62       1.0  0.42354  0.31461  0.11873  1.0000
  H   H39       1.0  0.03907  0.29688  0.01030  1.0000
  H   H40       1.0  0.09533  0.22161  0.98970  1.0000
  H   H41       1.0  0.14463  0.21963  0.98768  1.0000
  H   H42       1.0  0.19059  0.26085  0.99603  1.0000
  H   H43       1.0  0.18692  0.30423  0.00702  1.0000
  H   H44       1.0  0.13739  0.30659  0.00940  1.0000
  H   H45       1.0  0.04697  0.22811  0.98044  1.0000
  H   H46       1.0  0.22442  0.11361  0.98575  1.0000
  C   C63       1.0  0.38730  0.21164  0.02598  1.0000
  C   C64       1.0  0.96467  0.25630  0.02635  1.0000
  C   C65       1.0  0.35218  0.05089  0.01175  1.0000
  C   C66       1.0  0.41662  0.34898  0.00685  1.0000
  S   S15       1.0  0.97308  0.26227  0.04186  1.0000
  C   C67       1.0  0.21105  0.08017  0.96254  1.0000
  C   C68       1.0  0.22933  0.03003  0.12504  1.0000
  C   C69       1.0  0.31690  0.98190  0.03185  1.0000
  H   H47       1.0  0.28235  0.13253  0.97498  1.0000
  H   H48       1.0  0.32296  0.06380  0.96563  1.0000
  C   C70       1.0  0.42050  0.36316  0.03266  1.0000
  C   C71       1.0  0.22849  0.04825  0.11569  1.0000
  H   H49       1.0  0.35287  0.98123  0.97741  1.0000
  C   C72       1.0  0.23148  0.01046  0.00596  1.0000
  C   C73       1.0  0.43701  0.37830  0.04284  1.0000
  C   C74       1.0  0.42237  0.38423  0.05247  1.0000
  C   C75       1.0  0.39119  0.37522  0.05200  1.0000
  C   C76       1.0  0.37460  0.35999  0.04195  1.0000
  C   C77       1.0  0.38910  0.35379  0.03233  1.0000
  H   H50       1.0  0.40633  0.38218  0.98174  1.0000
  H   H51       1.0  0.36553  0.33075  0.97848  1.0000
  H   H52       1.0  0.37602  0.15791  0.96873  1.0000
  C   C78       1.0  0.40214  0.05849  0.12103  1.0000
  H   H53       1.0  0.39191  0.33232  0.11249  1.0000
  H   H54       1.0  0.35720  0.29122  0.99328  1.0000
  H   H55       1.0  0.38904  0.30250  0.01142  1.0000
  C   C79       1.0  0.29250  0.98304  0.02529  1.0000
  H   H56       1.0  0.96421  0.46771  0.03878  1.0000
  H   H57       1.0  0.99619  0.23590  0.02362  1.0000
  H   H58       1.0  0.16168  0.24581  0.12230  1.0000
  H   H59       1.0  0.43523  0.39544  0.06035  1.0000
  H   H60       1.0  0.37975  0.37940  0.05952  1.0000
  H   H61       1.0  0.35030  0.35226  0.04171  1.0000
  H   H62       1.0  0.37554  0.34150  0.02476  1.0000
  C   C80       1.0  0.40277  0.36486  0.98823  1.0000
  H   H63       1.0  0.26339  0.16608  0.98883  1.0000
  H   H64       1.0  0.00030  0.16934  0.01583  1.0000
  C   C81       1.0  0.37730  0.18419  0.00720  1.0000
  C   C82       1.0  0.45332  0.31626  0.03394  1.0000
  H   H65       1.0  0.45847  0.21842  0.07227  1.0000
  H   H66       1.0  0.00799  0.24985  0.09507  1.0000
  H   H67       1.0  0.43876  0.39395  0.99967  1.0000
  H   H68       1.0  0.26914  0.01966  0.10500  1.0000
  H   H69       1.0  0.98948  0.23167  0.00171  1.0000
  H   H70       1.0  0.98288  0.14742  0.99573  1.0000
  H   H71       1.0  0.21774  0.03782  0.10735  1.0000
  C   C83       1.0  0.27441  0.20331  0.05336  1.0000
  C   C84       1.0  0.01412  0.18643  0.98692  1.0000
  H   H72       1.0  0.00407  0.19707  0.09497  1.0000
  C   C85       1.0  0.19960  0.04912  0.96532  1.0000
  H   H73       1.0  0.34652  0.11948  0.02992  1.0000
  C   C86       1.0  0.03220  0.26202  0.11177  1.0000
  C   C87       1.0  0.28708  0.18377  0.05739  1.0000
  H   H74       1.0  0.40204  0.22981  0.03182  1.0000
  C   C88       1.0  0.33082  0.04686  0.96843  1.0000
  C   C89       1.0  0.98059  0.24360  0.01936  1.0000
  H   H75       1.0  0.34517  0.07483  0.04077  1.0000
  C   C90       1.0  0.45552  0.30964  0.01278  1.0000
  C   C91       1.0  0.34228  0.01813  0.98361  1.0000
  H   H76       1.0  0.20923  0.99739  0.00928  1.0000
  S   S16       1.0  0.31198  0.97409  0.10323  1.0000
  C   C92       1.0  0.45708  0.34144  0.09900  1.0000
  C   C93       1.0  0.27645  0.13500  0.01393  1.0000
  S   S17       1.0  0.19869  0.99161  0.96524  1.0000
  H   H77       1.0  0.25471  0.05477  0.05109  1.0000
  C   C94       1.0  0.42112  0.37143  0.99844  1.0000
  H   H78       1.0  0.38425  0.18131  0.99838  1.0000
  C   C95       1.0  0.01066  0.18218  0.00814  1.0000
  S   S18       1.0  0.17359  0.23104  0.96483  1.0000
  H   H79       1.0  0.45215  0.42131  0.02205  1.0000
  C   C96       1.0  0.30185  0.10432  0.98311  1.0000
  H   H80       1.0  0.98243  0.45825  0.11873  1.0000
  H   H81       1.0  0.03468  0.35877  0.04478  1.0000
  H   H82       1.0  0.29182  0.18311  0.06673  1.0000
  C   C97       1.0  0.27456  0.06882  0.04636  1.0000
  C   C98       1.0  0.28950  0.16724  0.03716  1.0000
  H   H83       1.0  0.25560  0.09961  0.04052  1.0000
  H   H84       1.0  0.17792  0.03873  0.96942  1.0000
  S   S19       1.0  0.32493  0.99857  0.04641  1.0000
  C   C99       1.0  0.30600  0.13507  0.10931  1.0000
  C   C100      1.0  0.96388  0.41089  0.12279  1.0000
  C   C101      1.0  0.28284  0.04715  0.00913  1.0000
  C   C102      1.0  0.29509  0.16621  0.04933  1.0000
  C   C103      1.0  0.39657  0.20754  0.01470  1.0000
  C   C104      1.0  0.08733  0.22274  0.96016  1.0000
  C   C105      1.0  0.31132  0.19227  0.10223  1.0000
  H   H85       1.0  0.41011  0.13341  0.01810  1.0000
  H   H86       1.0  0.37463  0.11351  0.97977  1.0000
  C   C106      1.0  0.01787  0.24223  0.10230  1.0000
  C   C107      1.0  0.29141  0.03790  0.10556  1.0000
  H   H87       1.0  0.00681  0.17655  0.97817  1.0000
  C   C108      1.0  0.98683  0.34374  0.04661  1.0000
  H   H88       1.0  0.26062  0.22099  0.03813  1.0000
  H   H89       1.0  0.43765  0.04802  0.11380  1.0000
  H   H90       1.0  0.34412  0.08761  0.08812  1.0000
  C   C109      1.0  0.29560  0.17972  0.11245  1.0000
  H   H91       1.0  0.11151  0.14921  0.11893  1.0000
  C   C110      1.0  0.26937  0.20497  0.04128  1.0000
  C   C111      1.0  0.33730  0.06694  0.11698  1.0000
  C   C112      1.0  0.39329  0.32005  0.00496  1.0000
  H   H92       1.0  0.29208  0.04803  0.08708  1.0000
  C   C113      1.0  0.30436  0.05373  0.09546  1.0000
  C   C114      1.0  0.27693  0.18711  0.03319  1.0000
  C   C115      1.0  0.23869  0.11951  0.99366  1.0000
  H   H93       1.0  0.35178  0.19655  0.03843  1.0000
  H   H94       1.0  0.30648  0.15259  0.05263  1.0000
  C   C116      1.0  0.02736  0.20222  0.11179  1.0000
  H   H95       1.0  0.37519  0.12232  0.00110  1.0000
  H   H96       1.0  0.40183  0.19502  0.08561  1.0000
  H   H97       1.0  0.33264  0.13591  0.09408  1.0000
  H   H98       1.0  0.06614  0.15447  0.12608  1.0000
  H   H99       1.0  0.45786  0.21136  0.09390  1.0000
  H   H100      1.0  0.97040  0.42106  0.03319  1.0000
  H   H101      1.0  0.29954  0.04239  0.05117  1.0000
  C   C117      1.0  0.45000  0.32512  0.02247  1.0000
  H   H102      1.0  0.29698  0.03158  0.12384  1.0000
  H   H103      1.0  0.21980  0.99194  0.98830  1.0000
  H   H104      1.0  0.27363  0.18967  0.02389  1.0000
  C   C118      1.0  0.26050  0.14906  0.99538  1.0000
  H   H105      1.0  0.05674  0.30224  0.04755  1.0000
  C   C119      1.0  0.13960  0.19711  0.12031  1.0000
  C   C120      1.0  0.32557  0.08016  0.04047  1.0000
  C   C121      1.0  0.35465  0.11820  0.97926  1.0000
  C   C122      1.0  0.33373  0.07600  0.09604  1.0000
  C   C123      1.0  0.35027  0.08234  0.10669  1.0000
  H   H106      1.0  0.21921  0.07449  0.00055  1.0000
  H   H107      1.0  0.07579  0.23775  0.96060  1.0000
  C   C124      1.0  0.33903  0.16932  0.02221  1.0000
  C   C125      1.0  0.32617  0.10540  0.03435  1.0000
  H   H108      1.0  0.24970  0.03268  0.02270  1.0000
  C   C126      1.0  0.96199  0.43841  0.12033  1.0000
  C   C127      1.0  0.39417  0.11027  0.01623  1.0000
  C   C128      1.0  0.26620  0.02374  0.98975  1.0000
  H   H109      1.0  0.06196  0.34781  0.96848  1.0000
  P   P3        1.0  0.30146  0.14567  0.02679  1.0000
  C   C129      1.0  0.37510  0.31359  0.99474  1.0000
  C   C130      1.0  0.34776  0.00025  0.97488  1.0000
  C   C131      1.0  0.39325  0.08706  0.02365  1.0000
  H   H110      1.0  0.02528  0.17899  0.11167  1.0000
  H   H111      1.0  0.30441  0.11298  0.11195  1.0000
  C   C132      1.0  0.31249  0.26807  0.12352  1.0000
  C   C133      1.0  0.30270  0.12898  0.97655  1.0000
  H   H112      1.0  0.29636  0.17973  0.00640  1.0000
  C   C134      1.0  0.25451  0.10525  0.01214  1.0000
  H   H113      1.0  0.25178  0.08786  0.01842  1.0000
  H   H114      1.0  0.33402  0.14709  0.00502  1.0000
  C   C135      1.0  0.23580  0.09754  0.00201  1.0000
  C   C136      1.0  0.27512  0.09412  0.04033  1.0000
  H   H115      1.0  0.28628  0.19287  0.11759  1.0000
  C   C137      1.0  0.01515  0.37587  0.03100  1.0000
  H   H116      1.0  0.21924  0.00549  0.12399  1.0000
  C   C138      1.0  0.23747  0.00729  0.99411  1.0000
  H   H117      1.0  0.03639  0.38803  0.02675  1.0000
  C   C139      1.0  0.34873  0.16494  0.01097  1.0000
  C   C140      1.0  0.03381  0.21117  0.00953  1.0000
  C   C141      1.0  0.35549  0.14317  0.97291  1.0000
  C   C142      1.0  0.30082  0.11244  0.03417  1.0000
  C   C143      1.0  0.41324  0.33075  0.11098  1.0000
  H   H118      1.0  0.34351  0.01241  0.99270  1.0000
  C   C144      1.0  0.00078  0.16985  0.99683  1.0000
  P   P4        1.0  0.44001  0.35687  0.02010  1.0000
  C   C145      1.0  0.42304  0.04533  0.12124  1.0000
  H   H119      1.0  0.96532  0.43450  0.05934  1.0000
  C   C146      1.0  0.97702  0.24133  0.00692  1.0000
  C   C147      1.0  0.04103  0.22172  0.12151  1.0000
  H   H120      1.0  0.27887  0.99355  0.02923  1.0000
  H   H121      1.0  0.42150  0.35580  0.09490  1.0000
  C   C148      1.0  0.13425  0.21521  0.96163  1.0000
  H   H122      1.0  0.13112  0.25824  0.96425  1.0000
  H   H123      1.0  0.45340  0.31631  0.00384  1.0000
  C   C149      1.0  0.21548  0.03119  0.96250  1.0000
  Fe  Fe11      1.0  0.21156  0.21482  0.96260  1.0000
  H   H124      1.0  0.39002  0.18438  0.12189  1.0000
  H   H125      1.0  0.35522  0.13037  0.12097  1.0000
  C   C150      1.0  0.04409  0.25197  0.12128  1.0000
  H   H126      1.0  0.03357  0.28503  0.11181  1.0000
  H   H127      1.0  0.20929  0.11415  0.12139  1.0000
  H   H128      1.0  0.43827  0.98448  0.11100  1.0000
  H   H129      1.0  0.45766  0.29833  0.12249  1.0000
  H   H130      1.0  0.98560  0.40952  0.12297  1.0000
  C   C151      1.0  0.34532  0.00596  0.96295  1.0000
  C   C152      1.0  0.42202  0.17749  0.13353  1.0000
  S   S20       1.0  0.20985  0.99953  0.17716  1.0000
  Fe  Fe12      1.0  0.02026  0.20413  0.18508  1.0000
  S   S21       1.0  0.00287  0.24110  0.18596  1.0000
  S   S22       1.0  0.06926  0.21709  0.19154  1.0000
  H   H131      1.0  0.43109  0.16855  0.24588  1.0000
  C   C153      1.0  0.40789  0.10615  0.26295  1.0000
  C   C154      1.0  0.29099  0.06312  0.25359  1.0000
  H   H132      1.0  0.05271  0.25241  0.21063  1.0000
  S   S23       1.0  0.99679  0.18578  0.16750  1.0000
  S   S24       1.0  0.98207  0.17218  0.19587  1.0000
  Fe  Fe13      1.0  0.27185  0.17360  0.18874  1.0000
  S   S25       1.0  0.31370  0.21565  0.18675  1.0000
  S   S26       1.0  0.28061  0.13470  0.19624  1.0000
  Fe  Fe14      1.0  0.23106  0.20477  0.18095  1.0000
  S   S27       1.0  0.27106  0.24979  0.17856  1.0000
  S   S28       1.0  0.18182  0.19018  0.17440  1.0000
  Fe  Fe15      1.0  0.29344  0.22238  0.16961  1.0000
  S   S29       1.0  0.32625  0.23121  0.15425  1.0000
  Fe  Fe16      1.0  0.28879  0.23951  0.19594  1.0000
  S   S30       1.0  0.31707  0.27442  0.21013  1.0000
  S   S31       1.0  0.25300  0.17808  0.17110  1.0000
  S   S32       1.0  0.24747  0.19684  0.19888  1.0000
  C   C155      1.0  0.31764  0.03343  0.14548  1.0000
  C   C156      1.0  0.32931  0.19007  0.28004  1.0000
  H   H133      1.0  0.30975  0.09369  0.16661  1.0000
  H   H134      1.0  0.05541  0.26790  0.12842  1.0000
  H   H135      1.0  0.41049  0.24694  0.24282  1.0000
  H   H136      1.0  0.01268  0.37892  0.20088  1.0000
  C   C157      1.0  0.32103  0.16946  0.25654  1.0000
  C   C158      1.0  0.18536  0.08151  0.15010  1.0000
  Fe  Fe17      1.0  0.37838  0.28815  0.27961  1.0000
  S   S33       1.0  0.42839  0.30053  0.27991  1.0000
  S   S34       1.0  0.34358  0.26223  0.26494  1.0000
  C   C159      1.0  0.35037  0.24211  0.13204  1.0000
  C   C160      1.0  0.29601  0.04613  0.16274  1.0000
  C   C161      1.0  0.35322  0.20605  0.22138  1.0000
  C   C162      1.0  0.41303  0.97622  0.26503  1.0000
  C   C163      1.0  0.38319  0.11558  0.13197  1.0000
  C   C164      1.0  0.36846  0.16504  0.21723  1.0000
  H   H137      1.0  0.29506  0.16238  0.22038  1.0000
  C   C165      1.0  0.04797  0.26693  0.21699  1.0000
  H   H138      1.0  0.05953  0.16414  0.15044  1.0000
  C   C166      1.0  0.24434  0.14921  0.13185  1.0000
  H   H139      1.0  0.28162  0.03901  0.17031  1.0000
  H   H140      1.0  0.36998  0.09220  0.27443  1.0000
  H   H141      1.0  0.28025  0.10067  0.25943  1.0000
  C   C167      1.0  0.32548  0.26838  0.22502  1.0000
  C   C168      1.0  0.30486  0.24567  0.23185  1.0000
  C   C169      1.0  0.31100  0.24402  0.24400  1.0000
  C   C170      1.0  0.33797  0.26466  0.24945  1.0000
  C   C171      1.0  0.35923  0.28633  0.24246  1.0000
  C   C172      1.0  0.35277  0.28849  0.23040  1.0000
  H   H142      1.0  0.28372  0.23014  0.22788  1.0000
  H   H143      1.0  0.29453  0.22689  0.24926  1.0000
  H   H144      1.0  0.38049  0.30174  0.24637  1.0000
  H   H145      1.0  0.36893  0.30608  0.22520  1.0000
  H   H146      1.0  0.26750  0.08455  0.14551  1.0000
  C   C173      1.0  0.32823  0.24413  0.13950  1.0000
  H   H147      1.0  0.20410  0.15902  0.21924  1.0000
  C   C174      1.0  0.04824  0.28451  0.23714  1.0000
  H   H148      1.0  0.30159  0.29010  0.26782  1.0000
  H   H149      1.0  0.27374  0.15657  0.25935  1.0000
  C   C175      1.0  0.17624  0.10315  0.16833  1.0000
  C   C176      1.0  0.31193  0.07699  0.16062  1.0000
  H   H150      1.0  0.35151  0.01392  0.23150  1.0000
  C   C177      1.0  0.40901  0.41016  0.27184  1.0000
  H   H151      1.0  0.18151  0.12285  0.17415  1.0000
  C   C178      1.0  0.09997  0.20871  0.18666  1.0000
  C   C179      1.0  0.12732  0.22052  0.19323  1.0000
  C   C180      1.0  0.15252  0.21513  0.18966  1.0000
  C   C181      1.0  0.15079  0.19786  0.17940  1.0000
  C   C182      1.0  0.12343  0.18602  0.17281  1.0000
  C   C183      1.0  0.09818  0.19132  0.17643  1.0000
  H   H152      1.0  0.12907  0.23409  0.20114  1.0000
  H   H153      1.0  0.17330  0.22444  0.19482  1.0000
  H   H154      1.0  0.12181  0.17275  0.16483  1.0000
  H   H155      1.0  0.07742  0.18227  0.17125  1.0000
  C   C184      1.0  0.30899  0.25680  0.13509  1.0000
  H   H156      1.0  0.15762  0.03407  0.14680  1.0000
  H   H157      1.0  0.36112  0.33019  0.25847  1.0000
  H   H158      1.0  0.18239  0.17855  0.13886  1.0000
  C   C185      1.0  0.23049  0.03722  0.18219  1.0000
  C   C186      1.0  0.25085  0.04375  0.19174  1.0000
  C   C187      1.0  0.26637  0.07388  0.19584  1.0000
  C   C188      1.0  0.26167  0.09757  0.19042  1.0000
  C   C189      1.0  0.24190  0.09119  0.18068  1.0000
  C   C190      1.0  0.22626  0.06102  0.17660  1.0000
  H   H159      1.0  0.25433  0.02554  0.19606  1.0000
  H   H160      1.0  0.28185  0.07889  0.20331  1.0000
  H   H161      1.0  0.23832  0.10940  0.17643  1.0000
  H   H162      1.0  0.21084  0.05605  0.16912  1.0000
  H   H163      1.0  0.41669  0.34958  0.25893  1.0000
  C   C191      1.0  0.04126  0.36595  0.21238  1.0000
  S   S35       1.0  0.39626  0.03844  0.28554  1.0000
  C   C192      1.0  0.16269  0.05341  0.15277  1.0000
  C   C193      1.0  0.32988  0.16362  0.14031  1.0000
  C   C194      1.0  0.30971  0.97423  0.23038  1.0000
  H   H164      1.0  0.98968  0.17486  0.12955  1.0000
  H   H165      1.0  0.02389  0.24104  0.14534  1.0000
  C   C195      1.0  0.30802  0.32791  0.23113  1.0000
  H   H166      1.0  0.07216  0.12507  0.17271  1.0000
  C   C196      1.0  0.22889  0.18616  0.14129  1.0000
  C   C197      1.0  0.25114  0.17564  0.13883  1.0000
  C   C198      1.0  0.35034  0.18352  0.26140  1.0000
  C   C199      1.0  0.25694  0.14567  0.23166  1.0000
  C   C200      1.0  0.41703  0.15143  0.25183  1.0000
  H   H167      1.0  0.34280  0.11014  0.14936  1.0000
  C   C201      1.0  0.30900  0.33073  0.27825  1.0000
  C   C202      1.0  0.98792  0.36503  0.22936  1.0000
  C   C203      1.0  0.30809  0.15051  0.16317  1.0000
  H   H168      1.0  0.40162  0.98675  0.25959  1.0000
  C   C204      1.0  0.28000  0.38062  0.27381  1.0000
  H   H169      1.0  0.37083  0.14888  0.21101  1.0000
  C   C205      1.0  0.07178  0.04667  0.18024  1.0000
  C   C206      1.0  0.44446  0.98575  0.26473  1.0000
  C   C207      1.0  0.22152  0.97612  0.23260  1.0000
  H   H170      1.0  0.27359  0.18810  0.14249  1.0000
  H   H171      1.0  0.23430  0.20627  0.14689  1.0000
  H   H172      1.0  0.02374  0.02913  0.17713  1.0000
  C   C208      1.0  0.16142  0.13900  0.20992  1.0000
  H   H173      1.0  0.35022  0.18534  0.20413  1.0000
  H   H174      1.0  0.37323  0.03796  0.14839  1.0000
  H   H175      1.0  0.05294  0.28343  0.24647  1.0000
  H   H176      1.0  0.96615  0.16327  0.22558  1.0000
  C   C209      1.0  0.02767  0.17242  0.13905  1.0000
  H   H177      1.0  0.29192  0.25861  0.14069  1.0000
  P   P5        1.0  0.05533  0.20786  0.13387  1.0000
  H   H178      1.0  0.34409  0.22187  0.21833  1.0000
  C   C210      1.0  0.20970  0.00666  0.21833  1.0000
  C   C211      1.0  0.05789  0.41324  0.20176  1.0000
  C   C212      1.0  0.43287  0.21892  0.26686  1.0000
  C   C213      1.0  0.98898  0.33651  0.22772  1.0000
  C   C214      1.0  0.33377  0.06435  0.14323  1.0000
  C   C215      1.0  0.29577  0.08260  0.27386  1.0000
  C   C216      1.0  0.12823  0.03457  0.19169  1.0000
  C   C217      1.0  0.09912  0.10075  0.17758  1.0000
  H   H179      1.0  0.12921  0.02820  0.16515  1.0000
  C   C218      1.0  0.14279  0.99247  0.19473  1.0000
  H   H180      1.0  0.35404  0.17534  0.16907  1.0000
  C   C219      1.0  0.15590  0.09883  0.19562  1.0000
  H   H181      1.0  0.35482  0.13304  0.26877  1.0000
  C   C220      1.0  0.02831  0.30498  0.22129  1.0000
  H   H182      1.0  0.41547  0.10928  0.14381  1.0000
  H   H183      1.0  0.35977  0.01074  0.25311  1.0000
  S   S36       1.0  0.38318  0.32982  0.29035  1.0000
  H   H184      1.0  0.37658  0.20421  0.27728  1.0000
  H   H185      1.0  0.97277  0.29068  0.23410  1.0000
  C   C221      1.0  0.06449  0.23290  0.14673  1.0000
  C   C222      1.0  0.28820  0.14066  0.15344  1.0000
  H   H186      1.0  0.15244  0.15379  0.21414  1.0000
  S   S37       1.0  0.30594  0.97702  0.21475  1.0000
  C   C223      1.0  0.35688  0.18558  0.21334  1.0000
  C   C224      1.0  0.09005  0.23767  0.15383  1.0000
  C   C225      1.0  0.09601  0.25578  0.16413  1.0000
  C   C226      1.0  0.07631  0.26882  0.16752  1.0000
  C   C227      1.0  0.05068  0.26388  0.16058  1.0000
  C   C228      1.0  0.04454  0.24563  0.15033  1.0000
  S   S38       1.0  0.97216  0.25187  0.15475  1.0000
  C   C229      1.0  0.40962  0.12544  0.13900  1.0000
  C   C230      1.0  0.12136  0.98139  0.20349  1.0000
  H   H187      1.0  0.31731  0.16080  0.24754  1.0000
  C   C231      1.0  0.30375  0.33594  0.25214  1.0000
  C   C232      1.0  0.29887  0.02436  0.15518  1.0000
  C   C233      1.0  0.37657  0.16509  0.22915  1.0000
  C   C234      1.0  0.40095  0.99290  0.22232  1.0000
  H   H188      1.0  0.22491  0.12542  0.20935  1.0000
  H   H189      1.0  0.30927  0.11947  0.22364  1.0000
  H   H190      1.0  0.42643  0.19919  0.27236  1.0000
  H   H191      1.0  0.98748  0.22307  0.22720  1.0000
  H   H192      1.0  0.11538  0.25885  0.16972  1.0000
  H   H193      1.0  0.08048  0.28199  0.17570  1.0000
  H   H194      1.0  0.03507  0.27352  0.16330  1.0000
  C   C235      1.0  0.14398  0.11729  0.20145  1.0000
  C   C236      1.0  0.14656  0.01919  0.18898  1.0000
  C   C237      1.0  0.09904  0.07265  0.18075  1.0000
  C   C238      1.0  0.45915  0.24440  0.26983  1.0000
  H   H195      1.0  0.45094  0.03636  0.27710  1.0000
  H   H196      1.0  0.24410  0.02933  0.14303  1.0000
  C   C239      1.0  0.43348  0.02944  0.23685  1.0000
  C   C240      1.0  0.25030  0.03085  0.23286  1.0000
  C   C241      1.0  0.23275  0.03277  0.22316  1.0000
  P   P6        1.0  0.28221  0.06451  0.23803  1.0000
  C   C242      1.0  0.27259  0.09643  0.23544  1.0000
  C   C243      1.0  0.24651  0.09705  0.24042  1.0000
  C   C244      1.0  0.31480  0.06740  0.22980  1.0000
  C   C245      1.0  0.34388  0.08434  0.23448  1.0000
  C   C246      1.0  0.36920  0.08624  0.22823  1.0000
  C   C247      1.0  0.36566  0.07171  0.21717  1.0000
  C   C248      1.0  0.33681  0.05481  0.21248  1.0000
  C   C249      1.0  0.31148  0.05244  0.21878  1.0000
  H   H197      1.0  0.10501  0.22682  0.15169  1.0000
  H   H198      1.0  0.29960  0.14613  0.17205  1.0000
  H   H199      1.0  0.23737  0.05430  0.21906  1.0000
  H   H200      1.0  0.30670  0.02751  0.25098  1.0000
  H   H201      1.0  0.23221  0.07846  0.24576  1.0000
  H   H202      1.0  0.21886  0.12218  0.24255  1.0000
  H   H203      1.0  0.34695  0.09578  0.24301  1.0000
  H   H204      1.0  0.39153  0.09881  0.23199  1.0000
  H   H205      1.0  0.38515  0.07305  0.21230  1.0000
  H   H206      1.0  0.33387  0.04258  0.20409  1.0000
  H   H207      1.0  0.28946  0.03835  0.21507  1.0000
  H   H208      1.0  0.32003  0.01631  0.13980  1.0000
  H   H209      1.0  0.19429  0.08710  0.19451  1.0000
  H   H210      1.0  0.31922  0.02520  0.27202  1.0000
  C   C250      1.0  0.40581  0.36377  0.26217  1.0000
  C   C251      1.0  0.42311  0.39251  0.26708  1.0000
  H   H211      1.0  0.02523  0.33136  0.19096  1.0000
  C   C252      1.0  0.37757  0.39939  0.27146  1.0000
  H   H212      1.0  0.38405  0.98700  0.21525  1.0000
  C   C253      1.0  0.31916  0.41194  0.26085  1.0000
  C   C254      1.0  0.19050  0.14187  0.21282  1.0000
  C   C255      1.0  0.41287  0.02218  0.22734  1.0000
  H   H213      1.0  0.10454  0.44365  0.20435  1.0000
  C   C256      1.0  0.28804  0.08360  0.26196  1.0000
  H   H214      1.0  0.02125  0.11809  0.15903  1.0000
  H   H215      1.0  0.36541  0.23241  0.13535  1.0000
  C   C257      1.0  0.24340  0.04346  0.13575  1.0000
  C   C258      1.0  0.40668  0.02594  0.14062  1.0000
  C   C259      1.0  0.33524  0.99578  0.23640  1.0000
  P   P7        1.0  0.27292  0.13476  0.12939  1.0000
  C   C260      1.0  0.26867  0.40305  0.27437  1.0000
  C   C261      1.0  0.31038  0.04144  0.26921  1.0000
  H   H216      1.0  0.00005  0.38364  0.22367  1.0000
  C   C262      1.0  0.37419  0.13168  0.26465  1.0000
  C   C263      1.0  0.30296  0.04259  0.25731  1.0000
  C   C264      1.0  0.42897  0.15627  0.13976  1.0000
  H   H217      1.0  0.38541  0.14900  0.23191  1.0000
  H   H218      1.0  0.03054  0.28714  0.20384  1.0000
  C   C265      1.0  0.20223  0.12308  0.20725  1.0000
  H   H219      1.0  0.09426  0.03627  0.20350  1.0000
  C   C266      1.0  0.07206  0.10316  0.17477  1.0000
  H   H220      1.0  0.29364  0.09850  0.28028  1.0000
  C   C267      1.0  0.04487  0.07742  0.17477  1.0000
  H   H221      1.0  0.12006  0.12094  0.17748  1.0000
  C   C268      1.0  0.28207  0.14452  0.22625  1.0000
  C   C269      1.0  0.97256  0.31291  0.23525  1.0000
  H   H222      1.0  0.16404  0.02774  0.18252  1.0000
  C   C270      1.0  0.38265  0.10831  0.26788  1.0000
  C   C271      1.0  0.41503  0.21912  0.25700  1.0000
  H   H223      1.0  0.36704  0.41299  0.27549  1.0000
  C   C272      1.0  0.38632  0.03973  0.14059  1.0000
  H   H224      1.0  0.32129  0.33284  0.22320  1.0000
  H   H225      1.0  0.26946  0.29315  0.22246  1.0000
  C   C273      1.0  0.29899  0.14682  0.14191  1.0000
  H   H226      1.0  0.19787  0.08389  0.14208  1.0000
  H   H227      1.0  0.23879  0.28127  0.24053  1.0000
  C   C274      1.0  0.21512  0.13419  0.12698  1.0000
  C   C275      1.0  0.37283  0.18546  0.23732  1.0000
  C   C276      1.0  0.30584  0.38530  0.26730  1.0000
  C   C277      1.0  0.18497  0.10160  0.19870  1.0000
  H   H228      1.0  0.96531  0.12001  0.21318  1.0000
  C   C278      1.0  0.33067  0.08615  0.15085  1.0000
  H   H229      1.0  0.99464  0.23353  0.24891  1.0000
  H   H230      1.0  0.37339  0.18721  0.14882  1.0000
  C   C279      1.0  0.23888  0.12172  0.23862  1.0000
  C   C280      1.0  0.36010  0.37094  0.26617  1.0000
  H   H231      1.0  0.07561  0.36086  0.22345  1.0000
  Fe  Fe18      1.0  0.35434  0.99526  0.28607  1.0000
  C   C281      1.0  0.42515  0.12775  0.25495  1.0000
  H   H232      1.0  0.07122  0.02448  0.18202  1.0000
  C   C282      1.0  0.19285  0.14475  0.12948  1.0000
  H   H233      1.0  0.26433  0.12866  0.15494  1.0000
  P   P8        1.0  0.31953  0.35583  0.26592  1.0000
  H   H234      1.0  0.31262  0.06048  0.28672  1.0000
  H   H235      1.0  0.08762  0.98891  0.21355  1.0000
  Fe  Fe19      1.0  0.96367  0.20809  0.19581  1.0000
  C   C283      1.0  0.33885  0.16682  0.16150  1.0000
  C   C284      1.0  0.99714  0.16230  0.13569  1.0000
  C   C285      1.0  0.04479  0.04915  0.17734  1.0000
  C   C286      1.0  0.32054  0.34320  0.24179  1.0000
  H   H236      1.0  0.35695  0.22116  0.23949  1.0000
  H   H237      1.0  0.26032  0.30865  0.25939  1.0000
  C   C287      1.0  0.15412  0.07472  0.17125  1.0000
  C   C288      1.0  0.29618  0.16665  0.26327  1.0000
  C   C289      1.0  0.28996  0.12003  0.22810  1.0000
  C   C290      1.0  0.36065  0.20565  0.23334  1.0000
  C   C291      1.0  0.10751  0.02388  0.20082  1.0000
  H   H238      1.0  0.28113  0.17494  0.28023  1.0000
  H   H239      1.0  0.40822  0.01314  0.14819  1.0000
  H   H240      1.0  0.25121  0.16488  0.23021  1.0000
  C   C292      1.0  0.30662  0.06130  0.27750  1.0000
  H   H241      1.0  0.12133  0.11513  0.19958  1.0000
  C   C293      1.0  0.37441  0.35292  0.26184  1.0000
  H   H242      1.0  0.33823  0.41531  0.25533  1.0000
  C   C294      1.0  0.08689  0.42206  0.20662  1.0000
  P   P9        1.0  0.13397  0.07008  0.18485  1.0000
  C   C295      1.0  0.19180  0.10646  0.15779  1.0000
  H   H243      1.0  0.34333  0.36046  0.24189  1.0000
  C   C296      1.0  0.14682  0.05010  0.16323  1.0000
  C   C297      1.0  0.34974  0.17339  0.15007  1.0000
  C   C298      1.0  0.39118  0.15331  0.25649  1.0000
  H   H244      1.0  0.20891  0.12842  0.15562  1.0000
  C   C299      1.0  0.42373  0.24559  0.25033  1.0000
  C   C300      1.0  0.27391  0.31405  0.25157  1.0000
  H   H245      1.0  0.28686  0.00039  0.15692  1.0000
  C   C301      1.0  0.01467  0.13006  0.15233  1.0000
  C   C302      1.0  0.35430  0.19360  0.27325  1.0000
  C   C303      1.0  0.10387  0.99721  0.20660  1.0000
  C   C304      1.0  0.03514  0.28653  0.21315  1.0000
  C   C305      1.0  0.96318  0.24450  0.13933  1.0000
  C   C306      1.0  0.03547  0.30420  0.23332  1.0000
  C   C307      1.0  0.30032  0.17694  0.27502  1.0000
  H   H246      1.0  0.26839  0.35959  0.27836  1.0000
  C   C308      1.0  0.27868  0.30546  0.23071  1.0000
  H   H247      1.0  0.27376  0.44724  0.26863  1.0000
  H   H248      1.0  0.44110  0.01840  0.13105  1.0000
  C   C309      1.0  0.26156  0.29865  0.24091  1.0000
  C   C310      1.0  0.03626  0.15615  0.14744  1.0000
  C   C311      1.0  0.98404  0.30308  0.18195  1.0000
  C   C312      1.0  0.09309  0.40307  0.21443  1.0000
  H   H249      1.0  0.11556  0.40994  0.21822  1.0000
  P   P10       1.0  0.38212  0.18515  0.25290  1.0000
  H   H250      1.0  0.19690  0.00832  0.21066  1.0000
  H   H251      1.0  0.41432  0.08800  0.26552  1.0000
  C   C313      1.0  0.30157  0.29959  0.27655  1.0000
  C   C314      1.0  0.38344  0.05571  0.13069  1.0000
  H   H252      1.0  0.96742  0.10063  0.15308  1.0000
  S   S39       1.0  0.27862  0.98079  0.18363  1.0000
  H   H253      1.0  0.03100  0.31855  0.23978  1.0000
  C   C315      1.0  0.44998  0.27108  0.25338  1.0000
  H   H254      1.0  0.96142  0.28792  0.13664  1.0000
  H   H255      1.0  0.06394  0.25027  0.23194  1.0000
  H   H256      1.0  0.42258  0.43186  0.27608  1.0000
  C   C316      1.0  0.44279  0.00749  0.24130  1.0000
  H   H257      1.0  0.44746  0.40067  0.26758  1.0000
  C   C317      1.0  0.07035  0.37517  0.21735  1.0000
  H   H258      1.0  0.29034  0.25662  0.28483  1.0000
  C   C318      1.0  0.05437  0.26579  0.22899  1.0000
  C   C319      1.0  0.97451  0.23292  0.24451  1.0000
  H   H259      1.0  0.44114  0.05182  0.24090  1.0000
  P   P11       1.0  0.01158  0.33022  0.21625  1.0000
  C   C320      1.0  0.30778  0.43431  0.26142  1.0000
  C   C321      1.0  0.03512  0.38536  0.20466  1.0000
  H   H260      1.0  0.33249  0.19789  0.28916  1.0000
  Fe  Fe20      1.0  0.97677  0.22043  0.16903  1.0000
  H   H261      1.0  0.05304  0.42801  0.19575  1.0000
  H   H262      1.0  0.44511  0.12642  0.25134  1.0000
  H   H263      1.0  0.99415  0.30588  0.17333  1.0000
  C   C322      1.0  0.19967  0.17058  0.13672  1.0000
  H   H264      1.0  0.02386  0.07935  0.17274  1.0000
  H   H265      1.0  0.15675  0.98052  0.19240  1.0000
  H   H266      1.0  0.24886  0.39941  0.27948  1.0000
  C   C323      1.0  0.29521  0.28046  0.28621  1.0000
  H   H267      1.0  0.40527  0.03891  0.22409  1.0000
  Fe  Fe21      1.0  0.43293  0.34039  0.29185  1.0000
  H   H268      1.0  0.43714  0.20133  0.13403  1.0000
  C   C324      1.0  0.31095  0.34264  0.28978  1.0000
  C   C325      1.0  0.25593  0.09367  0.12779  1.0000
  C   C326      1.0  0.24464  0.00218  0.23745  1.0000
  C   C327      1.0  0.98433  0.12019  0.14896  1.0000
  C   C328      1.0  0.28264  0.42995  0.26823  1.0000
  C   C329      1.0  0.33993  0.99410  0.24868  1.0000
  C   C330      1.0  0.98858  0.31304  0.20321  1.0000
  H   H269      1.0  0.31828  0.45492  0.25649  1.0000
  H   H270      1.0  0.44949  0.16366  0.14509  1.0000
  C   C331      1.0  0.00150  0.31749  0.19197  1.0000
  P   P12       1.0  0.35877  0.07556  0.13082  1.0000
  H   H271      1.0  0.45635  0.29150  0.24828  1.0000
  H   H272      1.0  0.33856  0.17022  0.13160  1.0000
  H   H273      1.0  0.25825  0.99950  0.24458  1.0000
  H   H274      1.0  0.99643  0.45149  0.29017  1.0000
  C   C332      1.0  0.97559  0.13628  0.14063  1.0000
  H   H275      1.0  0.97037  0.39191  0.23974  1.0000
  C   C333      1.0  0.97050  0.22692  0.23219  1.0000
  H   H276      1.0  0.11643  0.25150  0.12948  1.0000
  C   C334      1.0  0.97111  0.36989  0.23848  1.0000
  C   C335      1.0  0.20398  0.97836  0.22308  1.0000
  C   C336      1.0  0.25670  0.07508  0.13713  1.0000
  C   C337      1.0  0.08830  0.20329  0.12878  1.0000
  H   H277      1.0  0.31819  0.36681  0.29136  1.0000
  H   H278      1.0  0.97996  0.46228  0.27096  1.0000
  C   C338      1.0  0.43086  0.97816  0.23612  1.0000
  H   H279      1.0  0.96291  0.19993  0.13895  1.0000
  C   C339      1.0  0.42509  0.02879  0.13096  1.0000
  C   C340      1.0  0.11523  0.22901  0.12736  1.0000
  C   C341      1.0  0.39550  0.16794  0.12670  1.0000
  C   C342      1.0  0.43778  0.36851  0.42490  1.0000
  S   S40       1.0  0.40002  0.03635  0.31511  1.0000
  Fe  Fe22      1.0  0.37910  0.30284  0.30672  1.0000
  S   S41       1.0  0.42860  0.31490  0.30867  1.0000
  S   S42       1.0  0.34738  0.30587  0.32094  1.0000
  C   C343      1.0  0.32186  0.24288  0.36618  1.0000
  Fe  Fe23      1.0  0.28658  0.35273  0.40262  1.0000
  S   S43       1.0  0.30758  0.31824  0.40285  1.0000
  S   S44       1.0  0.23495  0.33428  0.39976  1.0000
  Fe  Fe24      1.0  0.34815  0.40554  0.40526  1.0000
  S   S45       1.0  0.37237  0.37488  0.40569  1.0000
  H   H280      1.0  0.97855  0.27346  0.32956  1.0000
  Fe  Fe25      1.0  0.34199  0.34917  0.39047  1.0000
  S   S46       1.0  0.36902  0.33654  0.37638  1.0000
  Fe  Fe26      1.0  0.33679  0.34644  0.41805  1.0000
  S   S47       1.0  0.35575  0.32597  0.43266  1.0000
  S   S48       1.0  0.31958  0.38186  0.38927  1.0000
  S   S49       1.0  0.31384  0.37887  0.41860  1.0000
  Fe  Fe27      1.0  0.02117  0.32392  0.38928  1.0000
  S   S50       1.0  0.05842  0.37076  0.38864  1.0000
  S   S51       1.0  0.00563  0.29527  0.37191  1.0000
  Fe  Fe28      1.0  0.01424  0.32958  0.41677  1.0000
  S   S52       1.0  0.05107  0.37683  0.41731  1.0000
  C   C344      1.0  0.44709  0.43856  0.31671  1.0000
  Fe  Fe29      1.0  0.02982  0.38466  0.40074  1.0000
  S   S53       1.0  0.01313  0.42156  0.39773  1.0000
  Fe  Fe30      1.0  0.07715  0.35870  0.40525  1.0000
  S   S54       1.0  0.12846  0.37865  0.40926  1.0000
  S   S55       1.0  0.99171  0.33859  0.40054  1.0000
  S   S56       1.0  0.04126  0.31055  0.40546  1.0000
  C   C345      1.0  0.01617  0.39792  0.43997  1.0000
  C   C346      1.0  0.43730  0.28728  0.35015  1.0000
  C   C347      1.0  0.11503  0.44107  0.37805  1.0000
  H   H281      1.0  0.01695  0.28971  0.44736  1.0000
  H   H282      1.0  0.29188  0.27770  0.30517  1.0000
  C   C348      1.0  0.33941  0.20203  0.33001  1.0000
  C   C349      1.0  0.44073  0.46803  0.36232  1.0000
  H   H283      1.0  0.28215  0.99880  0.37731  1.0000
  H   H284      1.0  0.28252  0.19000  0.30389  1.0000
  H   H285      1.0  0.31997  0.97377  0.42329  1.0000
  H   H286      1.0  0.99041  0.46483  0.32965  1.0000
  H   H287      1.0  0.43368  0.38242  0.37102  1.0000
  C   C350      1.0  0.20585  0.34739  0.40245  1.0000
  C   C351      1.0  0.21148  0.37549  0.40796  1.0000
  C   C352      1.0  0.18758  0.38457  0.40993  1.0000
  C   C353      1.0  0.15767  0.36584  0.40643  1.0000
  C   C354      1.0  0.15205  0.33780  0.40090  1.0000
  C   C355      1.0  0.17593  0.32870  0.39895  1.0000
  H   H288      1.0  0.23425  0.39017  0.41072  1.0000
  H   H289      1.0  0.19236  0.40629  0.41422  1.0000
  H   H290      1.0  0.12930  0.32304  0.39815  1.0000
  H   H291      1.0  0.17117  0.30693  0.39469  1.0000
  C   C356      1.0  0.38785  0.13583  0.30062  1.0000
  C   C357      1.0  0.35762  0.32852  0.44841  1.0000
  P   P13       1.0  0.45717  0.43177  0.45182  1.0000
  H   H292      1.0  0.32639  0.34948  0.45041  1.0000
  H   H293      1.0  0.38896  0.30731  0.44957  1.0000
  C   C358      1.0  0.30776  0.19029  0.37112  1.0000
  H   H294      1.0  0.99460  0.44056  0.42146  1.0000
  C   C359      1.0  0.29629  0.29233  0.29764  1.0000
  C   C360      1.0  0.98742  0.29890  0.35849  1.0000
  C   C361      1.0  0.99920  0.29118  0.45262  1.0000
  H   H295      1.0  0.98055  0.20567  0.32321  1.0000
  C   C362      1.0  0.37260  0.15517  0.30084  1.0000
  S   S57       1.0  0.37503  0.97350  0.29882  1.0000
  C   C363      1.0  0.13159  0.43407  0.38680  1.0000
  H   H296      1.0  0.96557  0.41839  0.45196  1.0000
  H   H297      1.0  0.96585  0.18750  0.34350  1.0000
  C   C364      1.0  0.03527  0.42074  0.44776  1.0000
  C   C365      1.0  0.35433  0.31509  0.33628  1.0000
  C   C366      1.0  0.33148  0.31798  0.34302  1.0000
  C   C367      1.0  0.33563  0.32476  0.35526  1.0000
  C   C368      1.0  0.36267  0.32850  0.36094  1.0000
  C   C369      1.0  0.38559  0.32566  0.35420  1.0000
  C   C370      1.0  0.38151  0.31906  0.34194  1.0000
  H   H298      1.0  0.31032  0.31486  0.33876  1.0000
  H   H299      1.0  0.31779  0.32684  0.36031  1.0000
  H   H300      1.0  0.40655  0.32842  0.35852  1.0000
  H   H301      1.0  0.39914  0.31655  0.33691  1.0000
  H   H302      1.0  0.45367  0.03260  0.37205  1.0000
  H   H303      1.0  0.37278  0.99937  0.34683  1.0000
  H   H304      1.0  0.30634  0.33264  0.30835  1.0000
  H   H305      1.0  0.11591  0.35005  0.43458  1.0000
  C   C371      1.0  0.34063  0.34053  0.45495  1.0000
  C   C372      1.0  0.41978  0.38501  0.32026  1.0000
  H   H306      1.0  0.35082  0.24990  0.32780  1.0000
  H   H307      1.0  0.13312  0.40561  0.43355  1.0000
  C   C373      1.0  0.14782  0.45582  0.39541  1.0000
  H   H308      1.0  0.00438  0.27115  0.34839  1.0000
  H   H309      1.0  0.34833  0.14554  0.30148  1.0000
  H   H310      1.0  0.00100  0.37993  0.30763  1.0000
  H   H311      1.0  0.35073  0.40246  0.44026  1.0000
  C   C374      1.0  0.03970  0.45101  0.44593  1.0000
  C   C375      1.0  0.43200  0.45226  0.35141  1.0000
  C   C376      1.0  0.01099  0.45273  0.31464  1.0000
  H   H312      1.0  0.96581  0.32612  0.36584  1.0000
  H   H313      1.0  0.13173  0.41161  0.38697  1.0000
  H   H314      1.0  0.45946  0.19024  0.29910  1.0000
  C   C377      1.0  0.39678  0.41603  0.44601  1.0000
  H   H315      1.0  0.44650  0.30282  0.35763  1.0000
  C   C378      1.0  0.44292  0.34496  0.43013  1.0000
  C   C379      1.0  0.04498  0.41108  0.34250  1.0000
  C   C380      1.0  0.02542  0.38892  0.34979  1.0000
  C   C381      1.0  0.02604  0.39456  0.36196  1.0000
  C   C382      1.0  0.04637  0.42224  0.36686  1.0000
  C   C383      1.0  0.06643  0.44445  0.35963  1.0000
  C   C384      1.0  0.06542  0.43877  0.34739  1.0000
  H   H316      1.0  0.43840  0.41295  0.42719  1.0000
  C   C385      1.0  0.45408  0.39878  0.44310  1.0000
  H   H317      1.0  0.42180  0.01512  0.43279  1.0000
  C   C386      1.0  0.28296  0.27305  0.45020  1.0000
  C   C387      1.0  0.44416  0.99728  0.42039  1.0000
  C   C388      1.0  0.29249  0.99879  0.35895  1.0000
  C   C389      1.0  0.37702  0.44995  0.43738  1.0000
  C   C390      1.0  0.44072  0.27252  0.32989  1.0000
  C   C391      1.0  0.42911  0.45568  0.40615  1.0000
  C   C392      1.0  0.37263  0.42115  0.44126  1.0000
  C   C393      1.0  0.08031  0.34485  0.44668  1.0000
  H   H318      1.0  0.45089  0.98195  0.45657  1.0000
  H   H319      1.0  0.07761  0.45553  0.40204  1.0000
  H   H320      1.0  0.07249  0.32038  0.44696  1.0000
  C   C394      1.0  0.30343  0.25970  0.45166  1.0000
  H   H321      1.0  0.28626  0.14543  0.31334  1.0000
  H   H322      1.0  0.04452  0.40650  0.33309  1.0000
  H   H323      1.0  0.01006  0.36723  0.34603  1.0000
  H   H324      1.0  0.01116  0.37728  0.36767  1.0000
  H   H325      1.0  0.04685  0.42613  0.37634  1.0000
  C   C395      1.0  0.99034  0.28373  0.34813  1.0000
  C   C396      1.0  0.00155  0.40508  0.43055  1.0000
  C   C397      1.0  0.37572  0.31665  0.45453  1.0000
  H   H326      1.0  0.13548  0.45211  0.42206  1.0000
  H   H327      1.0  0.10308  0.42379  0.37140  1.0000
  H   H328      1.0  0.98751  0.38733  0.42437  1.0000
  S   S58       1.0  0.44085  0.23986  0.29977  1.0000
  H   H329      1.0  0.37650  0.20150  0.30105  1.0000
  H   H330      1.0  0.30717  0.02274  0.35902  1.0000
  C   C398      1.0  0.96887  0.31481  0.35795  1.0000
  C   C399      1.0  0.28791  0.98152  0.34850  1.0000
  C   C400      1.0  0.03543  0.46007  0.40102  1.0000
  H   H331      1.0  0.32522  0.16487  0.36009  1.0000
  C   C401      1.0  0.42562  0.99542  0.42997  1.0000
  C   C402      1.0  0.39769  0.24191  0.34144  1.0000
  C   C403      1.0  0.41036  0.26160  0.35122  1.0000
  P   P14       1.0  0.36374  0.20791  0.34282  1.0000
  C   C404      1.0  0.37626  0.17759  0.34431  1.0000
  C   C405      1.0  0.38130  0.16324  0.33418  1.0000
  C   C406      1.0  0.39132  0.13999  0.33522  1.0000
  C   C407      1.0  0.39724  0.13147  0.34638  1.0000
  C   C408      1.0  0.39350  0.14651  0.35650  1.0000
  C   C409      1.0  0.38333  0.16971  0.35548  1.0000
  C   C410      1.0  0.32057  0.17255  0.32600  1.0000
  C   C411      1.0  0.30047  0.16823  0.31647  1.0000
  C   C412      1.0  0.33892  0.23951  0.35687  1.0000
  C   C413      1.0  0.45687  0.39050  0.36820  1.0000
  H   H332      1.0  0.39955  0.25732  0.35969  1.0000
  H   H333      1.0  0.37766  0.17006  0.32544  1.0000
  H   H334      1.0  0.39462  0.12869  0.32732  1.0000
  H   H335      1.0  0.40506  0.11346  0.34715  1.0000
  H   H336      1.0  0.39869  0.14030  0.36514  1.0000
  H   H337      1.0  0.38126  0.18165  0.36338  1.0000
  H   H338      1.0  0.32111  0.15285  0.33028  1.0000
  H   H339      1.0  0.02775  0.43246  0.30082  1.0000
  H   H340      1.0  0.96627  0.41289  0.33679  1.0000
  H   H341      1.0  0.16043  0.45002  0.40219  1.0000
  H   H342      1.0  0.32062  0.26460  0.36782  1.0000
  H   H343      1.0  0.42832  0.36551  0.41600  1.0000
  C   C414      1.0  0.42548  0.43988  0.44720  1.0000
  C   C415      1.0  0.42125  0.41167  0.31510  1.0000
  H   H344      1.0  0.40260  0.41124  0.30964  1.0000
  C   C416      1.0  0.32503  0.18692  0.36185  1.0000
  H   H345      1.0  0.40065  0.41180  0.34229  1.0000
  C   C417      1.0  0.99339  0.44676  0.32480  1.0000
  C   C418      1.0  0.30431  0.32342  0.29942  1.0000
  H   H346      1.0  0.23047  0.98411  0.39540  1.0000
  H   H347      1.0  0.38867  0.41625  0.37967  1.0000
  H   H348      1.0  0.39992  0.36406  0.31886  1.0000
  C   C419      1.0  0.40079  0.42633  0.37178  1.0000
  S   S59       1.0  0.45748  0.00623  0.30002  1.0000
  C   C420      1.0  0.30642  0.21834  0.37335  1.0000
  C   C421      1.0  0.97542  0.28473  0.33742  1.0000
  H   H349      1.0  0.31468  0.24208  0.31133  1.0000
  C   C422      1.0  0.42509  0.45467  0.37251  1.0000
  C   C423      1.0  0.10480  0.36152  0.43974  1.0000
  C   C424      1.0  0.97920  0.30210  0.44754  1.0000
  H   H350      1.0  0.08074  0.45536  0.34165  1.0000
  H   H351      1.0  0.18585  0.99624  0.39609  1.0000
  H   H352      1.0  0.44337  0.98597  0.38289  1.0000
  C   C425      1.0  0.44423  0.38513  0.32694  1.0000
  H   H353      1.0  0.39325  0.39313  0.44831  1.0000
  S   S60       1.0  0.36645  0.09610  0.30175  1.0000
  C   C426      1.0  0.99914  0.39869  0.31247  1.0000
  Fe  Fe31      1.0  0.35825  0.99275  0.31386  1.0000
  H   H354      1.0  0.24733  0.28211  0.45805  1.0000
  H   H355      1.0  0.37917  0.99125  0.36818  1.0000
  H   H356      1.0  0.31894  0.26108  0.44467  1.0000
  C   C427      1.0  0.01393  0.42842  0.30856  1.0000
  H   H357      1.0  0.44297  0.36407  0.33064  1.0000
  C   C428      1.0  0.45410  0.34839  0.44175  1.0000
  Fe  Fe32      1.0  0.41608  0.01773  0.29941  1.0000
  H   H358      1.0  0.41762  0.43137  0.40579  1.0000
  H   H359      1.0  0.40463  0.23185  0.32327  1.0000
  H   H360      1.0  0.35014  0.25863  0.35125  1.0000
  C   C429      1.0  0.36026  0.97741  0.35057  1.0000
  C   C430      1.0  0.98203  0.39307  0.32265  1.0000
  H   H361      1.0  0.29528  0.17115  0.37656  1.0000
  H   H362      1.0  0.43756  0.32382  0.42525  1.0000
  S   S61       1.0  0.33443  0.01148  0.30110  1.0000
  C   C431      1.0  0.31649  0.22259  0.31531  1.0000
  C   C432      1.0  0.00566  0.43511  0.42889  1.0000
  C   C433      1.0  0.38849  0.18695  0.30053  1.0000
  C   C434      1.0  0.41334  0.24729  0.33082  1.0000
  H   H363      1.0  0.01297  0.37453  0.44107  1.0000
  C   C435      1.0  0.97931  0.41712  0.32884  1.0000
  Fe  Fe33      1.0  0.37743  0.05407  0.30122  1.0000
  H   H364      1.0  0.44488  0.39048  0.35006  1.0000
  C   C436      1.0  0.33708  0.22700  0.32464  1.0000
  C   C437      1.0  0.09953  0.40776  0.44540  1.0000
  H   H365      1.0  0.37276  0.38932  0.36034  1.0000
  H   H366      1.0  0.43137  0.46637  0.38103  1.0000
  C   C438      1.0  0.29836  0.19326  0.31115  1.0000
  S   S62       1.0  0.37286  0.45708  0.40632  1.0000
  C   C439      1.0  0.39189  0.41108  0.36087  1.0000
  C   C440      1.0  0.18507  0.97697  0.39081  1.0000
  C   C441      1.0  0.41989  0.19984  0.29987  1.0000
  C   C442      1.0  0.40757  0.42391  0.35071  1.0000
  C   C443      1.0  0.11450  0.39298  0.43915  1.0000
  C   C444      1.0  0.43516  0.18051  0.29954  1.0000
  S   S63       1.0  0.98165  0.31416  0.43251  1.0000
  H   H367      1.0  0.10677  0.43200  0.44465  1.0000
  C   C445      1.0  0.34152  0.21181  0.35489  1.0000
  H   H368      1.0  0.29321  0.22109  0.38056  1.0000
  C   C446      1.0  0.45236  0.29282  0.33946  1.0000
  H   H369      1.0  0.97095  0.37003  0.32574  1.0000
  H   H370      1.0  0.28279  0.28474  0.44211  1.0000
  H   H371      1.0  0.29926  0.99191  0.34052  1.0000
  C   C447      1.0  0.41925  0.14865  0.29988  1.0000
  S   S64       1.0  0.37013  0.26020  0.29600  1.0000
  C   C448      1.0  0.27849  0.98508  0.36930  1.0000
  C   C449      1.0  0.02466  0.45808  0.43658  1.0000
  H   H372      1.0  0.06752  0.46264  0.32205  1.0000
  C   C450      1.0  0.07501  0.39120  0.45244  1.0000
  Fe  Fe34      1.0  0.41987  0.27393  0.29672  1.0000
  H   H373      1.0  0.44357  0.46184  0.34341  1.0000
  C   C451      1.0  0.44342  0.39535  0.43132  1.0000
  H   H374      1.0  0.34138  0.97902  0.40325  1.0000
  C   C452      1.0  0.06536  0.35958  0.45298  1.0000
  C   C453      1.0  0.26319  0.27175  0.45922  1.0000
  H   H375      1.0  0.44849  0.45904  0.31246  1.0000
  H   H376      1.0  0.43130  0.13409  0.29975  1.0000
  H   H377      1.0  0.35855  0.45354  0.43321  1.0000
  H   H378      1.0  0.45287  0.27633  0.32170  1.0000
  H   H379      1.0  0.45455  0.01866  0.41598  1.0000
  C   C454      1.0  0.42968  0.46891  0.44338  1.0000
  C   C455      1.0  0.46065  0.46916  0.40606  1.0000
  H   H380      1.0  0.08645  0.45552  0.42457  1.0000
  H   H381      1.0  0.03004  0.46917  0.36964  1.0000
  H   H382      1.0  0.42105  0.01293  0.45716  1.0000
  C   C456      1.0  0.45966  0.37516  0.44823  1.0000
  H   H383      1.0  0.45760  0.32991  0.44586  1.0000
  C   C457      1.0  0.11420  0.46991  0.37790  1.0000
  C   C458      1.0  0.06660  0.47100  0.40271  1.0000
  H   H384      1.0  0.05517  0.46926  0.45146  1.0000
  H   H385      1.0  0.12088  0.47083  0.32131  1.0000
  H   H386      1.0  0.99723  0.47197  0.40041  1.0000
  H   H387      1.0  0.04588  0.34610  0.45800  1.0000
  P   P15       1.0  0.05431  0.41025  0.45958  1.0000
  C   C459      1.0  0.13478  0.47247  0.42602  1.0000
  H   H388      1.0  0.44695  0.18659  0.51342  1.0000
  H   H389      1.0  0.35293  0.38941  0.52836  1.0000
  H   H390      1.0  0.01143  0.27300  0.46823  1.0000
  H   H391      1.0  0.00562  0.26758  0.61064  1.0000
  H   H392      1.0  0.40605  0.38803  0.48901  1.0000
  Fe  Fe35      1.0  0.04446  0.35017  0.61059  1.0000
  S   S65       1.0  0.04016  0.34654  0.59021  1.0000
  S   S66       1.0  0.07433  0.39872  0.61567  1.0000
  Fe  Fe36      1.0  0.33299  0.34264  0.61429  1.0000
  S   S67       1.0  0.31501  0.37839  0.61193  1.0000
  S   S68       1.0  0.36237  0.33318  0.60043  1.0000
  C   C460      1.0  0.45415  0.35115  0.56150  1.0000
  C   C461      1.0  0.41400  0.43389  0.54528  1.0000
  H   H393      1.0  0.40711  0.40323  0.46840  1.0000
  Fe  Fe37      1.0  0.37887  0.30981  0.50433  1.0000
  S   S69       1.0  0.42569  0.31116  0.50555  1.0000
  S   S70       1.0  0.35731  0.32620  0.48926  1.0000
  Fe  Fe38      1.0  0.36876  0.29737  0.53130  1.0000
  S   S71       1.0  0.41468  0.29766  0.53410  1.0000
  S   S72       1.0  0.33475  0.29409  0.54563  1.0000
  Fe  Fe39      1.0  0.43109  0.33834  0.52243  1.0000
  H   H394      1.0  0.06057  0.37618  0.47981  1.0000
  Fe  Fe40      1.0  0.40514  0.26965  0.51709  1.0000
  S   S73       1.0  0.42192  0.23133  0.51517  1.0000
  S   S74       1.0  0.38564  0.33935  0.52060  1.0000
  S   S75       1.0  0.35783  0.26692  0.51488  1.0000
  P   P16       1.0  0.43551  0.42574  0.56756  1.0000
  S   S76       1.0  0.39827  0.03367  0.53532  1.0000
  C   C462      1.0  0.99583  0.32322  0.55815  1.0000
  C   C463      1.0  0.45965  0.39148  0.58027  1.0000
  S   S77       1.0  0.41474  0.04081  0.50672  1.0000
  H   H395      1.0  0.29671  0.31735  0.50790  1.0000
  Fe  Fe41      1.0  0.42954  0.02380  0.52303  1.0000
  H   H396      1.0  0.24412  0.02742  0.55065  1.0000
  Fe  Fe42      1.0  0.38080  0.04735  0.51874  1.0000
  S   S78       1.0  0.36332  0.08542  0.51872  1.0000
  S   S79       1.0  0.34530  0.99948  0.51520  1.0000
  C   C464      1.0  0.37646  0.31624  0.46700  1.0000
  H   H397      1.0  0.15002  0.28577  0.59698  1.0000
  C   C465      1.0  0.98635  0.35014  0.48621  1.0000
  H   H398      1.0  0.40268  0.97557  0.58067  1.0000
  C   C466      1.0  0.01659  0.35474  0.48715  1.0000
  H   H399      1.0  0.45356  0.39773  0.50010  1.0000
  C   C467      1.0  0.25212  0.16757  0.47509  1.0000
  H   H400      1.0  0.99916  0.33252  0.54940  1.0000
  C   C468      1.0  0.40515  0.19083  0.51656  1.0000
  C   C469      1.0  0.37452  0.17457  0.51877  1.0000
  C   C470      1.0  0.36228  0.14250  0.51942  1.0000
  C   C471      1.0  0.38040  0.12609  0.51801  1.0000
  C   C472      1.0  0.41108  0.14239  0.51590  1.0000
  C   C473      1.0  0.42326  0.17443  0.51514  1.0000
  H   H401      1.0  0.36021  0.18667  0.51989  1.0000
  H   H402      1.0  0.33855  0.13030  0.52106  1.0000
  H   H403      1.0  0.42540  0.13030  0.51477  1.0000
  H   H404      1.0  0.35393  0.06937  0.56356  1.0000
  C   C474      1.0  0.35882  0.32749  0.47353  1.0000
  C   C475      1.0  0.34118  0.33990  0.46742  1.0000
  H   H405      1.0  0.18091  0.15376  0.49331  1.0000
  H   H406      1.0  0.32744  0.34866  0.47236  1.0000
  H   H407      1.0  0.39036  0.30688  0.47154  1.0000
  H   H408      1.0  0.96646  0.34837  0.57849  1.0000
  C   C476      1.0  0.36239  0.37963  0.54606  1.0000
  H   H409      1.0  0.43367  0.45501  0.54477  1.0000
  H   H410      1.0  0.24838  0.25619  0.47662  1.0000
  C   C477      1.0  0.34326  0.30609  0.56075  1.0000
  C   C478      1.0  0.37172  0.31308  0.56589  1.0000
  C   C479      1.0  0.37720  0.32158  0.57799  1.0000
  C   C480      1.0  0.35442  0.32343  0.58510  1.0000
  C   C481      1.0  0.32613  0.31704  0.57990  1.0000
  C   C482      1.0  0.32058  0.30827  0.56783  1.0000
  H   H411      1.0  0.38932  0.31137  0.56060  1.0000
  H   H412      1.0  0.39915  0.32640  0.58189  1.0000
  H   H413      1.0  0.30837  0.31832  0.58523  1.0000
  H   H414      1.0  0.29847  0.30291  0.56397  1.0000
  H   H415      1.0  0.28814  0.45746  0.57905  1.0000
  H   H416      1.0  0.26230  0.40160  0.58107  1.0000
  C   C483      1.0  0.17965  0.98385  0.52800  1.0000
  C   C484      1.0  0.01616  0.33865  0.56752  1.0000
  C   C485      1.0  0.01264  0.32672  0.57895  1.0000
  C   C486      1.0  0.40421  0.40995  0.58876  1.0000
  C   C487      1.0  0.06634  0.46085  0.47422  1.0000
  H   H417      1.0  0.16538  0.02024  0.53101  1.0000
  S   S80       1.0  0.22641  0.33524  0.61527  1.0000
  H   H418      1.0  0.37795  0.37483  0.56341  1.0000
  Fe  Fe43      1.0  0.27451  0.34769  0.62176  1.0000
  C   C488      1.0  0.36816  0.39717  0.53596  1.0000
  H   H419      1.0  0.34266  0.35834  0.54631  1.0000
  H   H420      1.0  0.03038  0.40326  0.53667  1.0000
  C   C489      1.0  0.20306  0.35086  0.62193  1.0000
  C   C490      1.0  0.98820  0.29919  0.58092  1.0000
  C   C491      1.0  0.24318  0.40473  0.59779  1.0000
  C   C492      1.0  0.38947  0.41545  0.59845  1.0000
  C   C493      1.0  0.34419  0.18576  0.49212  1.0000
  C   C494      1.0  0.37214  0.20950  0.49027  1.0000
  C   C495      1.0  0.37365  0.23774  0.48679  1.0000
  C   C496      1.0  0.34720  0.24216  0.48503  1.0000
  C   C497      1.0  0.31900  0.21821  0.48653  1.0000
  C   C498      1.0  0.31769  0.19015  0.49039  1.0000
  P   P17       1.0  0.28526  0.22500  0.48490  1.0000
  C   C499      1.0  0.25243  0.18969  0.48337  1.0000
  C   C500      1.0  0.28393  0.24581  0.49812  1.0000
  C   C501      1.0  0.28001  0.23168  0.50910  1.0000
  C   C502      1.0  0.28139  0.24820  0.51954  1.0000
  C   C503      1.0  0.28702  0.27897  0.51910  1.0000
  C   C504      1.0  0.29110  0.29321  0.50823  1.0000
  C   C505      1.0  0.28954  0.27672  0.49778  1.0000
  C   C506      1.0  0.99588  0.28153  0.46448  1.0000
  C   C507      1.0  0.03847  0.25625  0.61995  1.0000
  H   H421      1.0  0.27169  0.17143  0.46979  1.0000
  H   H422      1.0  0.18105  0.11433  0.47896  1.0000
  C   C508      1.0  0.22646  0.18470  0.48984  1.0000
  C   C509      1.0  0.33304  0.04541  0.54742  1.0000
  C   C510      1.0  0.42751  0.39934  0.48475  1.0000
  C   C511      1.0  0.96178  0.38438  0.55713  1.0000
  H   H423      1.0  0.31259  0.03633  0.57617  1.0000
  H   H424      1.0  0.13263  0.34931  0.61816  1.0000
  C   C512      1.0  0.40997  0.45818  0.58072  1.0000
  H   H425      1.0  0.34324  0.16420  0.49519  1.0000
  H   H426      1.0  0.39267  0.20624  0.49186  1.0000
  H   H427      1.0  0.39537  0.25641  0.48574  1.0000
  H   H428      1.0  0.34871  0.26439  0.48267  1.0000
  H   H429      1.0  0.29639  0.17178  0.49228  1.0000
  H   H430      1.0  0.27693  0.20819  0.50962  1.0000
  H   H431      1.0  0.27946  0.23761  0.52804  1.0000
  H   H432      1.0  0.28925  0.29199  0.52724  1.0000
  H   H433      1.0  0.29415  0.28863  0.48954  1.0000
  H   H434      1.0  0.30757  0.01789  0.53278  1.0000
  C   C513      1.0  0.44673  0.39465  0.56951  1.0000
  C   C514      1.0  0.43875  0.01678  0.46370  1.0000
  C   C515      1.0  0.22652  0.14040  0.47357  1.0000
  H   H435      1.0  0.22574  0.20184  0.49598  1.0000
  H   H436      1.0  0.32051  0.23519  0.46306  1.0000
  C   C516      1.0  0.99299  0.44418  0.48759  1.0000
  H   H437      1.0  0.34601  0.99530  0.56183  1.0000
  C   C517      1.0  0.42672  0.98035  0.55257  1.0000
  H   H438      1.0  0.29238  0.44975  0.62520  1.0000
  C   C518      1.0  0.99121  0.40069  0.56163  1.0000
  C   C519      1.0  0.24102  0.42408  0.60672  1.0000
  C   C520      1.0  0.33460  0.05081  0.55962  1.0000
  C   C521      1.0  0.97654  0.36320  0.47709  1.0000
  C   C522      1.0  0.28522  0.24465  0.47144  1.0000
  C   C523      1.0  0.26015  0.41673  0.58784  1.0000
  C   C524      1.0  0.17373  0.34244  0.61736  1.0000
  H   H439      1.0  0.00128  0.23129  0.56188  1.0000
  H   H440      1.0  0.17939  0.25528  0.59376  1.0000
  C   C525      1.0  0.38253  0.38897  0.55572  1.0000
  H   H441      1.0  0.22648  0.12337  0.46719  1.0000
  C   C526      1.0  0.44431  0.03909  0.47255  1.0000
  C   C527      1.0  0.97254  0.28258  0.47149  1.0000
  C   C528      1.0  0.07849  0.44227  0.46865  1.0000
  H   H442      1.0  0.43091  0.05239  0.47287  1.0000
  C   C529      1.0  0.02044  0.45390  0.59286  1.0000
  S   S81       1.0  0.39743  0.97558  0.51963  1.0000
  C   C530      1.0  0.40878  0.41586  0.55532  1.0000
  H   H443      1.0  0.35103  0.05998  0.54193  1.0000
  H   H444      1.0  0.03551  0.28333  0.59271  1.0000
  H   H445      1.0  0.25513  0.99102  0.51785  1.0000
  H   H446      1.0  0.40615  0.38840  0.58809  1.0000
  H   H447      1.0  0.16557  0.32595  0.61019  1.0000
  H   H448      1.0  0.43579  0.37712  0.55147  1.0000
  H   H449      1.0  0.23208  0.38035  0.59871  1.0000
  H   H450      1.0  0.02280  0.41642  0.60230  1.0000
  C   C531      1.0  0.42825  0.40809  0.47299  1.0000
  H   H451      1.0  0.03850  0.41917  0.55787  1.0000
  C   C532      1.0  0.31129  0.03224  0.56670  1.0000
  S   S82       1.0  0.96904  0.26944  0.48640  1.0000
  H   H452      1.0  0.16221  0.21314  0.57879  1.0000
  C   C533      1.0  0.20087  0.15751  0.48829  1.0000
  H   H453      1.0  0.37343  0.44629  0.60683  1.0000
  H   H454      1.0  0.01859  0.46786  0.55971  1.0000
  H   H455      1.0  0.03495  0.35988  0.56586  1.0000
  C   C534      1.0  0.02741  0.38582  0.46972  1.0000
  C   C535      1.0  0.03718  0.37276  0.47899  1.0000
  C   C536      1.0  0.44475  0.37472  0.56003  1.0000
  C   C537      1.0  0.27473  0.44817  0.58673  1.0000
  C   C538      1.0  0.39383  0.42440  0.53560  1.0000
  C   C539      1.0  0.25564  0.45569  0.60574  1.0000
  H   H456      1.0  0.99527  0.40807  0.57082  1.0000
  C   C540      1.0  0.01132  0.39835  0.54236  1.0000
  C   C541      1.0  0.27249  0.46762  0.59563  1.0000
  C   C542      1.0  0.05503  0.43061  0.58844  1.0000
  C   C543      1.0  0.12602  0.47027  0.47916  1.0000
  C   C544      1.0  0.41559  0.43182  0.58003  1.0000
  H   H457      1.0  0.10581  0.26335  0.60925  1.0000
  C   C545      1.0  0.22622  0.01489  0.54435  1.0000
  C   C546      1.0  0.01586  0.40735  0.55428  1.0000
  C   C547      1.0  0.45590  0.42223  0.46732  1.0000
  H   H458      1.0  0.22827  0.41435  0.61446  1.0000
  C   C548      1.0  0.22435  0.98758  0.53907  1.0000
  H   H459      1.0  0.06348  0.41341  0.59020  1.0000
  C   C549      1.0  0.28488  0.00244  0.54931  1.0000
  C   C550      1.0  0.02717  0.26593  0.61018  1.0000
  C   C551      1.0  0.41387  0.98634  0.56269  1.0000
  C   C552      1.0  0.45539  0.99893  0.46353  1.0000
  C   C553      1.0  0.99699  0.38095  0.46887  1.0000
  H   H460      1.0  0.02378  0.34377  0.49408  1.0000
  C   C554      1.0  0.03170  0.43198  0.59513  1.0000
  H   H461      1.0  0.41341  0.37418  0.61542  1.0000
  H   H462      1.0  0.38099  0.39864  0.60523  1.0000
  H   H463      1.0  0.98897  0.39076  0.46189  1.0000
  Fe  Fe44      1.0  0.38011  0.99247  0.50400  1.0000
  C   C555      1.0  0.15507  0.35586  0.62179  1.0000
  Fe  Fe45      1.0  0.36527  0.98584  0.53114  1.0000
  C   C556      1.0  0.43449  0.38704  0.62014  1.0000
  C   C557      1.0  0.97060  0.43680  0.47875  1.0000
  C   C558      1.0  0.39498  0.46348  0.59038  1.0000
  H   H464      1.0  0.11523  0.20180  0.56702  1.0000
  C   C559      1.0  0.05616  0.30007  0.55571  1.0000
  C   C560      1.0  0.02938  0.27403  0.55448  1.0000
  C   C561      1.0  0.02241  0.25112  0.56274  1.0000
  C   C562      1.0  0.04226  0.25417  0.57223  1.0000
  C   C563      1.0  0.06911  0.28044  0.57362  1.0000
  C   C564      1.0  0.07599  0.30333  0.56524  1.0000
  P   P18       1.0  0.09432  0.28446  0.58608  1.0000
  C   C565      1.0  0.11539  0.26131  0.58383  1.0000
  C   C566      1.0  0.12031  0.32383  0.58782  1.0000
  C   C567      1.0  0.14834  0.33465  0.58230  1.0000
  C   C568      1.0  0.16845  0.36508  0.58378  1.0000
  C   C569      1.0  0.16052  0.38506  0.59057  1.0000
  C   C570      1.0  0.13233  0.37466  0.59578  1.0000
  C   C571      1.0  0.11234  0.34418  0.59443  1.0000
  C   C572      1.0  0.10585  0.23745  0.57537  1.0000
  C   C573      1.0  0.12265  0.22010  0.57359  1.0000
  C   C574      1.0  0.14910  0.22645  0.58022  1.0000
  C   C575      1.0  0.15876  0.25012  0.58865  1.0000
  C   C576      1.0  0.14198  0.26742  0.59046  1.0000
  C   C577      1.0  0.07250  0.27335  0.59937  1.0000
  C   C578      1.0  0.04423  0.27479  0.59999  1.0000
  H   H465      1.0  0.19187  0.43547  0.61252  1.0000
  H   H466      1.0  0.40413  0.00294  0.56244  1.0000
  C   C579      1.0  0.96912  0.36117  0.59679  1.0000
  C   C580      1.0  0.08379  0.26385  0.60928  1.0000
  H   H467      1.0  0.06114  0.31807  0.54943  1.0000
  H   H468      1.0  0.01361  0.27190  0.54727  1.0000
  C   C581      1.0  0.20499  0.02657  0.54144  1.0000
  H   H469      1.0  0.03641  0.23627  0.57860  1.0000
  H   H470      1.0  0.09630  0.32395  0.56612  1.0000
  H   H471      1.0  0.15476  0.31965  0.57687  1.0000
  H   H472      1.0  0.19026  0.37314  0.57969  1.0000
  H   H473      1.0  0.17619  0.40855  0.59180  1.0000
  H   H474      1.0  0.12603  0.39001  0.60106  1.0000
  H   H475      1.0  0.09076  0.33652  0.59863  1.0000
  H   H476      1.0  0.08564  0.23222  0.57005  1.0000
  C   C582      1.0  0.20093  0.13533  0.48019  1.0000
  C   C583      1.0  0.28646  0.00822  0.56157  1.0000
  H   H477      1.0  0.20674  0.04777  0.54549  1.0000
  C   C584      1.0  0.26406  0.25731  0.46976  1.0000
  S   S83       1.0  0.29084  0.31031  0.62279  1.0000
  C   C585      1.0  0.38504  0.44226  0.59932  1.0000
  C   C586      1.0  0.30831  0.02135  0.54226  1.0000
  C   C587      1.0  0.16302  0.45840  0.61547  1.0000
  H   H478      1.0  0.33285  0.99250  0.58307  1.0000
  H   H479      1.0  0.45415  0.46519  0.61385  1.0000
  C   C588      1.0  0.10838  0.44687  0.47131  1.0000
  C   C589      1.0  0.06683  0.25537  0.61952  1.0000
  C   C590      1.0  0.96337  0.45953  0.47374  1.0000
  C   C591      1.0  0.98212  0.38267  0.53778  1.0000
  H   H480      1.0  0.04299  0.45687  0.47262  1.0000
  H   H481      1.0  0.26853  0.99428  0.56720  1.0000
  S   S84       1.0  0.06866  0.33242  0.62373  1.0000
  H   H482      1.0  0.99764  0.42625  0.49166  1.0000
  H   H483      1.0  0.14268  0.43818  0.61369  1.0000
  H   H484      1.0  0.45958  0.98830  0.62378  1.0000
  H   H485      1.0  0.00285  0.45481  0.59841  1.0000
  C   C592      1.0  0.18173  0.01107  0.53328  1.0000
  H   H486      1.0  0.42695  0.99233  0.54456  1.0000
  C   C593      1.0  0.19115  0.45702  0.61477  1.0000
  H   H487      1.0  0.11792  0.43195  0.46765  1.0000
  H   H488      1.0  0.08656  0.45122  0.57475  1.0000
  C   C594      1.0  0.45693  0.41174  0.61485  1.0000
  H   H489      1.0  0.98297  0.34918  0.59915  1.0000
  C   C595      1.0  0.06790  0.45184  0.57970  1.0000
  C   C596      1.0  0.41354  0.97980  0.61944  1.0000
  S   S85       1.0  0.00860  0.34656  0.62358  1.0000
  S   S86       1.0  0.96554  0.31313  0.51563  1.0000
  C   C597      1.0  0.96165  0.37789  0.60539  1.0000
  C   C598      1.0  0.44109  0.97797  0.61747  1.0000
  C   C599      1.0  0.96836  0.28336  0.57148  1.0000
  H   H490      1.0  0.39838  0.43785  0.52773  1.0000
  C   C600      1.0  0.97209  0.29509  0.56001  1.0000
  H   H491      1.0  0.97024  0.33581  0.49237  1.0000
  H   H492      1.0  0.98503  0.28965  0.58963  1.0000
  H   H493      1.0  0.97855  0.37568  0.52854  1.0000
  C   C601      1.0  0.30454  0.24545  0.46221  1.0000
  H   H494      1.0  0.99932  0.46736  0.53949  1.0000
  C   C602      1.0  0.33921  0.97400  0.56632  1.0000
  H   H495      1.0  0.45221  0.33576  0.55415  1.0000
  C   C603      1.0  0.45426  0.40465  0.49098  1.0000
  H   H496      1.0  0.45276  0.41790  0.60610  1.0000
  H   H497      1.0  0.96965  0.37892  0.61445  1.0000
  Fe  Fe46      1.0  0.00189  0.20785  0.73065  1.0000
  S   S87       1.0  0.01191  0.25744  0.73031  1.0000
  S   S88       1.0  0.03414  0.18573  0.72703  1.0000
  Fe  Fe47      1.0  0.98079  0.24878  0.74575  1.0000
  H   H498      1.0  0.28202  0.08276  0.71337  1.0000
  S   S89       1.0  0.35869  0.44779  0.63149  1.0000
  H   H499      1.0  0.32276  0.08896  0.72771  1.0000
  C   C604      1.0  0.02886  0.43889  0.78434  1.0000
  C   C605      1.0  0.28189  0.00276  0.66770  1.0000
  C   C606      1.0  0.36778  0.30590  0.67729  1.0000
  Fe  Fe48      1.0  0.33566  0.39600  0.62991  1.0000
  S   S90       1.0  0.28272  0.05276  0.74790  1.0000
  Fe  Fe49      1.0  0.20631  0.23773  0.74179  1.0000
  S   S91       1.0  0.25063  0.27803  0.74173  1.0000
  S   S92       1.0  0.16800  0.24983  0.74734  1.0000
  Fe  Fe50      1.0  0.23571  0.19380  0.73659  1.0000
  S   S93       1.0  0.28223  0.23154  0.73620  1.0000
  S   S94       1.0  0.22188  0.14288  0.73296  1.0000
  Fe  Fe51      1.0  0.26822  0.25003  0.75252  1.0000
  S   S95       1.0  0.29963  0.27156  0.76849  1.0000
  Fe  Fe52      1.0  0.26049  0.25667  0.72538  1.0000
  S   S96       1.0  0.28146  0.29153  0.71088  1.0000
  S   S97       1.0  0.22333  0.21081  0.75354  1.0000
  S   S98       1.0  0.21464  0.21794  0.72480  1.0000
  C   C607      1.0  0.20257  0.28696  0.65842  1.0000
  Fe  Fe53      1.0  0.03501  0.33283  0.63731  1.0000
  S   S99       1.0  0.02153  0.29251  0.64991  1.0000
  S   S100      1.0  0.06240  0.38086  0.64357  1.0000
  Fe  Fe54      1.0  0.31160  0.33199  0.64041  1.0000
  S   S101      1.0  0.29317  0.36796  0.63959  1.0000
  S   S102      1.0  0.30288  0.29682  0.65505  1.0000
  H   H500      1.0  0.26054  0.14215  0.71328  1.0000
  C   C608      1.0  0.22564  0.05022  0.77199  1.0000
  H   H501      1.0  0.39508  0.31845  0.70557  1.0000
  H   H502      1.0  0.33979  0.24562  0.77885  1.0000
  H   H503      1.0  0.35520  0.19351  0.71935  1.0000
  C   C609      1.0  0.98761  0.30403  0.68185  1.0000
  C   C610      1.0  0.34818  0.29807  0.72354  1.0000
  H   H504      1.0  0.41993  0.28760  0.72525  1.0000
  C   C611      1.0  0.17904  0.00683  0.71825  1.0000
  H   H505      1.0  0.20297  0.40309  0.64255  1.0000
  H   H506      1.0  0.17588  0.21983  0.77615  1.0000
  H   H507      1.0  0.09269  0.32895  0.65098  1.0000
  C   C612      1.0  0.28540  0.29224  0.69523  1.0000
  C   C613      1.0  0.27483  0.26588  0.68807  1.0000
  C   C614      1.0  0.27982  0.26780  0.67579  1.0000
  C   C615      1.0  0.29470  0.29605  0.67041  1.0000
  C   C616      1.0  0.30478  0.32238  0.67755  1.0000
  C   C617      1.0  0.30019  0.32046  0.68985  1.0000
  H   H508      1.0  0.26324  0.24401  0.69201  1.0000
  H   H509      1.0  0.27253  0.24719  0.67044  1.0000
  H   H510      1.0  0.31724  0.34413  0.67367  1.0000
  H   H511      1.0  0.30861  0.34103  0.69527  1.0000
  C   C618      1.0  0.43016  0.22611  0.70548  1.0000
  C   C619      1.0  0.28807  0.27511  0.78312  1.0000
  C   C620      1.0  0.25641  0.98917  0.66034  1.0000
  H   H512      1.0  0.98598  0.07868  0.70034  1.0000
  H   H513      1.0  0.24269  0.24146  0.78083  1.0000
  C   C621      1.0  0.30846  0.16498  0.71645  1.0000
  C   C622      1.0  0.22722  0.00425  0.67421  1.0000
  C   C623      1.0  0.26580  0.07754  0.74339  1.0000
  C   C624      1.0  0.28197  0.10915  0.74491  1.0000
  C   C625      1.0  0.26887  0.12950  0.74190  1.0000
  C   C626      1.0  0.23947  0.11845  0.73721  1.0000
  C   C627      1.0  0.22345  0.08688  0.73558  1.0000
  C   C628      1.0  0.23645  0.06654  0.73869  1.0000
  H   H514      1.0  0.30468  0.11790  0.74854  1.0000
  H   H515      1.0  0.28153  0.15371  0.74312  1.0000
  H   H516      1.0  0.20067  0.07806  0.73201  1.0000
  H   H517      1.0  0.22367  0.04230  0.73761  1.0000
  H   H518      1.0  0.21552  0.04886  0.71413  1.0000
  C   C629      1.0  0.07157  0.20433  0.73234  1.0000
  C   C630      1.0  0.07995  0.22926  0.74017  1.0000
  C   C631      1.0  0.10962  0.24287  0.74471  1.0000
  C   C632      1.0  0.13117  0.23198  0.74132  1.0000
  C   C633      1.0  0.12298  0.20745  0.73329  1.0000
  C   C634      1.0  0.09316  0.19355  0.72887  1.0000
  H   H519      1.0  0.06344  0.23766  0.74291  1.0000
  H   H520      1.0  0.11586  0.26185  0.75092  1.0000
  H   H521      1.0  0.13947  0.19894  0.73064  1.0000
  H   H522      1.0  0.08673  0.17426  0.72281  1.0000
  C   C635      1.0  0.98591  0.27851  0.68821  1.0000
  S   S103      1.0  0.96268  0.19438  0.71787  1.0000
  C   C636      1.0  0.00706  0.26295  0.67119  1.0000
  C   C637      1.0  0.00858  0.28839  0.66479  1.0000
  C   C638      1.0  0.99907  0.30911  0.67029  1.0000
  H   H523      1.0  0.00080  0.10610  0.71974  1.0000
  H   H524      1.0  0.09207  0.27742  0.65051  1.0000
  C   C639      1.0  0.22914  0.99008  0.66355  1.0000
  H   H525      1.0  0.99987  0.32871  0.66554  1.0000
  H   H526      1.0  0.96969  0.13082  0.72838  1.0000
  C   C640      1.0  0.99947  0.28781  0.77616  1.0000
  H   H527      1.0  0.19514  0.31106  0.64353  1.0000
  C   C641      1.0  0.01189  0.31630  0.78213  1.0000
  H   H528      1.0  0.01978  0.33675  0.77703  1.0000
  H   H529      1.0  0.34266  0.04933  0.72929  1.0000
  C   C642      1.0  0.04086  0.46927  0.62791  1.0000
  C   C643      1.0  0.28027  0.16338  0.71279  1.0000
  C   C644      1.0  0.38243  0.30601  0.69783  1.0000
  H   H530      1.0  0.40967  0.98060  0.66392  1.0000
  H   H531      1.0  0.13601  0.26898  0.65822  1.0000
  C   C645      1.0  0.34281  0.31223  0.73357  1.0000
  H   H532      1.0  0.33382  0.32933  0.73260  1.0000
  H   H533      1.0  0.34295  0.31410  0.75258  1.0000
  H   H534      1.0  0.31042  0.14495  0.71985  1.0000
  C   C646      1.0  0.27313  0.15540  0.77505  1.0000
  C   C647      1.0  0.19478  0.38610  0.63553  1.0000
  C   C648      1.0  0.19036  0.29039  0.78735  1.0000
  C   C649      1.0  0.33111  0.21861  0.71187  1.0000
  H   H535      1.0  0.29980  0.23720  0.70585  1.0000
  C   C650      1.0  0.34918  0.25900  0.68802  1.0000
  C   C651      1.0  0.27728  0.18939  0.70889  1.0000
  H   H536      1.0  0.25518  0.18836  0.70654  1.0000
  C   C652      1.0  0.41804  0.45758  0.63701  1.0000
  C   C653      1.0  0.10857  0.32349  0.78875  1.0000
  H   H537      1.0  0.00024  0.17104  0.77112  1.0000
  S   S104      1.0  0.01873  0.42962  0.62848  1.0000
  H   H538      1.0  0.36814  0.31797  0.66924  1.0000
  C   C654      1.0  0.35863  0.27503  0.72467  1.0000
  C   C655      1.0  0.21331  0.37219  0.63128  1.0000
  C   C656      1.0  0.97267  0.08999  0.70399  1.0000
  C   C657      1.0  0.11157  0.29623  0.65421  1.0000
  C   C658      1.0  0.30257  0.21695  0.70849  1.0000
  C   C659      1.0  0.28453  0.44116  0.64362  1.0000
  S   S105      1.0  0.96959  0.27259  0.70254  1.0000
  H   H539      1.0  0.32181  0.00325  0.71632  1.0000
  H   H540      1.0  0.38480  0.21454  0.69923  1.0000
  C   C660      1.0  0.36311  0.26599  0.73602  1.0000
  C   C661      1.0  0.21284  0.26487  0.66184  1.0000
  C   C662      1.0  0.20201  0.29342  0.64639  1.0000
  C   C663      1.0  0.06842  0.24793  0.68076  1.0000
  C   C664      1.0  0.05016  0.22398  0.68768  1.0000
  C   C665      1.0  0.04581  0.22940  0.69951  1.0000
  C   C666      1.0  0.05952  0.25875  0.70443  1.0000
  C   C667      1.0  0.07715  0.28307  0.69747  1.0000
  C   C668      1.0  0.08213  0.27732  0.68566  1.0000
  P   P19       1.0  0.09615  0.32063  0.70400  1.0000
  C   C669      1.0  0.09994  0.34895  0.69311  1.0000
  C   C670      1.0  0.07321  0.32708  0.71524  1.0000
  C   C671      1.0  0.04348  0.32254  0.71239  1.0000
  C   C672      1.0  0.02537  0.32767  0.72090  1.0000
  C   C673      1.0  0.03665  0.33696  0.73238  1.0000
  C   C674      1.0  0.06646  0.34226  0.73523  1.0000
  C   C675      1.0  0.08487  0.33790  0.72665  1.0000
  C   C676      1.0  0.12273  0.37839  0.69430  1.0000
  C   C677      1.0  0.12507  0.40029  0.68594  1.0000
  C   C678      1.0  0.10418  0.39319  0.67653  1.0000
  C   C679      1.0  0.08068  0.36437  0.67559  1.0000
  C   C680      1.0  0.07833  0.34248  0.68390  1.0000
  C   C681      1.0  0.13092  0.32142  0.71025  1.0000
  C   C682      1.0  0.13010  0.30463  0.72037  1.0000
  C   C683      1.0  0.15677  0.30564  0.72555  1.0000
  C   C684      1.0  0.18439  0.32247  0.72047  1.0000
  C   C685      1.0  0.18534  0.33807  0.71009  1.0000
  C   C686      1.0  0.15866  0.33729  0.70490  1.0000
  H   H541      1.0  0.07173  0.24380  0.67157  1.0000
  H   H542      1.0  0.03933  0.20122  0.68390  1.0000
  H   H543      1.0  0.03174  0.21084  0.70490  1.0000
  H   H544      1.0  0.05651  0.26237  0.71368  1.0000
  H   H545      1.0  0.09652  0.29552  0.68021  1.0000
  H   H546      1.0  0.03414  0.31473  0.70362  1.0000
  H   H547      1.0  0.00221  0.32346  0.71868  1.0000
  H   H548      1.0  0.02214  0.33957  0.73910  1.0000
  H   H549      1.0  0.07512  0.34944  0.74414  1.0000
  H   H550      1.0  0.10804  0.34294  0.72904  1.0000
  H   H551      1.0  0.13836  0.38459  0.70177  1.0000
  H   H552      1.0  0.14278  0.42293  0.68683  1.0000
  H   H553      1.0  0.13854  0.30160  0.78601  1.0000
  H   H554      1.0  0.06398  0.35895  0.66848  1.0000
  H   H555      1.0  0.05930  0.32066  0.68317  1.0000
  H   H556      1.0  0.10886  0.29096  0.72438  1.0000
  H   H557      1.0  0.15608  0.29324  0.73350  1.0000
  H   H558      1.0  0.20496  0.32278  0.72445  1.0000
  H   H559      1.0  0.20684  0.35040  0.70608  1.0000
  H   H560      1.0  0.15966  0.34869  0.69669  1.0000
  P   P20       1.0  0.19335  0.30942  0.66931  1.0000
  C   C687      1.0  0.22601  0.34431  0.67245  1.0000
  C   C688      1.0  0.16160  0.31603  0.66350  1.0000
  C   C689      1.0  0.16193  0.34532  0.66344  1.0000
  C   C690      1.0  0.13706  0.34980  0.65903  1.0000
  C   C691      1.0  0.22475  0.36449  0.68128  1.0000
  C   C692      1.0  0.25041  0.39038  0.68452  1.0000
  C   C693      1.0  0.27762  0.39632  0.67895  1.0000
  C   C694      1.0  0.27901  0.37659  0.67004  1.0000
  C   C695      1.0  0.25343  0.35051  0.66685  1.0000
  C   C696      1.0  0.18386  0.28930  0.68308  1.0000
  C   C697      1.0  0.20694  0.28984  0.69083  1.0000
  C   C698      1.0  0.19997  0.27440  0.70147  1.0000
  C   C699      1.0  0.16995  0.25854  0.70455  1.0000
  C   C700      1.0  0.14684  0.25800  0.69695  1.0000
  C   C701      1.0  0.15374  0.27315  0.68623  1.0000
  H   H561      1.0  0.18141  0.36493  0.66650  1.0000
  H   H562      1.0  0.13756  0.37248  0.65885  1.0000
  H   H563      1.0  0.20389  0.36000  0.68568  1.0000
  H   H564      1.0  0.24932  0.40567  0.69144  1.0000
  H   H565      1.0  0.29766  0.41616  0.68153  1.0000
  H   H566      1.0  0.23041  0.30197  0.68863  1.0000
  H   H567      1.0  0.21788  0.27492  0.70740  1.0000
  H   H568      1.0  0.16463  0.24697  0.71290  1.0000
  H   H569      1.0  0.12356  0.24591  0.69942  1.0000
  H   H570      1.0  0.13550  0.27213  0.68051  1.0000
  H   H571      1.0  0.23064  0.23279  0.65600  1.0000
  C   C702      1.0  0.35789  0.28037  0.74605  1.0000
  H   H572      1.0  0.34313  0.30454  0.71495  1.0000
  C   C703      1.0  0.38372  0.32159  0.68739  1.0000
  C   C704      1.0  0.22202  0.24925  0.65332  1.0000
  S   S106      1.0  0.14441  0.39867  0.63514  1.0000
  P   P21       1.0  0.36316  0.25477  0.71180  1.0000
  H   H573      1.0  0.30015  0.38117  0.66574  1.0000
  C   C705      1.0  0.11184  0.32530  0.65448  1.0000
  C   C706      1.0  0.98941  0.26163  0.78294  1.0000
  H   H574      1.0  0.39683  0.34588  0.68715  1.0000
  C   C707      1.0  0.23490  0.08171  0.77271  1.0000
  C   C708      1.0  0.37129  0.27725  0.79129  1.0000
  H   H575      1.0  0.25546  0.33503  0.66023  1.0000
  C   C709      1.0  0.13642  0.29161  0.65861  1.0000
  H   H576      1.0  0.33584  0.23478  0.68801  1.0000
  C   C710      1.0  0.20811  0.14142  0.77711  1.0000
  C   C711      1.0  0.20243  0.13707  0.76489  1.0000
  C   C712      1.0  0.17727  0.13974  0.75980  1.0000
  C   C713      1.0  0.15763  0.14691  0.76687  1.0000
  C   C714      1.0  0.24274  0.46717  0.64155  1.0000
  S   S107      1.0  0.35567  0.36161  0.63201  1.0000
  H   H577      1.0  0.17078  0.01692  0.72521  1.0000
  H   H578      1.0  0.26045  0.19163  0.76970  1.0000
  S   S108      1.0  0.99595  0.28650  0.76035  1.0000
  C   C715      1.0  0.34779  0.30351  0.74482  1.0000
  C   C716      1.0  0.33380  0.19255  0.71609  1.0000
  H   H579      1.0  0.24689  0.09519  0.76541  1.0000
  H   H580      1.0  0.30114  0.43160  0.64446  1.0000
  H   H581      1.0  0.08364  0.46639  0.63017  1.0000
  H   H582      1.0  0.21746  0.13161  0.75926  1.0000
  H   H583      1.0  0.17335  0.13675  0.75031  1.0000
  H   H584      1.0  0.13845  0.14953  0.76285  1.0000
  H   H585      1.0  0.40988  0.43337  0.63823  1.0000
  H   H586      1.0  0.38302  0.29332  0.78459  1.0000
  C   C717      1.0  0.40263  0.22894  0.70524  1.0000
  C   C718      1.0  0.24763  0.45643  0.65243  1.0000
  C   C719      1.0  0.30901  0.29555  0.79126  1.0000
  C   C720      1.0  0.99610  0.25818  0.68283  1.0000
  C   C721      1.0  0.21542  0.01186  0.70302  1.0000
  H   H587      1.0  0.99479  0.23836  0.68753  1.0000
  P   P22       1.0  0.24947  0.03502  0.69561  1.0000
  C   C722      1.0  0.25254  0.01726  0.68181  1.0000
  C   C723      1.0  0.24966  0.07128  0.69171  1.0000
  C   C724      1.0  0.27703  0.09554  0.68925  1.0000
  C   C725      1.0  0.27757  0.12385  0.68635  1.0000
  C   C726      1.0  0.25077  0.12803  0.68574  1.0000
  C   C727      1.0  0.22337  0.10381  0.68791  1.0000
  C   C728      1.0  0.22273  0.07542  0.69076  1.0000
  C   C729      1.0  0.28013  0.01711  0.67833  1.0000
  Fe  Fe55      1.0  0.09497  0.38045  0.62973  1.0000
  C   C730      1.0  0.13228  0.31558  0.79204  1.0000
  H   H588      1.0  0.34684  0.19932  0.75818  1.0000
  H   H589      1.0  0.45241  0.97660  0.65344  1.0000
  C   C731      1.0  0.27983  0.04009  0.70595  1.0000
  C   C732      1.0  0.29065  0.01732  0.70716  1.0000
  C   C733      1.0  0.31372  0.02102  0.71536  1.0000
  C   C734      1.0  0.32562  0.04707  0.72262  1.0000
  C   C735      1.0  0.31451  0.06951  0.72166  1.0000
  C   C736      1.0  0.29138  0.06587  0.71350  1.0000
  H   H590      1.0  0.36072  0.27307  0.75482  1.0000
  H   H591      1.0  0.37000  0.24745  0.73710  1.0000
  H   H592      1.0  0.23579  0.37874  0.63494  1.0000
  H   H593      1.0  0.21101  0.28292  0.62867  1.0000
  H   H594      1.0  0.09693  0.31566  0.78030  1.0000
  H   H595      1.0  0.29796  0.09257  0.68964  1.0000
  H   H596      1.0  0.29879  0.14261  0.68461  1.0000
  H   H597      1.0  0.25123  0.15004  0.68358  1.0000
  H   H598      1.0  0.20257  0.10704  0.68740  1.0000
  H   H599      1.0  0.20122  0.05686  0.69222  1.0000
  H   H600      1.0  0.30028  0.02780  0.68379  1.0000
  Fe  Fe56      1.0  0.26385  0.00117  0.74449  1.0000
  C   C737      1.0  0.04668  0.46558  0.79073  1.0000
  H   H601      1.0  0.33833  0.26264  0.66970  1.0000
  H   H602      1.0  0.28099  0.99643  0.70193  1.0000
  C   C738      1.0  0.20432  0.02486  0.71193  1.0000
  H   H603      1.0  0.01556  0.41820  0.78878  1.0000
  C   C739      1.0  0.97072  0.13270  0.76053  1.0000
  H   H604      1.0  0.21454  0.26008  0.67105  1.0000
  C   C740      1.0  0.42224  0.26991  0.71988  1.0000
  H   H605      1.0  0.20592  0.00476  0.67658  1.0000
  C   C741      1.0  0.19027  0.26775  0.77945  1.0000
  C   C742      1.0  0.35083  0.27460  0.67757  1.0000
  H   H606      1.0  0.23505  0.45802  0.66004  1.0000
  H   H607      1.0  0.20129  0.31394  0.78489  1.0000
  C   C743      1.0  0.29640  0.14520  0.77510  1.0000
  C   C744      1.0  0.27738  0.18242  0.76935  1.0000
  Fe  Fe57      1.0  0.03929  0.39486  0.62884  1.0000
  C   C745      1.0  0.97707  0.15590  0.76905  1.0000
  C   C746      1.0  0.36450  0.27472  0.69831  1.0000
  C   C747      1.0  0.32284  0.16092  0.76899  1.0000
  H   H608      1.0  0.30677  0.21870  0.75875  1.0000
  C   C748      1.0  0.39822  0.25033  0.71266  1.0000
  C   C749      1.0  0.30379  0.19801  0.76321  1.0000
  P   P23       1.0  0.23980  0.13611  0.78349  1.0000
  H   H609      1.0  0.01395  0.41799  0.76711  1.0000
  H   H610      1.0  0.01416  0.24665  0.66706  1.0000
  H   H611      1.0  0.20210  0.00770  0.78048  1.0000
  H   H612      1.0  0.43337  0.20940  0.69979  1.0000
  S   S109      1.0  0.97390  0.19985  0.74683  1.0000
  H   H613      1.0  0.42151  0.35995  0.63565  1.0000
  C   C750      1.0  0.20922  0.03212  0.78110  1.0000
  C   C751      1.0  0.16584  0.37843  0.63063  1.0000
  C   C752      1.0  0.25911  0.25721  0.78696  1.0000
  H   H614      1.0  0.27241  0.43527  0.66188  1.0000
  H   H615      1.0  0.14716  0.15559  0.78458  1.0000
  C   C753      1.0  0.96342  0.11912  0.71985  1.0000
  C   C754      1.0  0.22134  0.25576  0.64138  1.0000
  C   C755      1.0  0.22841  0.09546  0.78269  1.0000
  H   H616      1.0  0.33137  0.30974  0.78838  1.0000
  C   C756      1.0  0.32645  0.18722  0.76298  1.0000
  H   H617      1.0  0.10586  0.41013  0.67006  1.0000
  H   H618      1.0  0.30288  0.00159  0.66524  1.0000
  H   H619      1.0  0.97976  0.31994  0.68586  1.0000
  C   C757      1.0  0.21113  0.27765  0.63792  1.0000
  C   C758      1.0  0.18767  0.14751  0.78423  1.0000
  H   H620      1.0  0.34042  0.15252  0.76885  1.0000
  H   H621      1.0  0.20104  0.27381  0.77098  1.0000
  C   C759      1.0  0.17605  0.23723  0.78238  1.0000
  H   H622      1.0  0.23114  0.03983  0.76431  1.0000
  H   H623      1.0  0.98897  0.12989  0.75600  1.0000
  C   C760      1.0  0.25871  0.46487  0.63160  1.0000
  C   C761      1.0  0.02783  0.43865  0.77199  1.0000
  H   H624      1.0  0.97981  0.23955  0.77855  1.0000
  C   C762      1.0  0.20165  0.98031  0.70089  1.0000
  H   H625      1.0  0.29407  0.12497  0.77978  1.0000
  C   C763      1.0  0.34696  0.25025  0.78803  1.0000
  C   C764      1.0  0.98089  0.10511  0.71497  1.0000
  C   C765      1.0  0.45367  0.24504  0.71295  1.0000
  C   C766      1.0  0.16271  0.15058  0.77909  1.0000
  C   C767      1.0  0.27951  0.45157  0.63270  1.0000
  H   H626      1.0  0.22939  0.24436  0.63484  1.0000
  C   C768      1.0  0.26852  0.44346  0.65346  1.0000
  Fe  Fe58      1.0  0.97073  0.24364  0.71844  1.0000
  C   C769      1.0  0.39796  0.47020  0.63352  1.0000
  C   C770      1.0  0.04458  0.46498  0.76591  1.0000
  C   C771      1.0  0.43910  0.37894  0.63154  1.0000
  C   C772      1.0  0.44976  0.26704  0.72010  1.0000
  C   C773      1.0  0.21100  0.07705  0.79163  1.0000
  S   S110      1.0  0.23678  0.97651  0.72841  1.0000
  H   H627      1.0  0.04361  0.46475  0.75633  1.0000
  C   C774      1.0  0.16503  0.97560  0.71589  1.0000
  C   C775      1.0  0.20171  0.04550  0.79088  1.0000
  H   H628      1.0  0.07588  0.24860  0.62721  1.0000
  H   H629      1.0  0.02567  0.25048  0.62800  1.0000
  H   H630      1.0  0.20943  0.97946  0.65783  1.0000
  S   S111      1.0  0.29561  0.97769  0.74295  1.0000
  H   H631      1.0  0.25777  0.97752  0.65223  1.0000
  H   H632      1.0  0.41064  0.99151  0.62725  1.0000
  Fe  Fe59      1.0  0.02742  0.32977  0.83176  1.0000
  S   S112      1.0  0.05719  0.37904  0.82968  1.0000
  S   S113      1.0  0.00191  0.29391  0.81721  1.0000
  Fe  Fe60      1.0  0.04033  0.33382  0.85914  1.0000
  S   S114      1.0  0.07130  0.38375  0.85880  1.0000
  S   S115      1.0  0.03132  0.29963  0.87421  1.0000
  Fe  Fe61      1.0  0.03704  0.38863  0.84625  1.0000
  S   S116      1.0  0.01903  0.42608  0.84644  1.0000
  Fe  Fe62      1.0  0.08924  0.37111  0.84228  1.0000
  S   S117      1.0  0.13790  0.39012  0.83707  1.0000
  S   S118      1.0  0.00445  0.33923  0.84762  1.0000
  S   S119      1.0  0.06116  0.32126  0.84332  1.0000
  Fe  Fe63      1.0  0.26540  0.34342  0.85777  1.0000
  S   S120      1.0  0.26114  0.29581  0.85515  1.0000
  S   S121      1.0  0.22462  0.34643  0.86611  1.0000
  Fe  Fe64      1.0  0.33108  0.36998  0.84999  1.0000
  S   S122      1.0  0.33077  0.32320  0.84716  1.0000
  S   S123      1.0  0.36755  0.41486  0.84373  1.0000
  Fe  Fe65      1.0  0.28546  0.31102  0.83809  1.0000
  S   S124      1.0  0.26207  0.28000  0.82200  1.0000
  Fe  Fe66      1.0  0.30599  0.31186  0.86453  1.0000
  S   S125      1.0  0.30849  0.27900  0.87857  1.0000
  S   S126      1.0  0.28650  0.35787  0.84018  1.0000
  S   S127      1.0  0.30954  0.35929  0.86787  1.0000
  Fe  Fe67      1.0  0.98929  0.25085  0.94253  1.0000
  C   C776      1.0  0.33674  0.02920  0.95973  1.0000
  S   S128      1.0  0.00722  0.29111  0.92997  1.0000
  C   C777      1.0  0.41354  0.32351  0.84006  1.0000
  C   C778      1.0  0.02870  0.16011  0.92560  1.0000
  C   C779      1.0  0.21461  0.27830  0.93555  1.0000
  H   H633      1.0  0.24214  0.26380  0.88217  1.0000
  C   C780      1.0  0.99372  0.43986  0.81807  1.0000
  C   C781      1.0  0.21204  0.32360  0.94392  1.0000
  P   P24       1.0  0.04908  0.46640  0.80670  1.0000
  Fe  Fe68      1.0  0.26858  0.24010  0.94803  1.0000
  S   S129      1.0  0.28896  0.27795  0.93457  1.0000
  S   S130      1.0  0.22441  0.19992  0.94529  1.0000
  C   C782      1.0  0.00461  0.15971  0.91864  1.0000
  H   H634      1.0  0.39267  0.47210  0.88835  1.0000
  C   C783      1.0  0.32664  0.23880  0.85674  1.0000
  C   C784      1.0  0.21360  0.31755  0.92258  1.0000
  C   C785      1.0  0.30131  0.29782  0.80310  1.0000
  H   H635      1.0  0.42492  0.39795  0.83935  1.0000
  C   C786      1.0  0.21241  0.33474  0.93257  1.0000
  H   H636      1.0  0.99607  0.47209  0.84391  1.0000
  C   C787      1.0  0.21497  0.28931  0.92418  1.0000
  C   C788      1.0  0.26936  0.37097  0.89591  1.0000
  C   C789      1.0  0.22515  0.27202  0.88450  1.0000
  C   C790      1.0  0.23088  0.29333  0.89374  1.0000
  C   C791      1.0  0.30155  0.27910  0.89403  1.0000
  C   C792      1.0  0.30822  0.30600  0.90061  1.0000
  C   C793      1.0  0.30391  0.30508  0.91294  1.0000
  C   C794      1.0  0.29272  0.27736  0.91890  1.0000
  C   C795      1.0  0.28564  0.25043  0.91229  1.0000
  C   C796      1.0  0.29031  0.25136  0.89998  1.0000
  H   H637      1.0  0.31710  0.32755  0.89623  1.0000
  H   H638      1.0  0.30962  0.32605  0.91794  1.0000
  H   H639      1.0  0.27723  0.22894  0.91672  1.0000
  H   H640      1.0  0.28538  0.23042  0.89504  1.0000
  C   C797      1.0  0.40423  0.44055  0.84871  1.0000
  C   C798      1.0  0.11798  0.18433  0.95897  1.0000
  H   H641      1.0  0.40785  0.41470  0.86350  1.0000
  C   C799      1.0  0.27261  0.27943  0.80701  1.0000
  C   C800      1.0  0.39222  0.31194  0.83076  1.0000
  C   C801      1.0  0.31850  0.39959  0.90497  1.0000
  H   H642      1.0  0.31755  0.31370  0.80922  1.0000
  H   H643      1.0  0.22910  0.24521  0.80171  1.0000
  H   H644      1.0  0.21749  0.27617  0.91678  1.0000
  C   C802      1.0  0.16128  0.37662  0.84493  1.0000
  C   C803      1.0  0.19017  0.38263  0.84081  1.0000
  C   C804      1.0  0.20954  0.37268  0.84705  1.0000
  C   C805      1.0  0.20032  0.35741  0.85762  1.0000
  C   C806      1.0  0.17140  0.35138  0.86176  1.0000
  C   C807      1.0  0.15175  0.36063  0.85535  1.0000
  H   H645      1.0  0.19771  0.39527  0.83284  1.0000
  H   H646      1.0  0.23182  0.37745  0.84383  1.0000
  H   H647      1.0  0.16421  0.33954  0.86994  1.0000
  H   H648      1.0  0.12950  0.35597  0.85859  1.0000
  C   C808      1.0  0.02596  0.29809  0.88983  1.0000
  C   C809      1.0  0.01491  0.26962  0.89525  1.0000
  C   C810      1.0  0.00941  0.26703  0.90750  1.0000
  C   C811      1.0  0.01499  0.29296  0.91455  1.0000
  C   C812      1.0  0.02651  0.32147  0.90917  1.0000
  C   C813      1.0  0.03205  0.32407  0.89693  1.0000
  H   H649      1.0  0.01018  0.24935  0.88989  1.0000
  H   H650      1.0  0.00034  0.24496  0.91146  1.0000
  H   H651      1.0  0.03093  0.34172  0.91450  1.0000
  H   H652      1.0  0.04080  0.34616  0.89297  1.0000
  H   H653      1.0  0.21297  0.35727  0.93161  1.0000
  S   S131      1.0  0.25247  0.13156  0.95178  1.0000
  C   C814      1.0  0.26621  0.17714  0.82118  1.0000
  S   S132      1.0  0.28956  0.21356  0.95814  1.0000
  H   H654      1.0  0.16449  0.33368  0.92028  1.0000
  H   H655      1.0  0.32826  0.21963  0.81508  1.0000
  C   C815      1.0  0.00288  0.29248  0.80140  1.0000
  H   H656      1.0  0.37667  0.98252  0.83472  1.0000
  C   C816      1.0  0.19763  0.37180  0.89569  1.0000
  H   H657      1.0  0.31272  0.20866  0.79404  1.0000
  H   H658      1.0  0.43046  0.99214  0.83231  1.0000
  H   H659      1.0  0.15552  0.26571  0.87594  1.0000
  H   H660      1.0  0.21170  0.33710  0.95161  1.0000
  C   C817      1.0  0.39305  0.22476  0.83266  1.0000
  P   P25       1.0  0.17527  0.31214  0.80812  1.0000
  C   C818      1.0  0.21247  0.34267  0.80888  1.0000
  C   C819      1.0  0.14691  0.32497  0.80312  1.0000
  C   C820      1.0  0.39403  0.36253  0.82794  1.0000
  C   C821      1.0  0.13751  0.34255  0.81076  1.0000
  C   C822      1.0  0.01596  0.40553  0.81163  1.0000
  C   C823      1.0  0.99166  0.38106  0.81615  1.0000
  H   H661      1.0  0.44106  0.29523  0.82419  1.0000
  C   C824      1.0  0.01713  0.43512  0.81248  1.0000
  C   C825      1.0  0.12917  0.45653  0.80755  1.0000
  C   C826      1.0  0.16608  0.29803  0.82290  1.0000
  C   C827      1.0  0.18886  0.29960  0.83102  1.0000
  C   C828      1.0  0.18178  0.29091  0.84269  1.0000
  C   C829      1.0  0.15205  0.28063  0.84636  1.0000
  C   C830      1.0  0.12914  0.27813  0.83828  1.0000
  C   C831      1.0  0.13604  0.28643  0.82657  1.0000
  C   C832      1.0  0.01379  0.31867  0.79463  1.0000
  C   C833      1.0  0.24958  0.18033  0.80117  1.0000
  H   H662      1.0  0.16525  0.30304  0.89222  1.0000
  C   C834      1.0  0.08248  0.46177  0.81164  1.0000
  C   C835      1.0  0.98343  0.38700  0.87127  1.0000
  Fe  Fe69      1.0  0.00070  0.20115  0.95508  1.0000
  H   H663      1.0  0.14786  0.34943  0.81947  1.0000
  C   C836      1.0  0.24959  0.15186  0.79831  1.0000
  H   H664      1.0  0.32222  0.39368  0.92363  1.0000
  C   C837      1.0  0.25757  0.19276  0.81261  1.0000
  C   C838      1.0  0.03636  0.46632  0.84892  1.0000
  C   C839      1.0  0.42553  0.35451  0.84306  1.0000
  H   H665      1.0  0.21220  0.30806  0.82849  1.0000
  H   H666      1.0  0.19958  0.29320  0.84900  1.0000
  H   H667      1.0  0.14691  0.27514  0.85551  1.0000
  H   H668      1.0  0.10610  0.27044  0.84115  1.0000
  H   H669      1.0  0.11793  0.28449  0.82048  1.0000
  C   C840      1.0  0.29947  0.39128  0.89499  1.0000
  H   H670      1.0  0.30815  0.40021  0.88647  1.0000
  H   H671      1.0  0.34201  0.41470  0.90416  1.0000
  H   H672      1.0  0.25557  0.36366  0.88795  1.0000
  C   C841      1.0  0.16934  0.34901  0.91299  1.0000
  H   H673      1.0  0.21669  0.25700  0.93678  1.0000
  C   C842      1.0  0.13053  0.30052  0.94402  1.0000
  C   C843      1.0  0.10523  0.30536  0.94731  1.0000
  C   C844      1.0  0.07793  0.29043  0.94115  1.0000
  C   C845      1.0  0.07563  0.27008  0.93186  1.0000
  C   C846      1.0  0.10087  0.26477  0.92859  1.0000
  C   C847      1.0  0.12855  0.28071  0.93458  1.0000
  P   P26       1.0  0.09811  0.23947  0.91625  1.0000
  C   C848      1.0  0.06182  0.20759  0.91694  1.0000
  C   C849      1.0  0.09920  0.25836  0.90245  1.0000
  C   C850      1.0  0.09417  0.24190  0.89169  1.0000
  C   C851      1.0  0.09294  0.25570  0.88103  1.0000
  C   C852      1.0  0.09640  0.28592  0.88105  1.0000
  C   C853      1.0  0.10092  0.30228  0.89171  1.0000
  C   C854      1.0  0.10223  0.28859  0.90238  1.0000
  C   C855      1.0  0.21644  0.37282  0.81109  1.0000
  C   C856      1.0  0.23797  0.33601  0.80802  1.0000
  C   C857      1.0  0.26753  0.14945  0.81826  1.0000
  H   H674      1.0  0.23554  0.31287  0.80658  1.0000
  C   C858      1.0  0.03731  0.20710  0.91004  1.0000
  C   C859      1.0  0.12818  0.22642  0.91758  1.0000
  C   C860      1.0  0.13459  0.21684  0.92854  1.0000
  C   C861      1.0  0.15795  0.20718  0.92975  1.0000
  C   C862      1.0  0.17550  0.20737  0.92007  1.0000
  C   C863      1.0  0.16976  0.21740  0.90918  1.0000
  C   C864      1.0  0.14625  0.22690  0.90793  1.0000
  H   H675      1.0  0.15160  0.31190  0.94888  1.0000
  H   H676      1.0  0.28632  0.35336  0.80911  1.0000
  H   H677      1.0  0.05844  0.29458  0.94358  1.0000
  H   H678      1.0  0.05417  0.25872  0.92722  1.0000
  H   H679      1.0  0.14861  0.27772  0.93209  1.0000
  H   H680      1.0  0.09057  0.21819  0.89158  1.0000
  C   C865      1.0  0.11388  0.35046  0.80743  1.0000
  H   H681      1.0  0.08863  0.24283  0.87277  1.0000
  H   H682      1.0  0.10242  0.32533  0.89169  1.0000
  H   H683      1.0  0.10474  0.30143  0.91054  1.0000
  H   H684      1.0  0.07493  0.18394  0.93060  1.0000
  C   C866      1.0  0.10442  0.46202  0.80363  1.0000
  Fe  Fe70      1.0  0.24439  0.17394  0.95664  1.0000
  C   C867      1.0  0.24543  0.39577  0.81261  1.0000
  H   H685      1.0  0.03980  0.22545  0.90420  1.0000
  H   H686      1.0  0.12195  0.21741  0.93628  1.0000
  H   H687      1.0  0.16276  0.20008  0.93830  1.0000
  H   H688      1.0  0.19391  0.20027  0.92106  1.0000
  H   H689      1.0  0.18385  0.21817  0.90174  1.0000
  H   H690      1.0  0.14271  0.23491  0.89946  1.0000
  C   C868      1.0  0.29243  0.24268  0.84180  1.0000
  C   C869      1.0  0.45407  0.25900  0.82856  1.0000
  H   H691      1.0  0.34881  0.99155  0.95621  1.0000
  H   H692      1.0  0.46055  0.21888  0.83325  1.0000
  H   H693      1.0  0.09465  0.29646  0.87284  1.0000
  H   H694      1.0  0.31160  0.25979  0.82511  1.0000
  H   H695      1.0  0.24352  0.19302  0.79457  1.0000
  H   H696      1.0  0.14567  0.45598  0.80132  1.0000
  C   C870      1.0  0.40271  0.25518  0.82937  1.0000
  C   C871      1.0  0.11075  0.45099  0.82748  1.0000
  H   H697      1.0  0.25212  0.30117  0.89854  1.0000
  C   C872      1.0  0.21301  0.29532  0.94540  1.0000
  H   H698      1.0  0.19733  0.37868  0.81191  1.0000
  H   H699      1.0  0.20446  0.08701  0.79914  1.0000
  C   C873      1.0  0.41898  0.43508  0.85853  1.0000
  H   H700      1.0  0.27215  0.18661  0.83006  1.0000
  H   H701      1.0  0.33365  0.03284  0.95047  1.0000
  H   H702      1.0  0.10649  0.36354  0.81351  1.0000
  H   H703      1.0  0.15080  0.24539  0.80952  1.0000
  C   C874      1.0  0.17641  0.27313  0.88098  1.0000
  H   H704      1.0  0.11278  0.44586  0.83667  1.0000
  P   P27       1.0  0.21821  0.33395  0.90808  1.0000
  C   C875      1.0  0.19799  0.26205  0.87806  1.0000
  H   H705      1.0  0.33097  0.23473  0.86583  1.0000
  H   H706      1.0  0.39908  0.30474  0.80553  1.0000
  C   C876      1.0  0.27703  0.36813  0.91694  1.0000
  C   C877      1.0  0.20955  0.30487  0.89665  1.0000
  C   C878      1.0  0.30732  0.38787  0.91592  1.0000
  C   C879      1.0  0.25758  0.35966  0.90693  1.0000
  H   H707      1.0  0.26945  0.35906  0.92552  1.0000
  H   H708      1.0  0.27992  0.22873  0.85963  1.0000
  C   C880      1.0  0.19391  0.35375  0.90567  1.0000
  C   C881      1.0  0.17791  0.38566  0.89334  1.0000
  C   C882      1.0  0.15428  0.38174  0.90092  1.0000
  C   C883      1.0  0.29777  0.23551  0.85326  1.0000
  H   H709      1.0  0.10672  0.32069  0.95461  1.0000
  C   C884      1.0  0.99488  0.36850  0.87707  1.0000
  H   H710      1.0  0.37262  0.25282  0.85180  1.0000
  P   P28       1.0  0.37581  0.27176  0.82725  1.0000
  H   H711      1.0  0.36943  0.21104  0.83408  1.0000
  C   C885      1.0  0.26688  0.35897  0.80948  1.0000
  C   C886      1.0  0.34477  0.25557  0.83711  1.0000
  H   H712      1.0  0.42055  0.30859  0.84514  1.0000
  C   C887      1.0  0.00891  0.18322  0.91086  1.0000
  H   H713      1.0  0.02301  0.34074  0.79901  1.0000
  C   C888      1.0  0.31588  0.25296  0.83377  1.0000
  C   C889      1.0  0.35014  0.24910  0.84875  1.0000
  C   C890      1.0  0.08584  0.45615  0.82358  1.0000
  H   H714      1.0  0.27029  0.24127  0.83929  1.0000
  C   C891      1.0  0.38209  0.33158  0.82488  1.0000
  C   C892      1.0  0.37999  0.28383  0.80319  1.0000
  C   C893      1.0  0.43328  0.27204  0.82710  1.0000
  H   H715      1.0  0.19395  0.24613  0.87070  1.0000
  H   H716      1.0  0.36447  0.32294  0.81816  1.0000
  C   C894      1.0  0.27063  0.38884  0.81185  1.0000
  C   C895      1.0  0.99072  0.26399  0.79543  1.0000
  H   H717      1.0  0.03401  0.40138  0.80756  1.0000
  H   H718      1.0  0.01772  0.37809  0.88064  1.0000
  H   H719      1.0  0.24833  0.41886  0.81461  1.0000
  C   C896      1.0  0.24345  0.04490  0.95717  1.0000
  C   C897      1.0  0.18208  0.29441  0.89026  1.0000
  S   S133      1.0  0.97774  0.20202  0.93769  1.0000
  H   H720      1.0  0.99008  0.18334  0.90566  1.0000
  C   C898      1.0  0.97481  0.24775  0.85467  1.0000
  H   H721      1.0  0.18077  0.39908  0.88549  1.0000
  H   H722      1.0  0.38572  0.37759  0.82360  1.0000
  H   H723      1.0  0.99116  0.35835  0.81562  1.0000
  C   C899      1.0  0.13226  0.45090  0.81946  1.0000
  H   H724      1.0  0.13120  0.35978  0.91647  1.0000
  H   H725      1.0  0.21510  0.37453  0.88945  1.0000
  C   C900      1.0  0.17625  0.28265  0.79829  1.0000
  H   H726      1.0  0.40814  0.47164  0.83474  1.0000
  C   C901      1.0  0.25468  0.07581  0.95422  1.0000
  H   H727      1.0  0.98246  0.14159  0.91952  1.0000
  H   H728      1.0  0.07981  0.46874  0.85447  1.0000
  C   C902      1.0  0.44831  0.45604  0.86191  1.0000
  C   C903      1.0  0.44441  0.22894  0.83211  1.0000
  C   C904      1.0  0.05713  0.18394  0.92480  1.0000
  C   C905      1.0  0.15000  0.36342  0.91075  1.0000
  C   C906      1.0  0.36403  0.26361  0.81193  1.0000
  C   C907      1.0  0.34020  0.23606  0.80854  1.0000
  H   H729      1.0  0.40637  0.18840  0.83676  1.0000
  H   H730      1.0  0.13895  0.39240  0.89904  1.0000
  H   H731      1.0  0.27477  0.13766  0.82486  1.0000
  C   C908      1.0  0.25956  0.13697  0.80683  1.0000
  C   C909      1.0  0.23840  0.09354  0.95674  1.0000
  C   C910      1.0  0.97719  0.33744  0.87795  1.0000
  H   H732      1.0  0.98661  0.32318  0.88211  1.0000
  H   H733      1.0  0.25717  0.21460  0.81483  1.0000
  H   H734      1.0  0.44182  0.36342  0.85029  1.0000
  H   H735      1.0  0.27586  0.08595  0.94974  1.0000
  H   H736      1.0  0.29307  0.40647  0.81329  1.0000
  C   C911      1.0  0.41594  0.37401  0.83694  1.0000
  H   H737      1.0  0.02519  0.14247  0.93196  1.0000
  H   H738      1.0  0.15097  0.44581  0.82247  1.0000
  H   H739      1.0  0.99440  0.46241  0.81926  1.0000
  H   H740      1.0  0.99736  0.41101  0.87039  1.0000
  H   H741      1.0  0.26139  0.11583  0.80467  1.0000
  C   C912      1.0  0.41389  0.21179  0.83410  1.0000
  H   H742      1.0  0.99189  0.23923  0.85647  1.0000
  H   H743      1.0  0.06876  0.45499  0.82982  1.0000
  C   C913      1.0  0.16196  0.25193  0.80118  1.0000
  C   C914      1.0  0.96848  0.38598  0.82169  1.0000
  C   C915      1.0  0.41924  0.46719  0.84237  1.0000
  H   H744      1.0  0.98205  0.24354  0.80051  1.0000
  C   C916      1.0  0.25151  0.25932  0.79884  1.0000
  H   H745      1.0  0.07404  0.14865  0.95525  1.0000
  C   C917      1.0  0.96764  0.25183  0.84302  1.0000
  C   C918      1.0  0.96138  0.25643  0.86405  1.0000
  C   C919      1.0  0.09932  0.34082  0.79645  1.0000
  C   C920      1.0  0.96948  0.41533  0.82262  1.0000
  C   C921      1.0  0.33154  0.22957  0.79663  1.0000
  H   H746      1.0  0.18852  0.03138  0.79784  1.0000
  H   H747      1.0  0.25593  0.03145  0.95493  1.0000
  H   H748      1.0  0.21331  0.28684  0.95419  1.0000
  H   H749      1.0  0.15093  0.20567  0.79553  1.0000
  H   H750      1.0  0.97891  0.24619  0.83576  1.0000
  H   H751      1.0  0.45938  0.45167  0.86957  1.0000
  H   H752      1.0  0.96855  0.25458  0.87298  1.0000
  H   H753      1.0  0.10221  0.46572  0.79434  1.0000
  S   S134      1.0  0.03115  0.17551  0.95582  1.0000
  C   C922      1.0  0.08649  0.17267  0.95711  1.0000
  H   H754      1.0  0.12955  0.16934  0.95857  1.0000
  C   C923      1.0  0.07096  0.19172  0.95777  1.0000
  S   S135      1.0  0.01446  0.25068  0.95950  1.0000
  H   H755      1.0  0.19069  0.14960  0.79374  1.0000
  H   H756      1.0  0.08057  0.34640  0.79398  1.0000
  C   C924      1.0  0.16198  0.22932  0.79326  1.0000
  Fe  Fe71      1.0  0.98285  0.66612  0.97943  1.0000
  Fe  Fe72      1.0  0.22045  0.95760  0.96418  1.0000
  P   P29       1.0  0.28709  0.87456  0.09214  1.0000
  C   C925      1.0  0.08607  0.85401  0.03827  1.0000
  C   C926      1.0  0.27406  0.93824  0.06472  1.0000
  C   C927      1.0  0.96651  0.60788  0.11487  1.0000
  H   H757      1.0  0.01170  0.53387  0.07929  1.0000
  S   S136      1.0  0.21300  0.92877  0.98038  1.0000
  H   H758      1.0  0.25910  0.76507  0.09708  1.0000
  H   H759      1.0  0.07624  0.83743  0.04503  1.0000
  Fe  Fe73      1.0  0.26144  0.93632  0.97859  1.0000
  S   S137      1.0  0.24876  0.89488  0.96674  1.0000
  C   C928      1.0  0.09691  0.81501  0.00228  1.0000
  C   C929      1.0  0.99724  0.52291  0.08653  1.0000
  C   C930      1.0  0.33630  0.96736  0.12499  1.0000
  H   H760      1.0  0.30019  0.88299  0.06709  1.0000
  Fe  Fe74      1.0  0.99812  0.72375  0.96515  1.0000
  C   C931      1.0  0.32773  0.95652  0.01485  1.0000
  H   H761      1.0  0.26189  0.92112  0.09365  1.0000
  C   C932      1.0  0.22092  0.88221  0.00447  1.0000
  C   C933      1.0  0.24659  0.82584  0.07834  1.0000
  S   S138      1.0  0.29661  0.94257  0.99347  1.0000
  C   C934      1.0  0.96197  0.60260  0.02696  1.0000
  H   H762      1.0  0.38107  0.86271  0.08260  1.0000
  H   H763      1.0  0.99506  0.60422  0.01411  1.0000
  C   C935      1.0  0.08912  0.76278  0.00607  1.0000
  S   S139      1.0  0.96436  0.70201  0.97941  1.0000
  S   S140      1.0  0.26970  0.96687  0.96290  1.0000
  C   C936      1.0  0.20133  0.85677  0.99799  1.0000
  C   C937      1.0  0.10722  0.86643  0.01874  1.0000
  C   C938      1.0  0.12832  0.91029  0.97655  1.0000
  H   H764      1.0  0.08839  0.67456  0.97039  1.0000
  H   H765      1.0  0.41440  0.91380  0.09059  1.0000
  C   C939      1.0  0.11363  0.79099  0.96884  1.0000
  C   C940      1.0  0.11125  0.89670  0.02078  1.0000
  Fe  Fe75      1.0  0.20079  0.88957  0.96727  1.0000
  C   C941      1.0  0.23557  0.77309  0.08215  1.0000
  C   C942      1.0  0.32735  0.88578  0.09228  1.0000
  C   C943      1.0  0.05295  0.77291  0.99403  1.0000
  S   S141      1.0  0.01892  0.69003  0.96624  1.0000
  C   C944      1.0  0.08209  0.77598  0.96759  1.0000
  C   C945      1.0  0.17018  0.84786  0.99857  1.0000
  C   C946      1.0  0.10168  0.91478  0.97646  1.0000
  H   H766      1.0  0.31562  0.88851  0.11612  1.0000
  C   C947      1.0  0.37134  0.87698  0.08671  1.0000
  C   C948      1.0  0.10623  0.79402  0.00762  1.0000
  H   H767      1.0  0.96363  0.53983  0.10995  1.0000
  C   C949      1.0  0.24273  0.87205  0.10789  1.0000
  C   C950      1.0  0.28971  0.89807  0.06971  1.0000
  C   C951      1.0  0.26496  0.93901  0.07633  1.0000
  H   H768      1.0  0.96704  0.58760  0.03275  1.0000
  S   S142      1.0  0.16821  0.83991  0.96884  1.0000
  S   S143      1.0  0.44150  0.97268  0.07836  1.0000
  H   H769      1.0  0.32593  0.84515  0.08324  1.0000
  H   H770      1.0  0.09121  0.82170  0.02631  1.0000
  C   C952      1.0  0.34002  0.86705  0.08715  1.0000
  C   C953      1.0  0.07019  0.80415  0.99540  1.0000
  H   H771      1.0  0.07099  0.75205  0.96938  1.0000
  H   H772      1.0  0.12109  0.91357  0.01411  1.0000
  H   H773      1.0  0.39228  0.94724  0.09934  1.0000
  H   H774      1.0  0.22330  0.74918  0.07993  1.0000
  C   C954      1.0  0.34644  0.91471  0.09671  1.0000
  C   C955      1.0  0.15828  0.86436  0.00561  1.0000
  C   C956      1.0  0.28042  0.89857  0.08138  1.0000
  H   H775      1.0  0.21502  0.78799  0.06804  1.0000
  H   H776      1.0  0.03243  0.76468  0.98865  1.0000
  C   C957      1.0  0.23094  0.79497  0.07545  1.0000
  C   C958      1.0  0.06499  0.79221  0.96446  1.0000
  H   H777      1.0  0.12656  0.77840  0.97157  1.0000
  C   C959      1.0  0.27151  0.81289  0.09470  1.0000
  H   H778      1.0  0.16982  0.90377  0.01730  1.0000
  H   H779      1.0  0.15547  0.82872  0.99314  1.0000
  H   H780      1.0  0.35719  0.97228  0.12049  1.0000
  S   S144      1.0  0.97093  0.60654  0.09928  1.0000
  H   H781      1.0  0.33712  0.92991  0.10031  1.0000
  C   C960      1.0  0.28635  0.91772  0.06140  1.0000
  C   C961      1.0  0.26735  0.83502  0.08790  1.0000
  C   C962      1.0  0.37770  0.92456  0.09623  1.0000
  C   C963      1.0  0.27334  0.87818  0.10659  1.0000
  C   C964      1.0  0.06244  0.75222  0.99929  1.0000
  C   C965      1.0  0.09462  0.84515  0.02759  1.0000
  C   C966      1.0  0.29214  0.88448  0.11672  1.0000
  C   C967      1.0  0.39015  0.90571  0.09124  1.0000
  H   H782      1.0  0.29421  0.91786  0.05247  1.0000
  C   C968      1.0  0.17816  0.89003  0.01207  1.0000
  C   C969      1.0  0.26801  0.91920  0.08462  1.0000
  H   H783      1.0  0.28684  0.81954  0.10229  1.0000
  S   S145      1.0  0.02501  0.77483  0.96373  1.0000
  H   H784      1.0  0.24216  0.84230  0.07316  1.0000
  H   H785      1.0  0.24510  0.88955  0.00378  1.0000
  C   C970      1.0  0.98574  0.63368  0.12149  1.0000
  H   H786      1.0  0.14545  0.92139  0.97012  1.0000
  C   C971      1.0  0.25578  0.78205  0.09180  1.0000
  C   C972      1.0  0.20933  0.89874  0.01156  1.0000
  C   C973      1.0  0.12852  0.82219  0.96675  1.0000
  H   H787      1.0  0.13133  0.72466  0.96844  1.0000
  C   C974      1.0  0.98973  0.54024  0.09485  1.0000
  H   H788      1.0  0.22467  0.91879  0.01639  1.0000
  H   H789      1.0  0.00242  0.65247  0.11697  1.0000
  H   H790      1.0  0.22767  0.86635  0.10023  1.0000
  H   H791      1.0  0.15305  0.88717  0.98447  1.0000
  S   S146      1.0  0.99303  0.64365  0.99562  1.0000
  C   C975      1.0  0.13277  0.89119  0.98482  1.0000
  C   C976      1.0  0.09008  0.88414  0.04020  1.0000
  H   H792      1.0  0.04915  0.72800  0.99805  1.0000
  H   H793      1.0  0.21027  0.84453  0.99216  1.0000
  P   P30       1.0  0.11832  0.85538  0.00486  1.0000
  H   H794      1.0  0.12665  0.80178  0.01302  1.0000
  H   H795      1.0  0.09647  0.74667  0.01013  1.0000
  H   H796      1.0  0.06258  0.81951  0.99095  1.0000
  H   H797      1.0  0.35331  0.96743  0.03140  1.0000
  C   C977      1.0  0.08426  0.88172  0.99315  1.0000
  H   H798      1.0  0.99860  0.56471  0.09411  1.0000
  C   C978      1.0  0.28570  0.97093  0.01361  1.0000
  H   H799      1.0  0.06706  0.87094  0.99956  1.0000
  C   C979      1.0  0.11105  0.87719  0.99332  1.0000
  H   H800      1.0  0.25650  0.95568  0.07903  1.0000
  C   C980      1.0  0.07954  0.90030  0.98470  1.0000
  S   S147      1.0  0.35723  0.96461  0.07387  1.0000
  H   H801      1.0  0.98983  0.47782  0.08049  1.0000
  C   C981      1.0  0.30336  0.95764  0.00828  1.0000
  C   C982      1.0  0.96996  0.52600  0.10388  1.0000
  C   C983      1.0  0.96514  0.47698  0.09622  1.0000
  C   C984      1.0  0.98505  0.49132  0.08725  1.0000
  C   C985      1.0  0.97155  0.63153  0.00866  1.0000
  C   C986      1.0  0.23135  0.87327  0.11908  1.0000
  H   H802      1.0  0.08337  0.89092  0.04847  1.0000
  H   H803      1.0  0.09822  0.92936  0.96995  1.0000
  C   C987      1.0  0.97780  0.61204  0.01636  1.0000
  C   C988      1.0  0.09192  0.68634  0.96211  1.0000
  C   C989      1.0  0.11157  0.83817  0.96315  1.0000
  C   C990      1.0  0.10269  0.90547  0.03146  1.0000
  H   H804      1.0  0.27238  0.95409  0.05837  1.0000
  C   C991      1.0  0.28441  0.96108  0.12477  1.0000
  C   C992      1.0  0.31134  0.96742  0.11870  1.0000
  H   H805      1.0  0.10578  0.92884  0.03294  1.0000
  H   H806      1.0  0.05876  0.90356  0.98454  1.0000
  H   H807      1.0  0.34160  0.94634  0.01085  1.0000
  C   C993      1.0  0.11605  0.71453  0.96099  1.0000
  H   H808      1.0  0.20782  0.86892  0.12003  1.0000
  C   C994      1.0  0.33442  0.96844  0.02655  1.0000
  C   C995      1.0  0.07992  0.82333  0.96217  1.0000
  H   H809      1.0  0.26703  0.97215  0.00867  1.0000
  H   H810      1.0  0.12280  0.86196  0.96120  1.0000
  H   H811      1.0  0.26490  0.96090  0.12000  1.0000
  H   H812      1.0  0.45093  0.95330  0.12561  1.0000
  Fe  Fe76      1.0  0.21597  0.89977  0.18780  1.0000
  S   S148      1.0  0.26619  0.91099  0.18906  1.0000
  S   S149      1.0  0.18252  0.85075  0.19200  1.0000
  Fe  Fe77      1.0  0.27075  0.95244  0.19992  1.0000
  H   H813      1.0  0.05679  0.65599  0.20108  1.0000
  H   H814      1.0  0.02259  0.55799  0.27892  1.0000
  C   C996      1.0  0.96807  0.51923  0.13275  1.0000
  H   H815      1.0  0.02977  0.77590  0.19940  1.0000
  C   C997      1.0  0.05463  0.67651  0.25004  1.0000
  S   S150      1.0  0.22066  0.94013  0.19954  1.0000
  C   C998      1.0  0.03423  0.68447  0.25628  1.0000
  Fe  Fe78      1.0  0.01308  0.70876  0.18263  1.0000
  S   S151      1.0  0.02164  0.66604  0.18112  1.0000
  S   S152      1.0  0.04622  0.75770  0.17831  1.0000
  H   H816      1.0  0.17870  0.78114  0.25593  1.0000
  S   S153      1.0  0.22057  0.92477  0.17069  1.0000
  Fe  Fe79      1.0  0.99397  0.65187  0.19773  1.0000
  S   S154      1.0  0.00148  0.62443  0.21290  1.0000
  C   C999      1.0  0.99536  0.72234  0.14398  1.0000
  S   S155      1.0  0.98805  0.69552  0.19982  1.0000
  H   H817      1.0  0.98238  0.66335  0.22784  1.0000
  H   H818      1.0  0.99939  0.65489  0.13888  1.0000
  C   C1000     1.0  0.98716  0.62096  0.22749  1.0000
  H   H819      1.0  0.24170  0.88130  0.13776  1.0000
  H   H820      1.0  0.18848  0.83718  0.22575  1.0000
  H   H821      1.0  0.14344  0.75156  0.21260  1.0000
  Fe  Fe80      1.0  0.27067  0.93886  0.17270  1.0000
  H   H822      1.0  0.13780  0.80311  0.21851  1.0000
  H   H823      1.0  0.01411  0.71625  0.14225  1.0000
  S   S156      1.0  0.30520  0.94333  0.15829  1.0000
  C   C1001     1.0  0.29308  0.94962  0.24919  1.0000
  C   C1002     1.0  0.28852  0.95122  0.23690  1.0000
  H   H824      1.0  0.40029  0.94807  0.22292  1.0000
  C   C1003     1.0  0.98430  0.59554  0.23416  1.0000
  H   H825      1.0  0.02217  0.76204  0.15451  1.0000
  C   C1004     1.0  0.33404  0.96027  0.13710  1.0000
  H   H826      1.0  0.20911  0.82656  0.24452  1.0000
  Fe  Fe81      1.0  0.97765  0.64610  0.17064  1.0000
  H   H827      1.0  0.09125  0.80385  0.23648  1.0000
  H   H828      1.0  0.12796  0.74645  0.24872  1.0000
  C   C1005     1.0  0.40989  0.93910  0.27968  1.0000
  C   C1006     1.0  0.97981  0.64344  0.23275  1.0000
  C   C1007     1.0  0.14462  0.82534  0.18787  1.0000
  C   C1008     1.0  0.12527  0.83431  0.18119  1.0000
  C   C1009     1.0  0.09543  0.81336  0.17838  1.0000
  C   C1010     1.0  0.08433  0.78308  0.18215  1.0000
  C   C1011     1.0  0.10372  0.77409  0.18877  1.0000
  C   C1012     1.0  0.13350  0.79505  0.19162  1.0000
  H   H829      1.0  0.13327  0.85739  0.17820  1.0000
  H   H830      1.0  0.08085  0.82071  0.17321  1.0000
  H   H831      1.0  0.09582  0.75088  0.19158  1.0000
  H   H832      1.0  0.14827  0.78769  0.19664  1.0000
  C   C1013     1.0  0.30702  0.95364  0.14316  1.0000
  H   H833      1.0  0.99757  0.74336  0.22516  1.0000
  H   H834      1.0  0.45211  0.93870  0.28546  1.0000
  C   C1014     1.0  0.96314  0.61071  0.13992  1.0000
  C   C1015     1.0  0.96652  0.70387  0.13960  1.0000
  H   H835      1.0  0.37162  0.94561  0.27259  1.0000
  H   H836      1.0  0.43680  0.96053  0.23967  1.0000
  C   C1016     1.0  0.98398  0.63520  0.13392  1.0000
  C   C1017     1.0  0.96379  0.74784  0.21377  1.0000
  H   H837      1.0  0.03723  0.82332  0.21035  1.0000
  C   C1018     1.0  0.39586  0.95279  0.27239  1.0000
  H   H838      1.0  0.96483  0.65838  0.24847  1.0000
  H   H839      1.0  0.99255  0.51543  0.26522  1.0000
  H   H840      1.0  0.14850  0.71876  0.19677  1.0000
  C   C1019     1.0  0.28063  0.88543  0.12790  1.0000
  H   H841      1.0  0.18651  0.95804  0.21919  1.0000
  H   H842      1.0  0.97179  0.57272  0.25085  1.0000
  C   C1020     1.0  0.03147  0.71157  0.25389  1.0000
  H   H843      1.0  0.06786  0.83711  0.22898  1.0000
  H   H844      1.0  0.04636  0.75148  0.24350  1.0000
  H   H845      1.0  0.05307  0.74250  0.20661  1.0000
  H   H846      1.0  0.05611  0.65507  0.25169  1.0000
  C   C1021     1.0  0.07253  0.69577  0.24148  1.0000
  C   C1022     1.0  0.01753  0.53479  0.28135  1.0000
  H   H847      1.0  0.05040  0.68943  0.21649  1.0000
  H   H848      1.0  0.02003  0.66923  0.26279  1.0000
  S   S157      1.0  0.96994  0.68904  0.17135  1.0000
  C   C1023     1.0  0.25033  0.88003  0.12908  1.0000
  C   C1024     1.0  0.00063  0.51084  0.27362  1.0000
  H   H849      1.0  0.01524  0.71737  0.25863  1.0000
  H   H850      1.0  0.10526  0.67078  0.19093  1.0000
  H   H851      1.0  0.27659  0.93156  0.25410  1.0000
  C   C1025     1.0  0.96654  0.61492  0.25114  1.0000
  H   H852      1.0  0.08809  0.68909  0.23669  1.0000
  C   C1026     1.0  0.16957  0.78589  0.24780  1.0000
  C   C1027     1.0  0.18672  0.81150  0.24139  1.0000
  C   C1028     1.0  0.17509  0.81758  0.23086  1.0000
  C   C1029     1.0  0.14628  0.79819  0.22678  1.0000
  C   C1030     1.0  0.12885  0.77245  0.23319  1.0000
  C   C1031     1.0  0.14076  0.76629  0.24369  1.0000
  P   P31       1.0  0.09216  0.74706  0.22747  1.0000
  C   C1032     1.0  0.07384  0.77055  0.22215  1.0000
  C   C1033     1.0  0.09643  0.72321  0.21577  1.0000
  C   C1034     1.0  0.12416  0.73097  0.21019  1.0000
  C   C1035     1.0  0.12726  0.71225  0.20121  1.0000
  C   C1036     1.0  0.10294  0.68531  0.19790  1.0000
  C   C1037     1.0  0.07551  0.67711  0.20355  1.0000
  C   C1038     1.0  0.07206  0.69611  0.21234  1.0000
  C   C1039     1.0  0.07769  0.79736  0.22841  1.0000
  C   C1040     1.0  0.06440  0.81624  0.22422  1.0000
  C   C1041     1.0  0.04713  0.80849  0.21376  1.0000
  C   C1042     1.0  0.04295  0.78174  0.20757  1.0000
  C   C1043     1.0  0.05620  0.76277  0.21172  1.0000
  C   C1044     1.0  0.06982  0.72302  0.23895  1.0000
  C   C1045     1.0  0.04916  0.73081  0.24526  1.0000
  C   C1046     1.0  0.97383  0.59238  0.24587  1.0000
  H   H853      1.0  0.26879  0.93445  0.23245  1.0000
  S   S158      1.0  0.32317  0.96727  0.27073  1.0000
  H   H854      1.0  0.21776  0.95404  0.23604  1.0000
  C   C1047     1.0  0.97561  0.75557  0.15339  1.0000
  H   H855      1.0  0.39657  0.92159  0.28563  1.0000
  H   H856      1.0  0.97919  0.77533  0.15892  1.0000
  H   H857      1.0  0.26128  0.94920  0.14139  1.0000
  H   H858      1.0  0.99018  0.57814  0.23023  1.0000
  H   H859      1.0  0.96353  0.68364  0.13447  1.0000
  C   C1048     1.0  0.28227  0.95444  0.13692  1.0000
  H   H860      1.0  0.99550  0.55393  0.14532  1.0000
  H   H861      1.0  0.29530  0.89081  0.13569  1.0000
  C   C1049     1.0  0.99990  0.74815  0.15088  1.0000
  H   H862      1.0  0.35331  0.95969  0.14181  1.0000
  Fe  Fe82      1.0  0.22871  0.96557  0.18254  1.0000
  C   C1050     1.0  0.97371  0.73545  0.22314  1.0000
  H   H863      1.0  0.97981  0.76535  0.20851  1.0000
  C   C1051     1.0  0.41005  0.97094  0.22667  1.0000
  C   C1052     1.0  0.96966  0.64043  0.24447  1.0000
  C   C1053     1.0  0.97350  0.53598  0.14338  1.0000
  S   S159      1.0  0.96152  0.60979  0.15566  1.0000
  C   C1054     1.0  0.00320  0.47489  0.28783  1.0000
  C   C1055     1.0  0.99366  0.48094  0.27683  1.0000
  C   C1056     1.0  0.44114  0.94864  0.27953  1.0000
  H   H864      1.0  0.11858  0.96071  0.20794  1.0000
  C   C1057     1.0  0.45841  0.97182  0.27207  1.0000
  C   C1058     1.0  0.31879  0.97093  0.25519  1.0000
  C   C1059     1.0  0.02721  0.52884  0.29234  1.0000
  H   H865      1.0  0.98648  0.52382  0.12676  1.0000
  H   H866      1.0  0.30848  0.90691  0.34297  1.0000
  C   C1060     1.0  0.16946  0.77914  0.45319  1.0000
  Fe  Fe83      1.0  0.02705  0.61342  0.39410  1.0000
  S   S160      1.0  0.07727  0.62651  0.39407  1.0000
  S   S161      1.0  0.99351  0.59129  0.37857  1.0000
  Fe  Fe84      1.0  0.02614  0.61654  0.42184  1.0000
  S   S162      1.0  0.07589  0.62880  0.42344  1.0000
  H   H867      1.0  0.13832  0.92192  0.37186  1.0000
  Fe  Fe85      1.0  0.08121  0.66098  0.40854  1.0000
  S   S163      1.0  0.11488  0.71092  0.41132  1.0000
  Fe  Fe86      1.0  0.06842  0.59373  0.40890  1.0000
  S   S164      1.0  0.09164  0.56128  0.40868  1.0000
  S   S165      1.0  0.03118  0.65031  0.40752  1.0000
  S   S166      1.0  0.01841  0.57905  0.40844  1.0000
  Fe  Fe87      1.0  0.33162  0.90231  0.39666  1.0000
  S   S167      1.0  0.33288  0.85607  0.39614  1.0000
  S   S168      1.0  0.35246  0.94026  0.38321  1.0000
  Fe  Fe88      1.0  0.31118  0.89497  0.42287  1.0000
  S   S169      1.0  0.31044  0.84814  0.42377  1.0000
  S   S170      1.0  0.29948  0.91844  0.43865  1.0000
  Fe  Fe89      1.0  0.35430  0.86786  0.41429  1.0000
  S   S171      1.0  0.39531  0.86297  0.42213  1.0000
  Fe  Fe90      1.0  0.28835  0.83977  0.40561  1.0000
  S   S172      1.0  0.25286  0.79300  0.39934  1.0000
  S   S173      1.0  0.35599  0.91503  0.41433  1.0000
  S   S174      1.0  0.28607  0.88569  0.40518  1.0000
  C   C1061     1.0  0.42186  0.85908  0.41253  1.0000
  C   C1062     1.0  0.41295  0.84362  0.40165  1.0000
  C   C1063     1.0  0.43425  0.83887  0.39457  1.0000
  C   C1064     1.0  0.40552  0.47382  0.43844  1.0000
  H   H868      1.0  0.38954  0.83477  0.39881  1.0000
  C   C1065     1.0  0.09247  0.54892  0.44768  1.0000
  C   C1066     1.0  0.32123  0.93105  0.45205  1.0000
  H   H869      1.0  0.26805  0.76833  0.41996  1.0000
  C   C1067     1.0  0.45768  0.95027  0.34635  1.0000
  C   C1068     1.0  0.23975  0.73125  0.43051  1.0000
  H   H870      1.0  0.18690  0.50279  0.34364  1.0000
  C   C1069     1.0  0.06951  0.52235  0.40588  1.0000
  C   C1070     1.0  0.03829  0.51123  0.40433  1.0000
  C   C1071     1.0  0.16032  0.59145  0.42393  1.0000
  C   C1072     1.0  0.08357  0.50213  0.40512  1.0000
  H   H871      1.0  0.02716  0.52646  0.40479  1.0000
  H   H872      1.0  0.10768  0.51066  0.40645  1.0000
  C   C1073     1.0  0.15335  0.73295  0.40786  1.0000
  C   C1074     1.0  0.17145  0.72061  0.40224  1.0000
  C   C1075     1.0  0.20178  0.73928  0.39976  1.0000
  C   C1076     1.0  0.21457  0.77043  0.40294  1.0000
  C   C1077     1.0  0.19642  0.78275  0.40850  1.0000
  C   C1078     1.0  0.16607  0.76414  0.41090  1.0000
  H   H873      1.0  0.16199  0.69681  0.39968  1.0000
  H   H874      1.0  0.21544  0.72950  0.39533  1.0000
  H   H875      1.0  0.20566  0.80671  0.41078  1.0000
  H   H876      1.0  0.15207  0.77396  0.41499  1.0000
  H   H877      1.0  0.38350  0.89973  0.38206  1.0000
  H   H878      1.0  0.01575  0.65179  0.34217  1.0000
  C   C1079     1.0  0.07264  0.55475  0.43999  1.0000
  P   P32       1.0  0.24209  0.93635  0.38269  1.0000
  C   C1080     1.0  0.13774  0.61622  0.43699  1.0000
  S   S175      1.0  0.33325  0.95862  0.32815  1.0000
  C   C1081     1.0  0.00553  0.54987  0.32858  1.0000
  C   C1082     1.0  0.25118  0.76117  0.42674  1.0000
  C   C1083     1.0  0.97871  0.60824  0.33925  1.0000
  H   H879      1.0  0.24084  0.91273  0.35839  1.0000
  C   C1084     1.0  0.00706  0.62562  0.35807  1.0000
  C   C1085     1.0  0.98902  0.59841  0.36338  1.0000
  C   C1086     1.0  0.16339  0.53008  0.33816  1.0000
  H   H880      1.0  0.18245  0.61705  0.40883  1.0000
  H   H881      1.0  0.16024  0.50164  0.40191  1.0000
  H   H882      1.0  0.02483  0.64306  0.36320  1.0000
  H   H883      1.0  0.12436  0.61601  0.44459  1.0000
  H   H884      1.0  0.27450  0.90028  0.37503  1.0000
  C   C1087     1.0  0.19866  0.84466  0.38756  1.0000
  C   C1088     1.0  0.34743  0.94439  0.36779  1.0000
  C   C1089     1.0  0.32780  0.92062  0.36053  1.0000
  C   C1090     1.0  0.32402  0.92539  0.34845  1.0000
  H   H885      1.0  0.31557  0.89852  0.36420  1.0000
  C   C1091     1.0  0.25527  0.93673  0.35872  1.0000
  C   C1092     1.0  0.00953  0.59031  0.45729  1.0000
  C   C1093     1.0  0.10710  0.47435  0.42746  1.0000
  H   H886      1.0  0.09782  0.52669  0.34947  1.0000
  H   H887      1.0  0.19137  0.73531  0.45106  1.0000
  C   C1094     1.0  0.45407  0.90173  0.38073  1.0000
  H   H888      1.0  0.18276  0.90939  0.37110  1.0000
  H   H889      1.0  0.11761  0.54365  0.37376  1.0000
  C   C1095     1.0  0.16738  0.50793  0.34491  1.0000
  C   C1096     1.0  0.24616  0.85374  0.37841  1.0000
  H   H890      1.0  0.08391  0.53404  0.29709  1.0000
  C   C1097     1.0  0.12123  0.49933  0.35526  1.0000
  H   H891      1.0  0.17799  0.82898  0.39139  1.0000
  H   H892      1.0  0.26232  0.84522  0.37529  1.0000
  S   S176      1.0  0.99302  0.61219  0.43682  1.0000
  H   H893      1.0  0.13710  0.54192  0.29646  1.0000
  H   H894      1.0  0.16449  0.57196  0.42120  1.0000
  H   H895      1.0  0.42717  0.82659  0.38621  1.0000
  C   C1098     1.0  0.34008  0.95380  0.34337  1.0000
  C   C1099     1.0  0.12182  0.52458  0.30204  1.0000
  C   C1100     1.0  0.00178  0.63053  0.34613  1.0000
  H   H896      1.0  0.08047  0.56638  0.43185  1.0000
  H   H897      1.0  0.05521  0.54536  0.34907  1.0000
  C   C1101     1.0  0.24029  0.78173  0.43138  1.0000
  C   C1102     1.0  0.11853  0.73978  0.45158  1.0000
  H   H898      1.0  0.39633  0.53830  0.38109  1.0000
  H   H899      1.0  0.21394  0.80961  0.38325  1.0000
  H   H900      1.0  0.03993  0.54775  0.29826  1.0000
  H   H901      1.0  0.99420  0.52602  0.31196  1.0000
  C   C1103     1.0  0.14392  0.59085  0.43411  1.0000
  C   C1104     1.0  0.45950  0.52961  0.37257  1.0000
  C   C1105     1.0  0.42967  0.95574  0.32528  1.0000
  C   C1106     1.0  0.17058  0.61706  0.41685  1.0000
  C   C1107     1.0  0.29812  0.96219  0.39428  1.0000
  H   H902      1.0  0.40518  0.92114  0.43649  1.0000
  H   H903      1.0  0.18958  0.88387  0.39115  1.0000
  C   C1108     1.0  0.20926  0.94473  0.38373  1.0000
  C   C1109     1.0  0.96457  0.59983  0.45827  1.0000
  H   H904      1.0  0.35192  0.91025  0.44836  1.0000
  C   C1110     1.0  0.41462  0.95223  0.33592  1.0000
  H   H905      1.0  0.26482  0.95289  0.42562  1.0000
  H   H906      1.0  0.24883  0.80449  0.42805  1.0000
  P   P33       1.0  0.13095  0.55812  0.44351  1.0000
  C   C1111     1.0  0.26678  0.95050  0.39549  1.0000
  H   H907      1.0  0.13497  0.55369  0.33453  1.0000
  C   C1112     1.0  0.98946  0.60049  0.45184  1.0000
  C   C1113     1.0  0.42828  0.50543  0.40711  1.0000
  C   C1114     1.0  0.13817  0.53661  0.33980  1.0000
  H   H908      1.0  0.39212  0.95161  0.33594  1.0000
  C   C1115     1.0  0.34579  0.92387  0.45461  1.0000
  H   H909      1.0  0.17983  0.54220  0.33165  1.0000
  C   C1116     1.0  0.13250  0.52509  0.43619  1.0000
  H   H910      1.0  0.18108  0.54174  0.43749  1.0000
  H   H911      1.0  0.23070  0.93712  0.40802  1.0000
  H   H912      1.0  0.14315  0.66125  0.43210  1.0000
  C   C1117     1.0  0.10598  0.50072  0.43233  1.0000
  C   C1118     1.0  0.45225  0.87025  0.41618  1.0000
  C   C1119     1.0  0.23375  0.82342  0.45725  1.0000
  H   H913      1.0  0.02017  0.57032  0.34588  1.0000
  C   C1120     1.0  0.16030  0.52308  0.43468  1.0000
  S   S177      1.0  0.97300  0.61598  0.32424  1.0000
  C   C1121     1.0  0.17354  0.82200  0.43126  1.0000
  C   C1122     1.0  0.01976  0.49877  0.29578  1.0000
  H   H914      1.0  0.40487  0.89226  0.45853  1.0000
  C   C1123     1.0  0.43453  0.94425  0.42247  1.0000
  H   H915      1.0  0.08442  0.50213  0.43286  1.0000
  H   H916      1.0  0.14735  0.51948  0.45946  1.0000
  C   C1124     1.0  0.14838  0.64193  0.42997  1.0000
  C   C1125     1.0  0.42859  0.94956  0.34646  1.0000
  C   C1126     1.0  0.20193  0.82533  0.43568  1.0000
  C   C1127     1.0  0.09150  0.51996  0.30239  1.0000
  C   C1128     1.0  0.17106  0.84276  0.42329  1.0000
  C   C1129     1.0  0.19677  0.86749  0.41991  1.0000
  C   C1130     1.0  0.22499  0.87133  0.42442  1.0000
  C   C1131     1.0  0.22766  0.85021  0.43215  1.0000
  H   H917      1.0  0.43359  0.81907  0.43346  1.0000
  C   C1132     1.0  0.16140  0.49687  0.42960  1.0000
  H   H918      1.0  0.17213  0.66192  0.41428  1.0000
  H   H919      1.0  0.20917  0.69885  0.44216  1.0000
  C   C1133     1.0  0.07946  0.55381  0.37718  1.0000
  C   C1134     1.0  0.13109  0.49183  0.38647  1.0000
  H   H920      1.0  0.19484  0.88376  0.41386  1.0000
  H   H921      1.0  0.24492  0.89084  0.42206  1.0000
  H   H922      1.0  0.40901  0.49585  0.43505  1.0000
  C   C1135     1.0  0.23227  0.89599  0.38247  1.0000
  C   C1136     1.0  0.21830  0.77269  0.44006  1.0000
  C   C1137     1.0  0.04566  0.52234  0.33196  1.0000
  H   H923      1.0  0.43201  0.87213  0.44483  1.0000
  C   C1138     1.0  0.02135  0.48027  0.40182  1.0000
  C   C1139     1.0  0.45329  0.81912  0.43813  1.0000
  H   H924      1.0  0.24772  0.71526  0.42662  1.0000
  H   H925      1.0  0.15585  0.51032  0.30848  1.0000
  H   H926      1.0  0.41894  0.95828  0.31714  1.0000
  C   C1140     1.0  0.02258  0.55538  0.33908  1.0000
  C   C1141     1.0  0.26917  0.95058  0.34837  1.0000
  H   H927      1.0  0.41574  0.51951  0.40747  1.0000
  H   H928      1.0  0.45932  0.88226  0.42457  1.0000
  C   C1142     1.0  0.14665  0.75575  0.44667  1.0000
  C   C1143     1.0  0.16469  0.64231  0.41988  1.0000
  C   C1144     1.0  0.25290  0.88483  0.37823  1.0000
  H   H929      1.0  0.98996  0.56052  0.32720  1.0000
  C   C1145     1.0  0.20531  0.87575  0.38735  1.0000
  H   H930      1.0  0.43470  0.58208  0.39219  1.0000
  C   C1146     1.0  0.20766  0.74278  0.44412  1.0000
  H   H931      1.0  0.15316  0.80341  0.43383  1.0000
  C   C1147     1.0  0.02885  0.51702  0.32133  1.0000
  C   C1148     1.0  0.07587  0.50362  0.37126  1.0000
  C   C1149     1.0  0.40734  0.90691  0.38397  1.0000
  C   C1150     1.0  0.21896  0.83366  0.38300  1.0000
  H   H932      1.0  0.18287  0.49539  0.42843  1.0000
  S   S178      1.0  0.97136  0.57064  0.29503  1.0000
  C   C1151     1.0  0.11268  0.48454  0.31601  1.0000
  C   C1152     1.0  0.07145  0.49741  0.30951  1.0000
  C   C1153     1.0  0.25480  0.94716  0.40685  1.0000
  H   H933      1.0  0.03739  0.55781  0.37994  1.0000
  H   H934      1.0  0.14911  0.83968  0.41979  1.0000
  C   C1154     1.0  0.04247  0.54142  0.34081  1.0000
  C   C1155     1.0  0.14634  0.49251  0.35341  1.0000
  C   C1156     1.0  0.13239  0.50682  0.30881  1.0000
  C   C1157     1.0  0.41641  0.94258  0.43214  1.0000
  H   H935      1.0  0.06082  0.51138  0.33347  1.0000
  C   C1158     1.0  0.18342  0.92794  0.37681  1.0000
  H   H936      1.0  0.41181  0.87371  0.37212  1.0000
  C   C1159     1.0  0.31723  0.97090  0.40427  1.0000
  C   C1160     1.0  0.42004  0.54314  0.38032  1.0000
  H   H937      1.0  0.02828  0.48143  0.43506  1.0000
  H   H938      1.0  0.24986  0.85379  0.43554  1.0000
  H   H939      1.0  0.00625  0.50371  0.37501  1.0000
  C   C1161     1.0  0.15829  0.93512  0.37716  1.0000
  C   C1162     1.0  0.21801  0.72205  0.43922  1.0000
  C   C1163     1.0  0.14768  0.48475  0.39523  1.0000
  C   C1164     1.0  0.96587  0.57613  0.35651  1.0000
  C   C1165     1.0  0.09330  0.53441  0.37408  1.0000
  H   H940      1.0  0.39687  0.96644  0.44308  1.0000
  H   H941      1.0  0.10104  0.72188  0.44644  1.0000
  C   C1166     1.0  0.42197  0.93059  0.39215  1.0000
  C   C1167     1.0  0.04810  0.54282  0.37739  1.0000
  C   C1168     1.0  0.04430  0.49272  0.37161  1.0000
  H   H942      1.0  0.02727  0.55037  0.43675  1.0000
  H   H943      1.0  0.15053  0.74994  0.43772  1.0000
  C   C1169     1.0  0.04231  0.54550  0.44273  1.0000
  C   C1170     1.0  0.21024  0.96984  0.39048  1.0000
  H   H944      1.0  0.09303  0.57733  0.37965  1.0000
  C   C1171     1.0  0.11714  0.52126  0.34830  1.0000
  C   C1172     1.0  0.44164  0.56776  0.38659  1.0000
  H   H945      1.0  0.26615  0.93724  0.34027  1.0000
  C   C1173     1.0  0.42892  0.52431  0.37323  1.0000
  C   C1174     1.0  0.42926  0.90282  0.45834  1.0000
  H   H946      1.0  0.13130  0.51431  0.38654  1.0000
  C   C1175     1.0  0.45859  0.95624  0.32511  1.0000
  C   C1176     1.0  0.03056  0.51230  0.37460  1.0000
  C   C1177     1.0  0.45298  0.94041  0.39452  1.0000
  C   C1178     1.0  0.00830  0.53048  0.31983  1.0000
  H   H947      1.0  0.41180  0.50548  0.36841  1.0000
  H   H948      1.0  0.30791  0.96370  0.38567  1.0000
  H   H949      1.0  0.41672  0.94688  0.35470  1.0000
  H   H950      1.0  0.02915  0.59145  0.45262  1.0000
  P   P34       1.0  0.20550  0.79979  0.44657  1.0000
  C   C1179     1.0  0.46001  0.51902  0.40706  1.0000
  P   P35       1.0  0.03224  0.49141  0.31013  1.0000
  H   H951      1.0  0.96476  0.53725  0.42693  1.0000
  P   P36       1.0  0.09391  0.47933  0.36619  1.0000
  C   C1180     1.0  0.42336  0.89250  0.37825  1.0000
  C   C1181     1.0  0.41269  0.47365  0.40658  1.0000
  H   H952      1.0  0.43742  0.92414  0.41954  1.0000
  H   H953      1.0  0.40914  0.94165  0.39640  1.0000
  C   C1182     1.0  0.08239  0.47992  0.31639  1.0000
  C   C1183     1.0  0.44459  0.89132  0.45068  1.0000
  H   H954      1.0  0.29448  0.95417  0.45855  1.0000
  H   H955      1.0  0.21667  0.85854  0.45787  1.0000
  C   C1184     1.0  0.15905  0.95952  0.38420  1.0000
  H   H956      1.0  0.25769  0.79407  0.45835  1.0000
  C   C1185     1.0  0.44867  0.97160  0.41655  1.0000
  C   C1186     1.0  0.26031  0.95379  0.36932  1.0000
  H   H957      1.0  0.97120  0.48907  0.42394  1.0000
  H   H958      1.0  0.00810  0.52397  0.45543  1.0000
  C   C1187     1.0  0.96217  0.49336  0.43214  1.0000
  C   C1188     1.0  0.27399  0.95607  0.41683  1.0000
  C   C1189     1.0  0.45603  0.82323  0.45041  1.0000
  H   H959      1.0  0.14981  0.47536  0.35853  1.0000
  C   C1190     1.0  0.41166  0.96805  0.43580  1.0000
  C   C1191     1.0  0.08146  0.53390  0.45823  1.0000
  C   C1192     1.0  0.03153  0.53060  0.45324  1.0000
  H   H960      1.0  0.13961  0.96515  0.38442  1.0000
  H   H961      1.0  0.45166  0.48755  0.44378  1.0000
  H   H962      1.0  0.43836  0.82624  0.45528  1.0000
  C   C1193     1.0  0.30518  0.96787  0.41554  1.0000
  C   C1194     1.0  0.15430  0.56632  0.45682  1.0000
  H   H963      1.0  0.16572  0.61477  0.45722  1.0000
  C   C1195     1.0  0.36379  0.97271  0.36269  1.0000
  Fe  Fe91      1.0  0.02800  0.61874  0.61263  1.0000
  S   S179      1.0  0.07639  0.62810  0.60959  1.0000
  S   S180      1.0  0.99051  0.59312  0.59891  1.0000
  C   C1196     1.0  0.43921  0.95890  0.55275  1.0000
  H   H964      1.0  0.37352  0.93844  0.59569  1.0000
  H   H965      1.0  0.25987  0.53179  0.60296  1.0000
  H   H966      1.0  0.09789  0.70355  0.56680  1.0000
  H   H967      1.0  0.18072  0.80435  0.46987  1.0000
  P   P37       1.0  0.42431  0.92784  0.58650  1.0000
  Fe  Fe92      1.0  0.30462  0.91181  0.61496  1.0000
  S   S181      1.0  0.32219  0.87531  0.61554  1.0000
  S   S182      1.0  0.30972  0.94352  0.59927  1.0000
  C   C1197     1.0  0.99666  0.70172  0.60111  1.0000
  C   C1198     1.0  0.13542  0.77028  0.46959  1.0000
  C   C1199     1.0  0.33653  0.94790  0.55994  1.0000
  H   H968      1.0  0.98878  0.53772  0.56982  1.0000
  C   C1200     1.0  0.04627  0.70410  0.59657  1.0000
  H   H969      1.0  0.09617  0.52893  0.46427  1.0000
  C   C1201     1.0  0.20584  0.74505  0.62473  1.0000
  H   H970      1.0  0.03167  0.53578  0.62581  1.0000
  C   C1202     1.0  0.35486  0.95190  0.47364  1.0000
  S   S183      1.0  0.11846  0.71864  0.61342  1.0000
  C   C1203     1.0  0.31136  0.52589  0.62242  1.0000
  C   C1204     1.0  0.18707  0.51089  0.62207  1.0000
  C   C1205     1.0  0.00854  0.48346  0.55763  1.0000
  C   C1206     1.0  0.37447  0.88234  0.57497  1.0000
  C   C1207     1.0  0.09690  0.56837  0.59671  1.0000
  C   C1208     1.0  0.32214  0.94469  0.58439  1.0000
  C   C1209     1.0  0.32084  0.91880  0.57815  1.0000
  C   C1210     1.0  0.32747  0.92034  0.56598  1.0000
  C   C1211     1.0  0.33104  0.57479  0.61308  1.0000
  H   H971      1.0  0.31375  0.89740  0.58259  1.0000
  H   H972      1.0  0.32520  0.89995  0.56116  1.0000
  C   C1212     1.0  0.98591  0.59686  0.58346  1.0000
  C   C1213     1.0  0.00671  0.62040  0.57702  1.0000
  C   C1214     1.0  0.00101  0.62340  0.56494  1.0000
  H   H973      1.0  0.18477  0.76976  0.55739  1.0000
  H   H974      1.0  0.08351  0.74710  0.60001  1.0000
  H   H975      1.0  0.02691  0.63659  0.58138  1.0000
  H   H976      1.0  0.01679  0.64222  0.56014  1.0000
  C   C1215     1.0  0.16095  0.48531  0.61907  1.0000
  H   H977      1.0  0.97204  0.50734  0.47475  1.0000
  C   C1216     1.0  0.97066  0.51693  0.60833  1.0000
  C   C1217     1.0  0.98081  0.52222  0.55170  1.0000
  C   C1218     1.0  0.15845  0.54277  0.46269  1.0000
  H   H978      1.0  0.06633  0.52265  0.60002  1.0000
  C   C1219     1.0  0.42561  0.94898  0.57332  1.0000
  H   H979      1.0  0.44806  0.92634  0.56302  1.0000
  H   H980      1.0  0.04497  0.56505  0.56993  1.0000
  C   C1220     1.0  0.99149  0.52245  0.56325  1.0000
  H   H981      1.0  0.09102  0.73458  0.46683  1.0000
  C   C1221     1.0  0.97888  0.57726  0.47512  1.0000
  H   H982      1.0  0.12748  0.50698  0.49066  1.0000
  C   C1222     1.0  0.33936  0.83775  0.58463  1.0000
  C   C1223     1.0  0.16857  0.59614  0.46142  1.0000
  C   C1224     1.0  0.00590  0.50343  0.56629  1.0000
  S   S184      1.0  0.25710  0.79811  0.62618  1.0000
  H   H983      1.0  0.05126  0.77231  0.60729  1.0000
  H   H984      1.0  0.04275  0.51357  0.46919  1.0000
  C   C1225     1.0  0.00416  0.57859  0.46880  1.0000
  H   H985      1.0  0.38125  0.92843  0.46719  1.0000
  H   H986      1.0  0.11102  0.56974  0.60439  1.0000
  C   C1226     1.0  0.98976  0.50097  0.59097  1.0000
  H   H987      1.0  0.01046  0.51996  0.49055  1.0000
  C   C1227     1.0  0.97487  0.60254  0.55905  1.0000
  S   S185      1.0  0.34070  0.94773  0.54426  1.0000
  H   H988      1.0  0.13096  0.77588  0.47846  1.0000
  C   C1228     1.0  0.42040  0.94811  0.59947  1.0000
  H   H989      1.0  0.26744  0.83886  0.58692  1.0000
  H   H990      1.0  0.39426  0.88238  0.60396  1.0000
  H   H991      1.0  0.13215  0.73634  0.55186  1.0000
  H   H992      1.0  0.30118  0.58231  0.60054  1.0000
  C   C1229     1.0  0.26866  0.75624  0.60414  1.0000
  C   C1230     1.0  0.97825  0.48960  0.47798  1.0000
  C   C1231     1.0  0.28152  0.86406  0.47144  1.0000
  C   C1232     1.0  0.25803  0.87188  0.46788  1.0000
  C   C1233     1.0  0.05707  0.47412  0.57752  1.0000
  H   H993      1.0  0.43820  0.87614  0.59414  1.0000
  C   C1234     1.0  0.19136  0.57887  0.47724  1.0000
  H   H994      1.0  0.20584  0.58377  0.48506  1.0000
  H   H995      1.0  0.97647  0.68478  0.57787  1.0000
  C   C1235     1.0  0.39266  0.94960  0.60165  1.0000
  H   H996      1.0  0.13902  0.48606  0.61983  1.0000
  H   H997      1.0  0.29937  0.82990  0.47080  1.0000
  C   C1236     1.0  0.20086  0.97213  0.53088  1.0000
  H   H998      1.0  0.30049  0.88024  0.47655  1.0000
  H   H999      1.0  0.25892  0.89414  0.47021  1.0000
  C   C1237     1.0  0.18696  0.60233  0.47159  1.0000
  H   H1000     1.0  0.26431  0.79714  0.59960  1.0000
  H   H1001     1.0  0.06780  0.49099  0.57095  1.0000
  C   C1238     1.0  0.28046  0.93851  0.50845  1.0000
  C   C1239     1.0  0.28206  0.92566  0.51927  1.0000
  C   C1240     1.0  0.27299  0.93561  0.52959  1.0000
  C   C1241     1.0  0.21763  0.48280  0.61751  1.0000
  H   H1002     1.0  0.20793  0.81465  0.61872  1.0000
  C   C1242     1.0  0.26230  0.95861  0.52919  1.0000
  C   C1243     1.0  0.41316  0.97068  0.57304  1.0000
  C   C1244     1.0  0.23609  0.94156  0.55274  1.0000
  C   C1245     1.0  0.20477  0.92571  0.55372  1.0000
  C   C1246     1.0  0.19300  0.90197  0.56166  1.0000
  S   S186      1.0  0.03934  0.66374  0.62199  1.0000
  C   C1247     1.0  0.08405  0.48429  0.48203  1.0000
  C   C1248     1.0  0.34847  0.85526  0.57455  1.0000
  C   C1249     1.0  0.44530  0.92828  0.46558  1.0000
  C   C1250     1.0  0.43855  0.94313  0.56307  1.0000
  C   C1251     1.0  0.31345  0.94850  0.46041  1.0000
  C   C1252     1.0  0.28057  0.53800  0.60811  1.0000
  S   S187      1.0  0.26236  0.88429  0.62497  1.0000
  H   H1003     1.0  0.44940  0.95467  0.54486  1.0000
  C   C1253     1.0  0.16362  0.78638  0.46468  1.0000
  C   C1254     1.0  0.00015  0.49684  0.48701  1.0000
  S   S188      1.0  0.37706  0.96413  0.48696  1.0000
  C   C1255     1.0  0.04105  0.74881  0.60426  1.0000
  H   H1004     1.0  0.07451  0.49854  0.48631  1.0000
  C   C1256     1.0  0.03272  0.47485  0.58386  1.0000
  H   H1005     1.0  0.28842  0.93145  0.50053  1.0000
  H   H1006     1.0  0.29144  0.90878  0.51977  1.0000
  H   H1007     1.0  0.27535  0.92593  0.53789  1.0000
  C   C1257     1.0  0.45878  0.92202  0.58762  1.0000
  H   H1008     1.0  0.18931  0.93161  0.54847  1.0000
  H   H1009     1.0  0.16885  0.88996  0.56243  1.0000
  C   C1258     1.0  0.99448  0.52033  0.60090  1.0000
  C   C1259     1.0  0.07145  0.54168  0.59420  1.0000
  H   H1010     1.0  0.22838  0.68628  0.59185  1.0000
  H   H1011     1.0  0.19794  0.62542  0.47506  1.0000
  H   H1012     1.0  0.15397  0.78292  0.61378  1.0000
  H   H1013     1.0  0.34922  0.59690  0.61195  1.0000
  H   H1014     1.0  0.97508  0.50197  0.53422  1.0000
  H   H1015     1.0  0.19901  0.95104  0.52669  1.0000
  H   H1016     1.0  0.25860  0.90368  0.57331  1.0000
  C   C1260     1.0  0.25663  0.77315  0.59756  1.0000
  H   H1017     1.0  0.28438  0.49181  0.59462  1.0000
  C   C1261     1.0  0.08467  0.59213  0.57997  1.0000
  H   H1018     1.0  0.22939  0.83208  0.56468  1.0000
  C   C1262     1.0  0.19891  0.79031  0.61968  1.0000
  C   C1263     1.0  0.11290  0.74700  0.46305  1.0000
  H   H1019     1.0  0.35580  0.56068  0.62584  1.0000
  H   H1020     1.0  0.02389  0.47961  0.49903  1.0000
  H   H1021     1.0  0.17096  0.79489  0.59090  1.0000
  H   H1022     1.0  0.11654  0.70437  0.58741  1.0000
  C   C1264     1.0  0.05925  0.56540  0.57738  1.0000
  H   H1023     1.0  0.43313  0.93705  0.47146  1.0000
  H   H1024     1.0  0.00548  0.66359  0.59481  1.0000
  C   C1265     1.0  0.17715  0.54912  0.47278  1.0000
  H   H1025     1.0  0.34910  0.83407  0.60304  1.0000
  C   C1266     1.0  0.33473  0.55443  0.62092  1.0000
  S   S189      1.0  0.97261  0.56075  0.48939  1.0000
  C   C1267     1.0  0.25526  0.93313  0.55981  1.0000
  C   C1268     1.0  0.30398  0.56657  0.60666  1.0000
  H   H1026     1.0  0.38081  0.89568  0.56708  1.0000
  H   H1027     1.0  0.29577  0.78270  0.55127  1.0000
  H   H1028     1.0  0.26495  0.85429  0.54864  1.0000
  C   C1269     1.0  0.25842  0.72496  0.60212  1.0000
  H   H1029     1.0  0.06049  0.69282  0.59383  1.0000
  H   H1030     1.0  0.12292  0.61443  0.59176  1.0000
  P   P38       1.0  0.02013  0.50481  0.58127  1.0000
  H   H1031     1.0  0.20780  0.71589  0.57985  1.0000
  H   H1032     1.0  0.22022  0.88637  0.60360  1.0000
  C   C1270     1.0  0.35620  0.84740  0.59516  1.0000
  H   H1033     1.0  0.01973  0.57053  0.47285  1.0000
  H   H1034     1.0  0.29813  0.82975  0.54187  1.0000
  H   H1035     1.0  0.41730  0.47469  0.57379  1.0000
  H   H1036     1.0  0.41696  0.83007  0.62022  1.0000
  C   C1271     1.0  0.42609  0.85382  0.62288  1.0000
  C   C1272     1.0  0.21527  0.50958  0.62144  1.0000
  H   H1037     1.0  0.31918  0.81685  0.58432  1.0000
  C   C1273     1.0  0.05925  0.73468  0.60013  1.0000
  C   C1274     1.0  0.38190  0.87471  0.59566  1.0000
  H   H1038     1.0  0.01632  0.53836  0.60291  1.0000
  H   H1039     1.0  0.26104  0.76057  0.56754  1.0000
  C   C1275     1.0  0.39148  0.89221  0.58554  1.0000
  C   C1276     1.0  0.28092  0.83575  0.46815  1.0000
  H   H1040     1.0  0.17192  0.84106  0.60077  1.0000
  C   C1277     1.0  0.10358  0.59355  0.58959  1.0000
  H   H1041     1.0  0.26757  0.88469  0.59671  1.0000
  H   H1042     1.0  0.28520  0.76733  0.61112  1.0000
  H   H1043     1.0  0.16885  0.73752  0.59308  1.0000
  H   H1044     1.0  0.16625  0.70268  0.62309  1.0000
  C   C1278     1.0  0.25716  0.81546  0.46108  1.0000
  C   C1279     1.0  0.23648  0.71059  0.59335  1.0000
  C   C1280     1.0  0.05251  0.53988  0.58445  1.0000
  C   C1281     1.0  0.21236  0.89391  0.56868  1.0000
  H   H1045     1.0  0.26722  0.71187  0.60748  1.0000
  C   C1282     1.0  0.98384  0.50252  0.54312  1.0000
  C   C1283     1.0  0.01513  0.68762  0.59712  1.0000
  H   H1046     1.0  0.33529  0.84808  0.56641  1.0000
  C   C1284     1.0  0.27025  0.96173  0.50798  1.0000
  C   C1285     1.0  0.24349  0.90954  0.56777  1.0000
  C   C1286     1.0  0.45878  0.89462  0.59166  1.0000
  C   C1287     1.0  0.45744  0.87073  0.62310  1.0000
  H   H1047     1.0  0.08941  0.61191  0.57463  1.0000
  H   H1048     1.0  0.27940  0.94498  0.55919  1.0000
  C   C1288     1.0  0.36241  0.93423  0.46532  1.0000
  H   H1049     1.0  0.20327  0.87573  0.57490  1.0000
  C   C1289     1.0  0.38946  0.96585  0.61146  1.0000
  H   H1050     1.0  0.18076  0.53099  0.47712  1.0000
  C   C1290     1.0  0.23415  0.85163  0.46087  1.0000
  C   C1291     1.0  0.14035  0.73662  0.56083  1.0000
  C   C1292     1.0  0.12101  0.71812  0.56924  1.0000
  C   C1293     1.0  0.13147  0.71851  0.58082  1.0000
  C   C1294     1.0  0.16123  0.73729  0.58401  1.0000
  C   C1295     1.0  0.18088  0.75580  0.57560  1.0000
  C   C1296     1.0  0.17019  0.75551  0.56400  1.0000
  P   P39       1.0  0.21900  0.78049  0.58004  1.0000
  C   C1297     1.0  0.24260  0.79468  0.56739  1.0000
  C   C1298     1.0  0.21918  0.81322  0.58813  1.0000
  C   C1299     1.0  0.19226  0.81428  0.59201  1.0000
  C   C1300     1.0  0.19262  0.84057  0.59756  1.0000
  C   C1301     1.0  0.21975  0.86603  0.59920  1.0000
  C   C1302     1.0  0.24653  0.86512  0.59534  1.0000
  C   C1303     1.0  0.24634  0.83891  0.58986  1.0000
  C   C1304     1.0  0.26134  0.78080  0.56344  1.0000
  C   C1305     1.0  0.28114  0.79332  0.55421  1.0000
  C   C1306     1.0  0.28244  0.81978  0.54889  1.0000
  C   C1307     1.0  0.26367  0.83356  0.55269  1.0000
  C   C1308     1.0  0.24362  0.82093  0.56182  1.0000
  C   C1309     1.0  0.23437  0.75888  0.58880  1.0000
  C   C1310     1.0  0.22466  0.72747  0.58665  1.0000
  H   H1051     1.0  0.39100  0.48399  0.59096  1.0000
  H   H1052     1.0  0.97448  0.53228  0.61588  1.0000
  H   H1053     1.0  0.38245  0.85382  0.62642  1.0000
  H   H1054     1.0  0.97006  0.53728  0.54939  1.0000
  C   C1311     1.0  0.44459  0.96224  0.60751  1.0000
  C   C1312     1.0  0.21794  0.77674  0.62346  1.0000
  H   H1055     1.0  0.99631  0.74337  0.60849  1.0000
  C   C1313     1.0  0.05112  0.52491  0.46101  1.0000
  C   C1314     1.0  0.16833  0.77226  0.61692  1.0000
  C   C1315     1.0  0.28397  0.51750  0.61608  1.0000
  C   C1316     1.0  0.11390  0.48905  0.48449  1.0000
  H   H1056     1.0  0.43942  0.50574  0.60788  1.0000
  Fe  Fe93      1.0  0.08809  0.67170  0.62007  1.0000
  C   C1317     1.0  0.40649  0.86716  0.62643  1.0000
  C   C1318     1.0  0.33015  0.95892  0.47112  1.0000
  C   C1319     1.0  0.00986  0.73235  0.60485  1.0000
  S   S190      1.0  0.96740  0.60930  0.54414  1.0000
  H   H1057     1.0  0.36814  0.96737  0.61291  1.0000
  C   C1320     1.0  0.99759  0.48308  0.54610  1.0000
  C   C1321     1.0  0.15628  0.74056  0.61814  1.0000
  P   P40       1.0  0.25385  0.48031  0.61769  1.0000
  C   C1322     1.0  0.33165  0.97229  0.57838  1.0000
  H   H1058     1.0  0.14892  0.47338  0.48129  1.0000
  H   H1059     1.0  0.23506  0.52928  0.62430  1.0000
  H   H1060     1.0  0.18532  0.53151  0.62517  1.0000
  C   C1323     1.0  0.17513  0.72706  0.62220  1.0000
  H   H1061     1.0  0.00216  0.47994  0.62558  1.0000
  H   H1062     1.0  0.32401  0.97246  0.47740  1.0000
  H   H1063     1.0  0.45766  0.97274  0.49361  1.0000
  C   C1324     1.0  0.26162  0.97206  0.51832  1.0000
  C   C1325     1.0  0.00764  0.47418  0.49178  1.0000
  H   H1064     1.0  0.16165  0.97188  0.52164  1.0000
  P   P41       1.0  0.25195  0.97253  0.54262  1.0000
  H   H1065     1.0  0.27024  0.97257  0.49968  1.0000
  Fe  Fe94      1.0  0.00707  0.73754  0.73641  1.0000
  S   S191      1.0  0.03649  0.71240  0.73817  1.0000
  S   S192      1.0  0.02488  0.78680  0.73155  1.0000
  Fe  Fe95      1.0  0.00326  0.67779  0.72565  1.0000
  S   S193      1.0  0.02411  0.65812  0.71137  1.0000
  Fe  Fe96      1.0  0.00662  0.68815  0.75314  1.0000
  S   S194      1.0  0.03311  0.68508  0.76978  1.0000
  C   C1326     1.0  0.06758  0.78171  0.70258  1.0000
  C   C1327     1.0  0.17779  0.89289  0.78040  1.0000
  Fe  Fe97      1.0  0.20953  0.94139  0.74137  1.0000
  S   S195      1.0  0.23658  0.91345  0.73953  1.0000
  S   S196      1.0  0.15919  0.92575  0.73938  1.0000
  Fe  Fe98      1.0  0.26600  0.95037  0.72770  1.0000
  S   S197      1.0  0.28921  0.93898  0.71194  1.0000
  Fe  Fe99      1.0  0.26436  0.94226  0.75488  1.0000
  S   S198      1.0  0.28317  0.91860  0.76819  1.0000
  H   H1066     1.0  0.37900  0.86768  0.65836  1.0000
  H   H1067     1.0  0.31499  0.51054  0.62848  1.0000
  H   H1068     1.0  0.11105  0.65489  0.66357  1.0000
  H   H1069     1.0  0.25481  0.94483  0.78520  1.0000
  S   S199      1.0  0.01954  0.65593  0.65460  1.0000
  Fe  Fe100     1.0  0.28848  0.90490  0.64188  1.0000
  S   S200      1.0  0.30656  0.86917  0.64405  1.0000
  S   S201      1.0  0.26270  0.91842  0.65613  1.0000
  C   C1328     1.0  0.37873  0.91736  0.78792  1.0000
  C   C1329     1.0  0.11441  0.70026  0.66703  1.0000
  H   H1070     1.0  0.13106  0.73641  0.69401  1.0000
  C   C1330     1.0  0.18594  0.83885  0.66339  1.0000
  H   H1071     1.0  0.23011  0.93099  0.67503  1.0000
  H   H1072     1.0  0.13222  0.68755  0.69952  1.0000
  H   H1073     1.0  0.16612  0.93793  0.70578  1.0000
  S   S202      1.0  0.97512  0.70453  0.72305  1.0000
  H   H1074     1.0  0.45839  0.77647  0.63141  1.0000
  C   C1331     1.0  0.21140  0.83242  0.66447  1.0000
  C   C1332     1.0  0.28089  0.93283  0.69649  1.0000
  C   C1333     1.0  0.30092  0.92637  0.68921  1.0000
  C   C1334     1.0  0.29559  0.92163  0.67690  1.0000
  C   C1335     1.0  0.27010  0.92336  0.67167  1.0000
  C   C1336     1.0  0.24991  0.92960  0.67896  1.0000
  C   C1337     1.0  0.25526  0.93435  0.69128  1.0000
  H   H1075     1.0  0.32079  0.92510  0.69314  1.0000
  H   H1076     1.0  0.31131  0.91684  0.67144  1.0000
  C   C1338     1.0  0.27983  0.91700  0.78381  1.0000
  C   C1339     1.0  0.04679  0.73095  0.64763  1.0000
  H   H1077     1.0  0.39374  0.51179  0.62932  1.0000
  H   H1078     1.0  0.43851  0.82128  0.66083  1.0000
  C   C1340     1.0  0.06118  0.81464  0.73485  1.0000
  C   C1341     1.0  0.08332  0.81135  0.74620  1.0000
  C   C1342     1.0  0.13218  0.86204  0.74901  1.0000
  C   C1343     1.0  0.13212  0.88804  0.73889  1.0000
  C   C1344     1.0  0.10340  0.87986  0.72887  1.0000
  C   C1345     1.0  0.07169  0.84701  0.72705  1.0000
  H   H1079     1.0  0.07487  0.79006  0.75096  1.0000
  H   H1080     1.0  0.15099  0.86915  0.75538  1.0000
  H   H1081     1.0  0.10514  0.89807  0.72308  1.0000
  H   H1082     1.0  0.05582  0.84699  0.72026  1.0000
  C   C1346     1.0  0.02311  0.65862  0.69559  1.0000
  C   C1347     1.0  0.00593  0.67094  0.68928  1.0000
  C   C1348     1.0  0.42576  0.85015  0.70945  1.0000
  C   C1349     1.0  0.02202  0.65706  0.67039  1.0000
  C   C1350     1.0  0.03947  0.64507  0.67669  1.0000
  C   C1351     1.0  0.04006  0.64594  0.68919  1.0000
  C   C1352     1.0  0.04313  0.52081  0.62666  1.0000
  H   H1083     1.0  0.05205  0.63460  0.67195  1.0000
  H   H1084     1.0  0.05338  0.63626  0.69393  1.0000
  C   C1353     1.0  0.02298  0.66858  0.78393  1.0000
  C   C1354     1.0  0.99355  0.64869  0.78648  1.0000
  H   H1085     1.0  0.37933  0.94013  0.67743  1.0000
  C   C1355     1.0  0.41816  0.89737  0.63049  1.0000
  C   C1356     1.0  0.45966  0.50818  0.63802  1.0000
  C   C1357     1.0  0.12680  0.71885  0.68728  1.0000
  C   C1358     1.0  0.12769  0.69129  0.69042  1.0000
  H   H1086     1.0  0.12232  0.64673  0.68431  1.0000
  H   H1087     1.0  0.05154  0.73022  0.66637  1.0000
  C   C1359     1.0  0.41794  0.82254  0.65763  1.0000
  C   C1360     1.0  0.11975  0.72338  0.67559  1.0000
  C   C1361     1.0  0.09275  0.75348  0.63676  1.0000
  H   H1088     1.0  0.13390  0.77016  0.64693  1.0000
  H   H1089     1.0  0.35684  0.78297  0.63988  1.0000
  H   H1090     1.0  0.30399  0.88830  0.78549  1.0000
  H   H1091     1.0  0.99267  0.68067  0.69402  1.0000
  H   H1092     1.0  0.05568  0.78692  0.70973  1.0000
  H   H1093     1.0  0.03820  0.73411  0.70192  1.0000
  C   C1362     1.0  0.43977  0.95940  0.65962  1.0000
  H   H1094     1.0  0.96650  0.66500  0.64528  1.0000
  H   H1095     1.0  0.02256  0.71842  0.64774  1.0000
  H   H1096     1.0  0.44794  0.54495  0.63311  1.0000
  Fe  Fe101     1.0  0.07466  0.60669  0.62724  1.0000
  H   H1097     1.0  0.10871  0.70299  0.65796  1.0000
  C   C1363     1.0  0.12212  0.66829  0.68186  1.0000
  C   C1364     1.0  0.20835  0.80358  0.66785  1.0000
  C   C1365     1.0  0.05764  0.75197  0.69813  1.0000
  C   C1366     1.0  0.29234  0.89990  0.79018  1.0000
  Fe  Fe102     1.0  0.34480  0.89782  0.63263  1.0000
  H   H1098     1.0  0.06488  0.72178  0.68569  1.0000
  C   C1367     1.0  0.36489  0.82518  0.64899  1.0000
  H   H1099     1.0  0.42304  0.84381  0.71864  1.0000
  C   C1368     1.0  0.41723  0.90021  0.78223  1.0000
  C   C1369     1.0  0.09505  0.75236  0.65823  1.0000
  C   C1370     1.0  0.10888  0.77120  0.78846  1.0000
  C   C1371     1.0  0.41675  0.82770  0.70050  1.0000
  C   C1372     1.0  0.43251  0.86660  0.68564  1.0000
  C   C1373     1.0  0.39847  0.93871  0.67308  1.0000
  C   C1374     1.0  0.07283  0.74512  0.68890  1.0000
  C   C1375     1.0  0.41119  0.84735  0.66084  1.0000
  H   H1100     1.0  0.45130  0.91289  0.69258  1.0000
  C   C1376     1.0  0.15741  0.81648  0.66571  1.0000
  H   H1101     1.0  0.22808  0.79845  0.66838  1.0000
  H   H1102     1.0  0.09941  0.72249  0.76517  1.0000
  C   C1377     1.0  0.17990  0.78125  0.67033  1.0000
  P   P42       1.0  0.43699  0.87753  0.67036  1.0000
  P   P43       1.0  0.11696  0.75842  0.67183  1.0000
  C   C1378     1.0  0.14126  0.74608  0.77500  1.0000
  H   H1103     1.0  0.07129  0.74557  0.77681  1.0000
  H   H1104     1.0  0.38443  0.91642  0.75802  1.0000
  C   C1379     1.0  0.26458  0.93164  0.78996  1.0000
  C   C1380     1.0  0.44157  0.88901  0.69469  1.0000
  S   S203      1.0  0.97533  0.65131  0.74078  1.0000
  C   C1381     1.0  0.10957  0.76001  0.64735  1.0000
  H   H1105     1.0  0.44516  0.89822  0.71346  1.0000
  H   H1106     1.0  0.23966  0.93917  0.69676  1.0000
  H   H1107     1.0  0.06822  0.69124  0.79107  1.0000
  H   H1108     1.0  0.34459  0.82652  0.64549  1.0000
  C   C1382     1.0  0.15418  0.78765  0.66944  1.0000
  C   C1383     1.0  0.06140  0.73872  0.63689  1.0000
  H   H1109     1.0  0.23344  0.84971  0.66248  1.0000
  C   C1384     1.0  0.10825  0.79781  0.68864  1.0000
  C   C1385     1.0  0.09810  0.76802  0.68395  1.0000
  Fe  Fe103     1.0  0.04153  0.64138  0.63915  1.0000
  H   H1110     1.0  0.13779  0.82151  0.66445  1.0000
  S   S204      1.0  0.09086  0.65146  0.63756  1.0000
  S   S205      1.0  0.09624  0.57286  0.62899  1.0000
  C   C1386     1.0  0.09295  0.80458  0.69788  1.0000
  C   C1387     1.0  0.41134  0.90365  0.77033  1.0000
  C   C1388     1.0  0.38454  0.84854  0.65640  1.0000
  C   C1389     1.0  0.43820  0.88079  0.70654  1.0000
  H   H1111     1.0  0.17813  0.75897  0.67274  1.0000
  C   C1390     1.0  0.19774  0.87867  0.78039  1.0000
  H   H1112     1.0  0.41286  0.81811  0.68187  1.0000
  S   S206      1.0  0.97932  0.71642  0.75221  1.0000
  H   H1113     1.0  0.18847  0.86112  0.66055  1.0000
  H   H1114     1.0  0.37546  0.84542  0.79184  1.0000
  C   C1391     1.0  0.39842  0.79942  0.65010  1.0000
  H   H1115     1.0  0.21072  0.96945  0.69454  1.0000
  H   H1116     1.0  0.07783  0.51262  0.78929  1.0000
  C   C1392     1.0  0.37186  0.80070  0.64581  1.0000
  C   C1393     1.0  0.11575  0.67289  0.67017  1.0000
  C   C1394     1.0  0.11096  0.82697  0.76469  1.0000
  C   C1395     1.0  0.09054  0.84746  0.76168  1.0000
  C   C1396     1.0  0.08601  0.85721  0.74761  1.0000
  C   C1397     1.0  0.11419  0.83633  0.73277  1.0000
  C   C1398     1.0  0.13184  0.81722  0.74015  1.0000
  C   C1399     1.0  0.12940  0.81334  0.75505  1.0000
  P   P44       1.0  0.15480  0.80229  0.73227  1.0000
  C   C1400     1.0  0.13208  0.76235  0.72969  1.0000
  C   C1401     1.0  0.16963  0.82355  0.71913  1.0000
  C   C1402     1.0  0.17567  0.80944  0.70915  1.0000
  C   C1403     1.0  0.18961  0.82662  0.69940  1.0000
  C   C1404     1.0  0.19811  0.85802  0.69962  1.0000
  C   C1405     1.0  0.19278  0.87232  0.70962  1.0000
  C   C1406     1.0  0.17877  0.85522  0.71936  1.0000
  C   C1407     1.0  0.12956  0.74167  0.73863  1.0000
  C   C1408     1.0  0.11155  0.71073  0.73683  1.0000
  C   C1409     1.0  0.09564  0.70031  0.72615  1.0000
  C   C1410     1.0  0.09728  0.72086  0.71735  1.0000
  C   C1411     1.0  0.11519  0.75184  0.71915  1.0000
  C   C1412     1.0  0.18792  0.80834  0.74118  1.0000
  C   C1413     1.0  0.20103  0.83451  0.74845  1.0000
  C   C1414     1.0  0.22743  0.83996  0.75497  1.0000
  C   C1415     1.0  0.24112  0.81954  0.75421  1.0000
  C   C1416     1.0  0.22848  0.79367  0.74685  1.0000
  C   C1417     1.0  0.20211  0.78820  0.74027  1.0000
  H   H1117     1.0  0.11240  0.82184  0.77386  1.0000
  H   H1118     1.0  0.07998  0.85441  0.76880  1.0000
  H   H1119     1.0  0.07239  0.87030  0.74631  1.0000
  H   H1120     1.0  0.11628  0.83775  0.72319  1.0000
  H   H1121     1.0  0.14108  0.80077  0.75897  1.0000
  H   H1122     1.0  0.17048  0.78539  0.70899  1.0000
  H   H1123     1.0  0.19465  0.81579  0.69180  1.0000
  H   H1124     1.0  0.20957  0.87136  0.69217  1.0000
  H   H1125     1.0  0.20030  0.89681  0.70998  1.0000
  H   H1126     1.0  0.17582  0.86692  0.72717  1.0000
  H   H1127     1.0  0.14112  0.74949  0.74707  1.0000
  H   H1128     1.0  0.10918  0.69484  0.74380  1.0000
  H   H1129     1.0  0.08102  0.67644  0.72484  1.0000
  H   H1130     1.0  0.08378  0.71266  0.70931  1.0000
  H   H1131     1.0  0.11538  0.76755  0.71242  1.0000
  H   H1132     1.0  0.19127  0.85108  0.74892  1.0000
  H   H1133     1.0  0.23775  0.86046  0.76040  1.0000
  H   H1134     1.0  0.26187  0.82421  0.75915  1.0000
  H   H1135     1.0  0.23947  0.77818  0.74607  1.0000
  H   H1136     1.0  0.19311  0.76856  0.73434  1.0000
  H   H1137     1.0  0.14593  0.96153  0.72102  1.0000
  H   H1138     1.0  0.07546  0.51199  0.76747  1.0000
  C   C1418     1.0  0.02643  0.48911  0.62653  1.0000
  S   S207      1.0  0.02559  0.59531  0.62996  1.0000
  C   C1419     1.0  0.19256  0.85368  0.78751  1.0000
  H   H1139     1.0  0.40698  0.80394  0.70276  1.0000
  S   S208      1.0  0.39486  0.91377  0.63668  1.0000
  C   C1420     1.0  0.40546  0.91361  0.67477  1.0000
  H   H1140     1.0  0.39145  0.89570  0.68043  1.0000
  H   H1141     1.0  0.99175  0.67943  0.67204  1.0000
  H   H1142     1.0  0.04850  0.73244  0.62867  1.0000
  H   H1143     1.0  0.21727  0.88710  0.77483  1.0000
  H   H1144     1.0  0.15375  0.73640  0.76973  1.0000
  C   C1421     1.0  0.09476  0.75119  0.77902  1.0000
  H   H1145     1.0  0.22639  0.47707  0.64096  1.0000
  H   H1146     1.0  0.18188  0.91220  0.77481  1.0000
  C   C1422     1.0  0.06347  0.73767  0.65826  1.0000
  C   C1423     1.0  0.06252  0.49157  0.77219  1.0000
  C   C1424     1.0  0.00544  0.67016  0.67678  1.0000
  C   C1425     1.0  0.97837  0.71166  0.79047  1.0000
  C   C1426     1.0  0.43979  0.52066  0.63413  1.0000
  H   H1147     1.0  0.40405  0.78068  0.64748  1.0000
  C   C1427     1.0  0.40908  0.50178  0.63199  1.0000
  C   C1428     1.0  0.07229  0.48142  0.62908  1.0000
  S   S209      1.0  0.32867  0.93542  0.63182  1.0000
  H   H1148     1.0  0.17948  0.77310  0.78600  1.0000
  S   S210      1.0  0.23473  0.96760  0.75758  1.0000
  H   H1149     1.0  0.10413  0.75895  0.62842  1.0000
  C   C1429     1.0  0.38912  0.91382  0.76723  1.0000
  C   C1430     1.0  0.44944  0.91451  0.63038  1.0000
  C   C1431     1.0  0.15245  0.88199  0.78748  1.0000
  H   H1150     1.0  0.97618  0.64272  0.77967  1.0000
  C   C1432     1.0  0.42010  0.83585  0.68864  1.0000
  C   C1433     1.0  0.17640  0.96231  0.70726  1.0000
  C   C1434     1.0  0.11079  0.73835  0.77237  1.0000
  C   C1435     1.0  0.42972  0.91123  0.66888  1.0000
  C   C1436     1.0  0.37275  0.92054  0.77602  1.0000
  H   H1151     1.0  0.12800  0.81591  0.68534  1.0000
  C   C1437     1.0  0.15564  0.76655  0.78432  1.0000
  H   H1152     1.0  0.97671  0.71479  0.78107  1.0000
  H   H1153     1.0  0.10071  0.82759  0.70142  1.0000
  H   H1154     1.0  0.22038  0.73431  0.62762  1.0000
  H   H1155     1.0  0.42394  0.89831  0.76350  1.0000
  H   H1156     1.0  0.13678  0.89280  0.78732  1.0000
  C   C1438     1.0  0.40127  0.90746  0.79116  1.0000
  H   H1157     1.0  0.11320  0.52239  0.63043  1.0000
  H   H1158     1.0  0.45865  0.93791  0.63348  1.0000
  H   H1159     1.0  0.20809  0.84273  0.78722  1.0000
  C   C1439     1.0  0.06370  0.49186  0.78455  1.0000
  C   C1440     1.0  0.44676  0.93427  0.66126  1.0000
  C   C1441     1.0  0.13931  0.77870  0.79128  1.0000
  H   H1160     1.0  0.43411  0.89172  0.78445  1.0000
  H   H1161     1.0  0.35523  0.92813  0.77361  1.0000
  C   C1442     1.0  0.08899  0.51316  0.62924  1.0000
  C   C1443     1.0  0.41558  0.96156  0.66548  1.0000
  C   C1444     1.0  0.44859  0.47653  0.63939  1.0000
  C   C1445     1.0  0.07447  0.53303  0.62820  1.0000
  C   C1446     1.0  0.04538  0.67592  0.79292  1.0000
  H   H1162     1.0  0.02670  0.73449  0.79088  1.0000
  Fe  Fe104     1.0  0.28201  0.84965  0.62681  1.0000
  C   C1447     1.0  0.96153  0.65416  0.63658  1.0000
  H   H1163     1.0  0.96538  0.69459  0.62780  1.0000
  Fe  Fe105     1.0  0.06088  0.60799  0.85396  1.0000
  S   S211      1.0  0.01272  0.60314  0.85317  1.0000
  S   S212      1.0  0.07864  0.57058  0.85591  1.0000
  Fe  Fe106     1.0  0.08605  0.67720  0.85121  1.0000
  S   S213      1.0  0.03951  0.67628  0.85010  1.0000
  S   S214      1.0  0.12108  0.72548  0.84899  1.0000
  Fe  Fe107     1.0  0.02861  0.64464  0.86545  1.0000
  S   S215      1.0  0.00298  0.65698  0.88019  1.0000
  Fe  Fe108     1.0  0.02786  0.63569  0.83798  1.0000
  S   S216      1.0  0.99852  0.62859  0.82117  1.0000
  S   S217      1.0  0.07594  0.64786  0.86716  1.0000
  S   S218      1.0  0.07500  0.63824  0.83812  1.0000
  Fe  Fe109     1.0  0.28773  0.83645  0.85265  1.0000
  S   S219      1.0  0.26213  0.86582  0.85294  1.0000
  S   S220      1.0  0.26399  0.78524  0.85443  1.0000
  Fe  Fe110     1.0  0.34834  0.88986  0.85068  1.0000
  S   S221      1.0  0.32645  0.92326  0.85108  1.0000
  S   S222      1.0  0.39968  0.91112  0.84857  1.0000
  Fe  Fe111     1.0  0.29800  0.89583  0.86570  1.0000
  S   S223      1.0  0.28340  0.92039  0.88014  1.0000
  Fe  Fe112     1.0  0.29198  0.89119  0.83829  1.0000
  S   S224      1.0  0.26961  0.90927  0.82424  1.0000
  S   S225      1.0  0.32237  0.86495  0.86638  1.0000
  S   S226      1.0  0.31522  0.85928  0.83694  1.0000
  Fe  Fe113     1.0  0.98523  0.66415  0.95182  1.0000
  C   C1448     1.0  0.40805  0.88860  0.91043  1.0000
  S   S227      1.0  0.99920  0.64120  0.93645  1.0000
  Fe  Fe114     1.0  0.25345  0.92445  0.95111  1.0000
  C   C1449     1.0  0.21641  0.82944  0.81212  1.0000
  S   S228      1.0  0.27630  0.90887  0.93631  1.0000
  H   H1164     1.0  0.16838  0.75469  0.80960  1.0000
  P   P45       1.0  0.17991  0.64215  0.83387  1.0000
  H   H1165     1.0  0.22334  0.66585  0.85400  1.0000
  C   C1450     1.0  0.10148  0.79499  0.83575  1.0000
  C   C1451     1.0  0.27998  0.91538  0.89566  1.0000
  C   C1452     1.0  0.28768  0.89405  0.90147  1.0000
  C   C1453     1.0  0.28623  0.89230  0.91390  1.0000
  C   C1454     1.0  0.27672  0.91150  0.92064  1.0000
  C   C1455     1.0  0.26864  0.93250  0.91479  1.0000
  C   C1456     1.0  0.27025  0.93436  0.90238  1.0000
  H   H1166     1.0  0.29531  0.87938  0.89642  1.0000
  H   H1167     1.0  0.29265  0.87606  0.91834  1.0000
  C   C1457     1.0  0.05023  0.55875  0.81903  1.0000
  C   C1458     1.0  0.36794  0.92073  0.81763  1.0000
  H   H1168     1.0  0.33674  0.93704  0.82521  1.0000
  C   C1459     1.0  0.27450  0.91218  0.80870  1.0000
  C   C1460     1.0  0.39828  0.92648  0.81584  1.0000
  H   H1169     1.0  0.29911  0.88399  0.80729  1.0000
  C   C1461     1.0  0.16058  0.74166  0.85134  1.0000
  C   C1462     1.0  0.17693  0.77106  0.84730  1.0000
  C   C1463     1.0  0.20844  0.78481  0.84851  1.0000
  C   C1464     1.0  0.22409  0.76915  0.85365  1.0000
  C   C1465     1.0  0.20775  0.73976  0.85780  1.0000
  C   C1466     1.0  0.17603  0.72619  0.85680  1.0000
  H   H1170     1.0  0.16519  0.78314  0.84300  1.0000
  H   H1171     1.0  0.22061  0.80719  0.84512  1.0000
  H   H1172     1.0  0.21965  0.72749  0.86180  1.0000
  H   H1173     1.0  0.16360  0.70361  0.86004  1.0000
  C   C1467     1.0  0.00356  0.65354  0.89589  1.0000
  C   C1468     1.0  0.98689  0.66551  0.90282  1.0000
  C   C1469     1.0  0.98620  0.66299  0.91525  1.0000
  C   C1470     1.0  0.00152  0.64768  0.92092  1.0000
  C   C1471     1.0  0.01831  0.63585  0.91399  1.0000
  C   C1472     1.0  0.01961  0.63901  0.90159  1.0000
  H   H1174     1.0  0.12162  0.75383  0.90287  1.0000
  H   H1175     1.0  0.10695  0.68511  0.80614  1.0000
  H   H1176     1.0  0.03019  0.62388  0.91824  1.0000
  H   H1177     1.0  0.03248  0.62961  0.89643  1.0000
  C   C1473     1.0  0.37705  0.85442  0.82181  1.0000
  C   C1474     1.0  0.00889  0.64410  0.80689  1.0000
  H   H1178     1.0  0.24978  0.94032  0.80698  1.0000
  H   H1179     1.0  0.38577  0.95633  0.86636  1.0000
  H   H1180     1.0  0.21802  0.85213  0.81046  1.0000
  C   C1475     1.0  0.06151  0.53043  0.85312  1.0000
  C   C1476     1.0  0.03169  0.51529  0.84901  1.0000
  C   C1477     1.0  0.07872  0.51330  0.85497  1.0000
  H   H1181     1.0  0.01814  0.52804  0.84747  1.0000
  H   H1182     1.0  0.10171  0.52465  0.85823  1.0000
  C   C1478     1.0  0.42162  0.86607  0.85089  1.0000
  C   C1479     1.0  0.42820  0.89677  0.84918  1.0000
  H   H1183     1.0  0.21141  0.70861  0.83411  1.0000
  H   H1184     1.0  0.39849  0.85017  0.85178  1.0000
  C   C1480     1.0  0.12022  0.67651  0.81151  1.0000
  C   C1481     1.0  0.35851  0.82462  0.82467  1.0000
  C   C1482     1.0  0.34593  0.80253  0.81572  1.0000
  C   C1483     1.0  0.38347  0.86236  0.80999  1.0000
  H   H1185     1.0  0.40695  0.92056  0.87294  1.0000
  C   C1484     1.0  0.35215  0.81022  0.80391  1.0000
  H   H1186     1.0  0.35376  0.81884  0.83385  1.0000
  C   C1485     1.0  0.45845  0.91698  0.84781  1.0000
  H   H1187     1.0  0.11168  0.63770  0.80008  1.0000
  H   H1188     1.0  0.10112  0.67444  0.92397  1.0000
  P   P46       1.0  0.40766  0.90098  0.80648  1.0000
  C   C1486     1.0  0.14301  0.63567  0.86650  1.0000
  C   C1487     1.0  0.16815  0.64749  0.87411  1.0000
  C   C1488     1.0  0.14657  0.63579  0.85426  1.0000
  C   C1489     1.0  0.21836  0.66747  0.83076  1.0000
  C   C1490     1.0  0.22733  0.69908  0.83183  1.0000
  C   C1491     1.0  0.25751  0.71890  0.83067  1.0000
  C   C1492     1.0  0.27910  0.70741  0.82840  1.0000
  C   C1493     1.0  0.27057  0.67604  0.82747  1.0000
  C   C1494     1.0  0.24043  0.65612  0.82881  1.0000
  H   H1189     1.0  0.12068  0.62549  0.87011  1.0000
  H   H1190     1.0  0.16522  0.64731  0.88358  1.0000
  H   H1191     1.0  0.12681  0.62626  0.84851  1.0000
  H   H1192     1.0  0.26422  0.74318  0.83190  1.0000
  H   H1193     1.0  0.30255  0.72278  0.82765  1.0000
  H   H1194     1.0  0.40315  0.48795  0.86760  1.0000
  H   H1195     1.0  0.23476  0.63199  0.82870  1.0000
  H   H1196     1.0  0.14214  0.61822  0.81204  1.0000
  H   H1197     1.0  0.15324  0.84327  0.94213  1.0000
  C   C1495     1.0  0.12308  0.64988  0.80807  1.0000
  H   H1198     1.0  0.36551  0.92263  0.79445  1.0000
  C   C1496     1.0  0.41883  0.89085  0.93492  1.0000
  C   C1497     1.0  0.11505  0.77377  0.81838  1.0000
  C   C1498     1.0  0.34534  0.83945  0.89668  1.0000
  C   C1499     1.0  0.16428  0.77684  0.92616  1.0000
  C   C1500     1.0  0.06873  0.74111  0.92449  1.0000
  H   H1199     1.0  0.03184  0.72478  0.81210  1.0000
  H   H1200     1.0  0.16067  0.69199  0.83723  1.0000
  H   H1201     1.0  0.21053  0.74937  0.82025  1.0000
  C   C1501     1.0  0.38275  0.96705  0.82941  1.0000
  C   C1502     1.0  0.12050  0.82419  0.83235  1.0000
  H   H1202     1.0  0.44823  0.53336  0.86293  1.0000
  H   H1203     1.0  0.42307  0.62349  0.87859  1.0000
  H   H1204     1.0  0.36433  0.91431  0.90653  1.0000
  P   P47       1.0  0.10377  0.73706  0.92705  1.0000
  C   C1503     1.0  0.09999  0.71728  0.94076  1.0000
  C   C1504     1.0  0.36023  0.94126  0.82415  1.0000
  C   C1505     1.0  0.98665  0.63646  0.79786  1.0000
  C   C1506     1.0  0.32100  0.81321  0.89268  1.0000
  H   H1205     1.0  0.16801  0.75808  0.92223  1.0000
  H   H1206     1.0  0.42724  0.50277  0.90453  1.0000
  C   C1507     1.0  0.05456  0.74881  0.93396  1.0000
  C   C1508     1.0  0.37135  0.85199  0.88992  1.0000
  C   C1509     1.0  0.07070  0.54844  0.82402  1.0000
  C   C1510     1.0  0.15504  0.65441  0.82541  1.0000
  C   C1511     1.0  0.15621  0.82493  0.93742  1.0000
  C   C1512     1.0  0.44221  0.62280  0.87401  1.0000
  C   C1513     1.0  0.43709  0.89291  0.88821  1.0000
  H   H1207     1.0  0.43976  0.83219  0.85289  1.0000
  C   C1514     1.0  0.05452  0.73523  0.91326  1.0000
  C   C1515     1.0  0.14757  0.54897  0.83439  1.0000
  H   H1208     1.0  0.08469  0.74711  0.83160  1.0000
  C   C1516     1.0  0.42005  0.91661  0.91661  1.0000
  C   C1517     1.0  0.13711  0.82823  0.82204  1.0000
  C   C1518     1.0  0.34792  0.81215  0.87497  1.0000
  H   H1209     1.0  0.05015  0.58024  0.82198  1.0000
  C   C1519     1.0  0.23827  0.79735  0.82096  1.0000
  H   H1210     1.0  0.96390  0.62104  0.79975  1.0000
  H   H1211     1.0  0.12664  0.84799  0.79960  1.0000
  H   H1212     1.0  0.35020  0.90056  0.81382  1.0000
  H   H1213     1.0  0.15281  0.85087  0.81983  1.0000
  C   C1520     1.0  0.11105  0.71652  0.91477  1.0000
  H   H1214     1.0  0.14691  0.58399  0.84598  1.0000
  H   H1215     1.0  0.21656  0.66782  0.87538  1.0000
  H   H1216     1.0  0.11330  0.75387  0.81330  1.0000
  H   H1217     1.0  0.08928  0.79174  0.84391  1.0000
  C   C1521     1.0  0.24595  0.81226  0.88253  1.0000
  H   H1218     1.0  0.13450  0.53102  0.84025  1.0000
  C   C1522     1.0  0.20893  0.77713  0.89524  1.0000
  C   C1523     1.0  0.19145  0.79397  0.89425  1.0000
  C   C1524     1.0  0.20053  0.81937  0.88702  1.0000
  C   C1525     1.0  0.22848  0.82911  0.88154  1.0000
  P   P48       1.0  0.17597  0.83864  0.88470  1.0000
  C   C1526     1.0  0.18658  0.85948  0.87113  1.0000
  C   C1527     1.0  0.13780  0.80960  0.88356  1.0000
  C   C1528     1.0  0.13131  0.78345  0.87641  1.0000
  C   C1529     1.0  0.10212  0.76056  0.87575  1.0000
  C   C1530     1.0  0.07932  0.76306  0.88245  1.0000
  C   C1531     1.0  0.08566  0.78859  0.88980  1.0000
  C   C1532     1.0  0.11471  0.81176  0.89036  1.0000
  C   C1533     1.0  0.20682  0.89021  0.87158  1.0000
  C   C1534     1.0  0.21708  0.90602  0.86118  1.0000
  C   C1535     1.0  0.20765  0.89125  0.85020  1.0000
  C   C1536     1.0  0.18794  0.86059  0.84965  1.0000
  C   C1537     1.0  0.17725  0.84479  0.86004  1.0000
  C   C1538     1.0  0.17963  0.86512  0.89674  1.0000
  C   C1539     1.0  0.16616  0.88586  0.89567  1.0000
  C   C1540     1.0  0.16887  0.90660  0.90487  1.0000
  C   C1541     1.0  0.18511  0.90688  0.91518  1.0000
  C   C1542     1.0  0.19868  0.88646  0.91627  1.0000
  C   C1543     1.0  0.19612  0.86569  0.90709  1.0000
  H   H1219     1.0  0.26701  0.81932  0.87793  1.0000
  H   H1220     1.0  0.01639  0.75725  0.93949  1.0000
  C   C1544     1.0  0.13417  0.80306  0.81489  1.0000
  H   H1221     1.0  0.17067  0.78705  0.89897  1.0000
  H   H1222     1.0  0.23669  0.84946  0.87638  1.0000
  H   H1223     1.0  0.14884  0.78038  0.87146  1.0000
  H   H1224     1.0  0.09722  0.74055  0.87016  1.0000
  H   H1225     1.0  0.05684  0.74498  0.88203  1.0000
  H   H1226     1.0  0.06805  0.79035  0.89513  1.0000
  H   H1227     1.0  0.11897  0.83097  0.89627  1.0000
  H   H1228     1.0  0.21584  0.90182  0.87995  1.0000
  H   H1229     1.0  0.23355  0.92937  0.86167  1.0000
  H   H1230     1.0  0.21677  0.90321  0.84217  1.0000
  H   H1231     1.0  0.18198  0.84877  0.84117  1.0000
  H   H1232     1.0  0.16261  0.82100  0.85930  1.0000
  H   H1233     1.0  0.15371  0.88606  0.88769  1.0000
  H   H1234     1.0  0.15864  0.92271  0.90398  1.0000
  H   H1235     1.0  0.18762  0.92319  0.92227  1.0000
  H   H1236     1.0  0.21197  0.88739  0.92416  1.0000
  H   H1237     1.0  0.20749  0.85064  0.90808  1.0000
  C   C1545     1.0  0.00682  0.72285  0.79601  1.0000
  C   C1546     1.0  0.04942  0.50235  0.81179  1.0000
  H   H1238     1.0  0.10940  0.64720  0.90687  1.0000
  H   H1239     1.0  0.99192  0.74725  0.91963  1.0000
  C   C1547     1.0  0.14044  0.63887  0.81496  1.0000
  C   C1548     1.0  0.12148  0.68524  0.89535  1.0000
  H   H1240     1.0  0.28747  0.66712  0.82601  1.0000
  C   C1549     1.0  0.18921  0.80371  0.92912  1.0000
  H   H1241     1.0  0.15101  0.51814  0.82112  1.0000
  C   C1550     1.0  0.20071  0.65789  0.85728  1.0000
  C   C1551     1.0  0.17544  0.64643  0.84955  1.0000
  C   C1552     1.0  0.19702  0.65885  0.86949  1.0000
  H   H1242     1.0  0.13095  0.71176  0.82493  1.0000
  H   H1243     1.0  0.97355  0.67255  0.92042  1.0000
  C   C1553     1.0  0.45779  0.53525  0.89282  1.0000
  C   C1554     1.0  0.10778  0.68632  0.91580  1.0000
  C   C1555     1.0  0.41826  0.50125  0.87468  1.0000
  H   H1244     1.0  0.01614  0.73277  0.90285  1.0000
  H   H1245     1.0  0.18038  0.55909  0.80758  1.0000
  C   C1556     1.0  0.44478  0.86812  0.88624  1.0000
  H   H1246     1.0  0.20462  0.84775  0.93779  1.0000
  C   C1557     1.0  0.26177  0.92904  0.80232  1.0000
  C   C1558     1.0  0.28975  0.89751  0.80255  1.0000
  H   H1247     1.0  0.42270  0.89171  0.94440  1.0000
  H   H1248     1.0  0.01348  0.54910  0.80658  1.0000
  C   C1559     1.0  0.15484  0.57930  0.83762  1.0000
  C   C1560     1.0  0.13394  0.69165  0.82203  1.0000
  H   H1249     1.0  0.42949  0.84541  0.88851  1.0000
  H   H1250     1.0  0.25638  0.79508  0.82598  1.0000
  H   H1251     1.0  0.44441  0.95712  0.82029  1.0000
  C   C1561     1.0  0.15092  0.68042  0.82900  1.0000
  H   H1252     1.0  0.20135  0.75704  0.90056  1.0000
  H   H1253     1.0  0.05552  0.67015  0.81124  1.0000
  C   C1562     1.0  0.17163  0.60278  0.83007  1.0000
  C   C1563     1.0  0.44407  0.52688  0.87204  1.0000
  H   H1254     1.0  0.30303  0.77977  0.87852  1.0000
  H   H1255     1.0  0.12298  0.84366  0.83790  1.0000
  H   H1256     1.0  0.24910  0.77251  0.88966  1.0000
  C   C1564     1.0  0.19056  0.80369  0.80872  1.0000
  C   C1565     1.0  0.23594  0.78598  0.88920  1.0000
  C   C1566     1.0  0.07185  0.67362  0.95259  1.0000
  H   H1257     1.0  0.25988  0.84616  0.82088  1.0000
  C   C1567     1.0  0.40243  0.86180  0.91655  1.0000
  C   C1568     1.0  0.12523  0.71537  0.89429  1.0000
  C   C1569     1.0  0.00971  0.71727  0.80794  1.0000
  H   H1258     1.0  0.43405  0.93934  0.93359  1.0000
  H   H1259     1.0  0.44705  0.59042  0.88568  1.0000
  H   H1260     1.0  0.06439  0.75247  0.94280  1.0000
  H   H1261     1.0  0.19308  0.61277  0.81309  1.0000
  H   H1262     1.0  0.34847  0.80218  0.86638  1.0000
  H   H1263     1.0  0.30094  0.80393  0.89791  1.0000
  C   C1570     1.0  0.18520  0.82751  0.93495  1.0000
  H   H1264     1.0  0.21180  0.80582  0.92729  1.0000
  H   H1265     1.0  0.10918  0.79632  0.93700  1.0000
  H   H1266     1.0  0.05273  0.65202  0.95347  1.0000
  H   H1267     1.0  0.26143  0.94751  0.91984  1.0000
  C   C1571     1.0  0.24022  0.82618  0.81813  1.0000
  C   C1572     1.0  0.37022  0.92420  0.89792  1.0000
  C   C1573     1.0  0.18069  0.59518  0.81918  1.0000
  C   C1574     1.0  0.07566  0.68923  0.94204  1.0000
  C   C1575     1.0  0.43201  0.50948  0.89545  1.0000
  C   C1576     1.0  0.21245  0.77164  0.81774  1.0000
  C   C1577     1.0  0.07016  0.52025  0.82052  1.0000
  C   C1578     1.0  0.13118  0.79817  0.93443  1.0000
  C   C1579     1.0  0.32225  0.79956  0.88182  1.0000
  C   C1580     1.0  0.17336  0.56479  0.81598  1.0000
  C   C1581     1.0  0.02718  0.73792  0.91149  1.0000
  S   S229      1.0  0.20468  0.91746  0.95122  1.0000
  C   C1582     1.0  0.11275  0.67073  0.90609  1.0000
  C   C1583     1.0  0.42083  0.95243  0.82119  1.0000
  H   H1268     1.0  0.08571  0.51252  0.82476  1.0000
  P   P49       1.0  0.40148  0.88729  0.89468  1.0000
  C   C1584     1.0  0.18863  0.77477  0.81168  1.0000
  C   C1585     1.0  0.41241  0.49232  0.88637  1.0000
  C   C1586     1.0  0.02719  0.75141  0.93213  1.0000
  H   H1269     1.0  0.43806  0.87176  0.82161  1.0000
  C   C1587     1.0  0.03835  0.66394  0.80435  1.0000
  H   H1270     1.0  0.40295  0.84219  0.93348  1.0000
  P   P50       1.0  0.15813  0.80764  0.80240  1.0000
  H   H1271     1.0  0.35375  0.97125  0.87979  1.0000
  H   H1272     1.0  0.08650  0.56201  0.83085  1.0000
  C   C1588     1.0  0.35835  0.94467  0.89417  1.0000
  C   C1589     1.0  0.39398  0.92765  0.87904  1.0000
  H   H1273     1.0  0.39127  0.84881  0.87325  1.0000
  H   H1274     1.0  0.06382  0.72773  0.90589  1.0000
  H   H1275     1.0  0.34356  0.85036  0.90491  1.0000
  C   C1590     1.0  0.38189  0.94789  0.87527  1.0000
  H   H1276     1.0  0.05956  0.67949  0.93482  1.0000
  C   C1591     1.0  0.01347  0.74592  0.92092  1.0000
  C   C1592     1.0  0.09876  0.76982  0.82876  1.0000
  C   C1593     1.0  0.02947  0.54109  0.81037  1.0000
  H   H1277     1.0  0.33138  0.77952  0.81796  1.0000
  H   H1278     1.0  0.34383  0.95068  0.89990  1.0000
  H   H1279     1.0  0.12494  0.67303  0.88780  1.0000
  C   C1594     1.0  0.38874  0.91609  0.89045  1.0000
  C   C1595     1.0  0.13503  0.77375  0.92886  1.0000
  C   C1596     1.0  0.15681  0.54170  0.82359  1.0000
  C   C1597     1.0  0.37226  0.83847  0.87894  1.0000
  H   H1280     1.0  0.38648  0.87133  0.82882  1.0000
  C   C1598     1.0  0.16726  0.84271  0.79473  1.0000
  H   H1281     1.0  0.13184  0.72642  0.88591  1.0000
  C   C1599     1.0  0.11978  0.73087  0.90392  1.0000
  C   C1600     1.0  0.12019  0.72997  0.95036  1.0000
  C   C1601     1.0  0.44509  0.85592  0.85144  1.0000
  H   H1282     1.0  0.01285  0.49962  0.80000  1.0000
  H   H1283     1.0  0.45305  0.94186  0.88735  1.0000
  H   H1284     1.0  0.42534  0.93763  0.91200  1.0000
  C   C1602     1.0  0.02914  0.51307  0.80671  1.0000
  H   H1285     1.0  0.09613  0.78119  0.79341  1.0000
  H   H1286     1.0  0.26426  0.95095  0.89798  1.0000
  C   C1603     1.0  0.45313  0.64049  0.86410  1.0000
  C   C1604     1.0  0.40762  0.86295  0.92877  1.0000
  C   C1605     1.0  0.06633  0.48153  0.85286  1.0000
  H   H1287     1.0  0.97440  0.67681  0.89855  1.0000
  C   C1606     1.0  0.44680  0.90781  0.80905  1.0000
  C   C1607     1.0  0.36401  0.95637  0.88283  1.0000
  H   H1288     1.0  0.13881  0.75196  0.94984  1.0000
  C   C1608     1.0  0.42518  0.91768  0.92883  1.0000
  H   H1289     1.0  0.44255  0.65500  0.86097  1.0000
  C   C1609     1.0  0.98414  0.70040  0.81432  1.0000
  H   H1290     1.0  0.39408  0.84004  0.91189  1.0000
  C   C1610     1.0  0.45797  0.92223  0.88558  1.0000
  C   C1611     1.0  0.45489  0.88985  0.81686  1.0000
  C   C1612     1.0  0.45587  0.60403  0.87799  1.0000
  C   C1613     1.0  0.37091  0.84000  0.80103  1.0000
  C   C1614     1.0  0.01924  0.48349  0.84696  1.0000
  C   C1615     1.0  0.44843  0.48822  0.84578  1.0000
  H   H1291     1.0  0.45930  0.50859  0.84082  1.0000
  S   S230      1.0  0.96603  0.69904  0.95009  1.0000
  H   H1292     1.0  0.98657  0.69464  0.82338  1.0000
  C   C1616     1.0  0.14701  0.85682  0.79454  1.0000
  H   H1293     1.0  0.34244  0.79310  0.79697  1.0000
  C   C1617     1.0  0.41303  0.97252  0.82800  1.0000
  H   H1294     1.0  0.06695  0.83607  0.95967  1.0000
  H   H1295     1.0  0.76872  0.02621  0.10319  1.0000
  C   C1618     1.0  0.94105  0.26387  0.00823  1.0000
  Fe  Fe115     1.0  0.62559  0.01487  0.07114  1.0000
  S   S231      1.0  0.58241  0.02245  0.06738  1.0000
  Fe  Fe116     1.0  0.69172  0.05731  0.07612  1.0000
  S   S232      1.0  0.70748  0.01971  0.07475  1.0000
  S   S233      1.0  0.72038  0.10532  0.08265  1.0000
  Fe  Fe117     1.0  0.67639  0.00314  0.05872  1.0000
  H   H1296     1.0  0.51454  0.38614  0.10627  1.0000
  S   S234      1.0  0.66363  0.04308  0.05939  1.0000
  S   S235      1.0  0.65338  0.03174  0.08796  1.0000
  C   C1619     1.0  0.79379  0.10207  0.10977  1.0000
  S   S236      1.0  0.89900  0.26975  0.05361  1.0000
  C   C1620     1.0  0.51359  0.01032  0.10659  1.0000
  S   S237      1.0  0.88365  0.25337  0.08157  1.0000
  Fe  Fe118     1.0  0.87720  0.22783  0.06426  1.0000
  S   S238      1.0  0.83799  0.18830  0.05569  1.0000
  Fe  Fe119     1.0  0.90920  0.29560  0.07108  1.0000
  S   S239      1.0  0.89553  0.33545  0.07484  1.0000
  S   S240      1.0  0.91968  0.22081  0.06657  1.0000
  C   C1621     1.0  0.49435  0.38312  0.06836  1.0000
  C   C1622     1.0  0.52270  0.39435  0.06300  1.0000
  C   C1623     1.0  0.54406  0.42448  0.06521  1.0000
  C   C1624     1.0  0.53753  0.44386  0.07294  1.0000
  C   C1625     1.0  0.50899  0.43274  0.07818  1.0000
  C   C1626     1.0  0.48755  0.40270  0.07589  1.0000
  H   H1297     1.0  0.52833  0.37957  0.05715  1.0000
  H   H1298     1.0  0.56580  0.43250  0.06110  1.0000
  H   H1299     1.0  0.81583  0.10556  0.01425  1.0000
  H   H1300     1.0  0.57399  0.02224  0.09274  1.0000
  C   C1627     1.0  0.75366  0.12758  0.07532  1.0000
  C   C1628     1.0  0.76065  0.11811  0.06446  1.0000
  C   C1629     1.0  0.78664  0.13696  0.05856  1.0000
  C   C1630     1.0  0.80603  0.16514  0.06355  1.0000
  C   C1631     1.0  0.79930  0.17442  0.07449  1.0000
  C   C1632     1.0  0.77312  0.15572  0.08034  1.0000
  H   H1301     1.0  0.74579  0.09649  0.06052  1.0000
  H   H1302     1.0  0.79172  0.12968  0.05009  1.0000
  H   H1303     1.0  0.81391  0.19627  0.07829  1.0000
  H   H1304     1.0  0.76779  0.16319  0.08873  1.0000
  C   C1633     1.0  0.95362  0.21253  0.12150  1.0000
  C   C1634     1.0  0.59010  0.98401  0.02598  1.0000
  C   C1635     1.0  0.92660  0.43789  0.06720  1.0000
  C   C1636     1.0  0.90840  0.37493  0.07172  1.0000
  C   C1637     1.0  0.89072  0.39057  0.07520  1.0000
  C   C1638     1.0  0.89966  0.42174  0.07292  1.0000
  H   H1305     1.0  0.86976  0.37839  0.07961  1.0000
  H   H1306     1.0  0.88558  0.43326  0.07541  1.0000
  C   C1639     1.0  0.54365  0.00870  0.07118  1.0000
  H   H1307     1.0  0.89184  0.35285  0.04668  1.0000
  S   S241      1.0  0.69364  0.98346  0.04324  1.0000
  P   P51       1.0  0.50218  0.32135  0.10368  1.0000
  C   C1640     1.0  0.52769  0.02680  0.06885  1.0000
  C   C1641     1.0  0.66614  0.98957  0.12135  1.0000
  C   C1642     1.0  0.90777  0.41429  0.12219  1.0000
  C   C1643     1.0  0.95813  0.25261  0.00121  1.0000
  C   C1644     1.0  0.60980  0.06609  0.09578  1.0000
  C   C1645     1.0  0.94208  0.33732  0.00467  1.0000
  C   C1646     1.0  0.88180  0.15032  0.09903  1.0000
  H   H1308     1.0  0.89564  0.14905  0.06966  1.0000
  C   C1647     1.0  0.92903  0.34612  0.98479  1.0000
  C   C1648     1.0  0.49672  0.01658  0.07129  1.0000
  H   H1309     1.0  0.47638  0.25586  0.10760  1.0000
  C   C1649     1.0  0.55349  0.41004  0.09604  1.0000
  C   C1650     1.0  0.93535  0.39106  0.06595  1.0000
  C   C1651     1.0  0.62019  0.08792  0.04757  1.0000
  H   H1310     1.0  0.92248  0.16459  0.08906  1.0000
  C   C1652     1.0  0.52794  0.41588  0.01545  1.0000
  C   C1653     1.0  0.79471  0.07386  0.10714  1.0000
  C   C1654     1.0  0.53627  0.29700  0.11645  1.0000
  C   C1655     1.0  0.85377  0.44075  0.09612  1.0000
  C   C1656     1.0  0.91477  0.36899  0.00155  1.0000
  C   C1657     1.0  0.58619  0.04688  0.00528  1.0000
  C   C1658     1.0  0.93423  0.09273  0.98747  1.0000
  C   C1659     1.0  0.89477  0.46859  0.11003  1.0000
  C   C1660     1.0  0.53002  0.35507  0.09740  1.0000
  C   C1661     1.0  0.57458  0.37928  0.08561  1.0000
  C   C1662     1.0  0.47316  0.41952  0.02013  1.0000
  C   C1663     1.0  0.67368  0.00086  0.00954  1.0000
  C   C1664     1.0  0.46189  0.29223  0.03573  1.0000
  H   H1311     1.0  0.71758  0.07984  0.10805  1.0000
  H   H1312     1.0  0.90084  0.22433  0.97331  1.0000
  H   H1313     1.0  0.68001  0.08952  0.03191  1.0000
  C   C1665     1.0  0.82405  0.21721  0.10524  1.0000
  H   H1314     1.0  0.78846  0.03208  0.98038  1.0000
  H   H1315     1.0  0.46935  0.35111  0.09113  1.0000
  H   H1316     1.0  0.76874  0.05934  0.01438  1.0000
  H   H1317     1.0  0.66004  0.01106  0.00535  1.0000
  H   H1318     1.0  0.83018  0.23365  0.09827  1.0000
  C   C1666     1.0  0.57514  0.40777  0.08856  1.0000
  C   C1667     1.0  0.55362  0.03101  0.98782  1.0000
  C   C1668     1.0  0.74022  0.05001  0.10579  1.0000
  H   H1319     1.0  0.59414  0.07211  0.98923  1.0000
  H   H1320     1.0  0.84744  0.31071  0.05413  1.0000
  C   C1669     1.0  0.62841  0.07842  0.11595  1.0000
  C   C1670     1.0  0.94418  0.26566  0.02070  1.0000
  C   C1671     1.0  0.51984  0.31515  0.11689  1.0000
  H   H1321     1.0  0.47916  0.27047  0.06432  1.0000
  H   H1322     1.0  0.60617  0.06351  0.00961  1.0000
  C   C1672     1.0  0.94829  0.42121  0.03243  1.0000
  H   H1323     1.0  0.89408  0.15827  0.10730  1.0000
  C   C1673     1.0  0.53106  0.38384  0.10048  1.0000
  H   H1324     1.0  0.55243  0.33116  0.08785  1.0000
  P   P52       1.0  0.55874  0.99367  0.11558  1.0000
  C   C1674     1.0  0.85159  0.13297  0.07714  1.0000
  C   C1675     1.0  0.67608  0.00127  0.02201  1.0000
  C   C1676     1.0  0.83520  0.12921  0.08747  1.0000
  H   H1325     1.0  0.60200  0.98985  0.04466  1.0000
  H   H1326     1.0  0.95231  0.32640  0.01049  1.0000
  C   C1677     1.0  0.55230  0.35302  0.09011  1.0000
  H   H1327     1.0  0.93922  0.11575  0.97097  1.0000
  H   H1328     1.0  0.95036  0.08324  0.98534  1.0000
  H   H1329     1.0  0.71955  0.03004  0.10411  1.0000
  H   H1330     1.0  0.83990  0.12719  0.06862  1.0000
  S   S242      1.0  0.95697  0.25578  0.98548  1.0000
  H   H1331     1.0  0.81085  0.12056  0.08676  1.0000
  C   C1678     1.0  0.69276  0.98727  0.02759  1.0000
  C   C1679     1.0  0.89143  0.42288  0.03136  1.0000
  C   C1680     1.0  0.50164  0.38929  0.01616  1.0000
  C   C1681     1.0  0.96092  0.36046  0.03170  1.0000
  C   C1682     1.0  0.52826  0.98029  0.07615  1.0000
  C   C1683     1.0  0.65688  0.08225  0.03464  1.0000
  C   C1684     1.0  0.63427  0.05664  0.02927  1.0000
  C   C1685     1.0  0.60436  0.04658  0.03296  1.0000
  P   P53       1.0  0.57565  0.01315  0.02601  1.0000
  H   H1332     1.0  0.64712  0.10745  0.10120  1.0000
  C   C1686     1.0  0.54071  0.00118  0.03389  1.0000
  C   C1687     1.0  0.52252  0.01740  0.03260  1.0000
  C   C1688     1.0  0.94497  0.44786  0.03555  1.0000
  H   H1333     1.0  0.61131  0.07172  0.08650  1.0000
  C   C1689     1.0  0.52688  0.44423  0.01710  1.0000
  S   S243      1.0  0.68301  0.98554  0.98679  1.0000
  H   H1334     1.0  0.93005  0.18943  0.02938  1.0000
  H   H1335     1.0  0.92413  0.07202  0.00448  1.0000
  H   H1336     1.0  0.75462  0.02274  0.99739  1.0000
  C   C1690     1.0  0.68831  0.98689  0.00247  1.0000
  H   H1337     1.0  0.95273  0.31806  0.98898  1.0000
  C   C1691     1.0  0.56731  0.02067  0.01109  1.0000
  H   H1338     1.0  0.50355  0.44742  0.08415  1.0000
  P   P54       1.0  0.92660  0.35998  0.02514  1.0000
  H   H1339     1.0  0.54844  0.03495  0.97883  1.0000
  H   H1340     1.0  0.82438  0.26193  0.04272  1.0000
  H   H1341     1.0  0.64012  0.04456  0.02228  1.0000
  H   H1342     1.0  0.52980  0.03748  0.02727  1.0000
  H   H1343     1.0  0.93936  0.33207  0.04639  1.0000
  C   C1692     1.0  0.92310  0.39510  0.02874  1.0000
  Fe  Fe120     1.0  0.66734  0.99306  0.08559  1.0000
  H   H1344     1.0  0.61489  0.09937  0.05494  1.0000
  H   H1345     1.0  0.51463  0.98876  0.98903  1.0000
  H   H1346     1.0  0.49903  0.31505  0.07782  1.0000
  C   C1693     1.0  0.80287  0.20102  0.12443  1.0000
  P   P55       1.0  0.82863  0.13562  0.11160  1.0000
  C   C1694     1.0  0.80836  0.17480  0.12321  1.0000
  C   C1695     1.0  0.88143  0.44528  0.10148  1.0000
  H   H1347     1.0  0.93150  0.27522  0.02590  1.0000
  C   C1696     1.0  0.84915  0.13422  0.12493  1.0000
  C   C1697     1.0  0.76800  0.04791  0.10526  1.0000
  C   C1698     1.0  0.46735  0.27692  0.02607  1.0000
  H   H1348     1.0  0.81861  0.45703  0.09460  1.0000
  C   C1699     1.0  0.89419  0.32873  0.03063  1.0000
  C   C1700     1.0  0.47800  0.25933  0.09817  1.0000
  C   C1701     1.0  0.94957  0.23475  0.11462  1.0000
  H   H1349     1.0  0.53929  0.04881  0.06501  1.0000
  H   H1350     1.0  0.66431  0.01154  0.02733  1.0000
  H   H1351     1.0  0.95159  0.19144  0.11731  1.0000
  C   C1702     1.0  0.53082  0.97542  0.04097  1.0000
  C   C1703     1.0  0.85640  0.30817  0.04565  1.0000
  C   C1704     1.0  0.64987  0.09784  0.04382  1.0000
  H   H1352     1.0  0.76416  0.12561  0.11136  1.0000
  C   C1705     1.0  0.85599  0.27708  0.02859  1.0000
  C   C1706     1.0  0.88126  0.30097  0.02428  1.0000
  C   C1707     1.0  0.94239  0.33257  0.99247  1.0000
  H   H1353     1.0  0.90482  0.37477  0.98336  1.0000
  C   C1708     1.0  0.58659  0.03011  0.11124  1.0000
  C   C1709     1.0  0.76574  0.10405  0.11006  1.0000
  H   H1354     1.0  0.66757  0.11710  0.04824  1.0000
  C   C1710     1.0  0.59746  0.06249  0.04213  1.0000
  H   H1355     1.0  0.49875  0.46803  0.02079  1.0000
  C   C1711     1.0  0.83953  0.45985  0.09905  1.0000
  H   H1356     1.0  0.92555  0.27169  0.00396  1.0000
  H   H1357     1.0  0.81611  0.07203  0.10642  1.0000
  C   C1712     1.0  0.83633  0.16255  0.96670  1.0000
  H   H1358     1.0  0.52652  0.97945  0.00947  1.0000
  C   C1713     1.0  0.84347  0.28072  0.03923  1.0000
  H   H1359     1.0  0.54734  0.46480  0.01667  1.0000
  H   H1360     1.0  0.58365  0.97395  0.00712  1.0000
  C   C1714     1.0  0.48110  0.98778  0.07592  1.0000
  H   H1361     1.0  0.59129  0.37761  0.07975  1.0000
  H   H1362     1.0  0.57486  0.05480  0.04544  1.0000
  S   S244      1.0  0.94215  0.22755  0.09910  1.0000
  H   H1363     1.0  0.84643  0.25551  0.02379  1.0000
  H   H1364     1.0  0.89074  0.29749  0.01610  1.0000
  C   C1715     1.0  0.73911  0.07805  0.10815  1.0000
  H   H1365     1.0  0.59196  0.42814  0.08488  1.0000
  S   S245      1.0  0.95771  0.18584  0.96548  1.0000
  H   H1366     1.0  0.65491  0.00063  0.11615  1.0000
  Fe  Fe121     1.0  0.94186  0.26389  0.05669  1.0000
  C   C1716     1.0  0.91951  0.08648  0.99825  1.0000
  H   H1367     1.0  0.84375  0.42289  0.08946  1.0000
  C   C1717     1.0  0.92798  0.11109  0.97938  1.0000
  C   C1718     1.0  0.90690  0.12309  0.98201  1.0000
  C   C1719     1.0  0.89213  0.11704  0.99284  1.0000
  C   C1720     1.0  0.89842  0.09846  0.00091  1.0000
  P   P56       1.0  0.86317  0.13029  0.99608  1.0000
  C   C1721     1.0  0.87243  0.15382  0.00942  1.0000
  C   C1722     1.0  0.86073  0.15427  0.98437  1.0000
  C   C1723     1.0  0.83688  0.14401  0.97598  1.0000
  C   C1724     1.0  0.47938  0.26729  0.07376  1.0000
  C   C1725     1.0  0.91657  0.44865  0.03510  1.0000
  C   C1726     1.0  0.88291  0.20197  0.97411  1.0000
  C   C1727     1.0  0.88363  0.18354  0.98341  1.0000
  C   C1728     1.0  0.90098  0.16330  0.01496  1.0000
  C   C1729     1.0  0.90803  0.18205  0.02512  1.0000
  C   C1730     1.0  0.88686  0.19176  0.02975  1.0000
  C   C1731     1.0  0.85875  0.18313  0.02412  1.0000
  C   C1732     1.0  0.85171  0.16466  0.01389  1.0000
  C   C1733     1.0  0.82879  0.09617  0.99684  1.0000
  C   C1734     1.0  0.82111  0.07455  0.98752  1.0000
  C   C1735     1.0  0.79446  0.04827  0.98773  1.0000
  C   C1736     1.0  0.77547  0.04297  0.99735  1.0000
  C   C1737     1.0  0.78339  0.06376  0.00687  1.0000
  C   C1738     1.0  0.81005  0.09019  0.00668  1.0000
  H   H1368     1.0  0.89267  0.43093  0.09878  1.0000
  H   H1369     1.0  0.53023  0.02569  0.10088  1.0000
  H   H1370     1.0  0.90188  0.13659  0.97547  1.0000
  H   H1371     1.0  0.88669  0.09299  0.00919  1.0000
  H   H1372     1.0  0.81884  0.12169  0.97641  1.0000
  C   C1739     1.0  0.54140  0.99981  0.00515  1.0000
  C   C1740     1.0  0.91527  0.36435  0.98932  1.0000
  H   H1373     1.0  0.64433  0.09385  0.12234  1.0000
  H   H1374     1.0  0.90238  0.19203  0.98972  1.0000
  H   H1375     1.0  0.91808  0.15680  0.01140  1.0000
  H   H1376     1.0  0.53775  0.28578  0.10826  1.0000
  H   H1377     1.0  0.89229  0.20615  0.03766  1.0000
  H   H1378     1.0  0.84242  0.19074  0.02778  1.0000
  H   H1379     1.0  0.83006  0.15874  0.00948  1.0000
  H   H1380     1.0  0.83548  0.07817  0.97994  1.0000
  C   C1741     1.0  0.88175  0.33202  0.04142  1.0000
  C   C1742     1.0  0.85018  0.13762  0.09853  1.0000
  H   H1381     1.0  0.50314  0.36765  0.01499  1.0000
  H   H1382     1.0  0.94927  0.37952  0.06322  1.0000
  C   C1743     1.0  0.53461  0.00498  0.99356  1.0000
  H   H1383     1.0  0.84034  0.18794  0.09608  1.0000
  C   C1744     1.0  0.89466  0.39624  0.02815  1.0000
  C   C1745     1.0  0.57937  0.05194  0.99369  1.0000
  C   C1746     1.0  0.49027  0.28880  0.09372  1.0000
  C   C1747     1.0  0.88300  0.14533  0.07772  1.0000
  C   C1748     1.0  0.82965  0.19107  0.10401  1.0000
  C   C1749     1.0  0.46790  0.32580  0.10686  1.0000
  C   C1750     1.0  0.58859  0.03802  0.09933  1.0000
  C   C1751     1.0  0.62996  0.08617  0.10406  1.0000
  C   C1752     1.0  0.89809  0.15395  0.08865  1.0000
  H   H1384     1.0  0.55376  0.43218  0.09813  1.0000
  H   H1385     1.0  0.54924  0.41453  0.01374  1.0000
  H   H1386     1.0  0.48480  0.03068  0.06929  1.0000
  Fe  Fe122     1.0  0.92808  0.24922  0.08336  1.0000
  H   H1387     1.0  0.92921  0.34231  0.97533  1.0000
  H   H1388     1.0  0.80639  0.24250  0.11634  1.0000
  S   S246      1.0  0.95426  0.29256  0.07371  1.0000
  C   C1753     1.0  0.81064  0.22219  0.11543  1.0000
  C   C1754     1.0  0.85945  0.19140  0.96570  1.0000
  C   C1755     1.0  0.46719  0.23406  0.09045  1.0000
  C   C1756     1.0  0.46768  0.23803  0.07824  1.0000
  C   C1757     1.0  0.49949  0.44604  0.01942  1.0000
  C   C1758     1.0  0.49066  0.29258  0.08146  1.0000
  C   C1759     1.0  0.94438  0.42231  0.06376  1.0000
  C   C1760     1.0  0.60671  0.05059  0.11957  1.0000
  C   C1761     1.0  0.82154  0.16951  0.11294  1.0000
  H   H1389     1.0  0.87487  0.37638  0.02539  1.0000
  S   S247      1.0  0.63670  0.97369  0.06947  1.0000
  H   H1390     1.0  0.86938  0.42345  0.03118  1.0000
  H   H1391     1.0  0.90374  0.38293  0.00486  1.0000
  C   C1762     1.0  0.92838  0.35566  0.00931  1.0000
  C   C1763     1.0  0.60184  0.97762  0.03650  1.0000
  H   H1392     1.0  0.46428  0.28565  0.04466  1.0000
  H   H1393     1.0  0.87896  0.18209  0.12478  1.0000
  H   H1394     1.0  0.94937  0.27927  0.11507  1.0000
  H   H1395     1.0  0.47407  0.25836  0.02750  1.0000
  H   H1396     1.0  0.91404  0.46908  0.03794  1.0000
  C   C1764     1.0  0.49487  0.00793  0.03824  1.0000
  H   H1397     1.0  0.88588  0.41520  0.12211  1.0000
  C   C1765     1.0  0.93384  0.44014  0.11976  1.0000
  H   H1398     1.0  0.79231  0.97352  0.01472  1.0000
  H   H1399     1.0  0.95482  0.45240  0.09622  1.0000
  C   C1766     1.0  0.46135  0.98704  0.11223  1.0000
  S   S248      1.0  0.46883  0.34440  0.06547  1.0000
  C   C1767     1.0  0.95230  0.26190  0.12021  1.0000
  C   C1768     1.0  0.96027  0.34435  0.04197  1.0000
  C   C1769     1.0  0.93776  0.38502  0.12484  1.0000
  C   C1770     1.0  0.48511  0.98214  0.04517  1.0000
  H   H1400     1.0  0.46589  0.39469  0.08004  1.0000
  C   C1771     1.0  0.70828  0.97437  0.02051  1.0000
  H   H1401     1.0  0.46860  0.27397  0.00708  1.0000
  H   H1402     1.0  0.47816  0.02058  0.09882  1.0000
  C   C1772     1.0  0.48390  0.00754  0.10539  1.0000
  C   C1773     1.0  0.47403  0.39091  0.01855  1.0000
  C   C1774     1.0  0.70605  0.97403  0.00805  1.0000
  C   C1775     1.0  0.90975  0.38678  0.12462  1.0000
  H   H1403     1.0  0.48110  0.02073  0.03735  1.0000
  H   H1404     1.0  0.60936  0.98535  0.10484  1.0000
  H   H1405     1.0  0.88951  0.36670  0.12622  1.0000
  H   H1406     1.0  0.46394  0.97511  0.04973  1.0000
  C   C1776     1.0  0.52106  0.99265  0.11475  1.0000
  C   C1777     1.0  0.46421  0.28567  0.01459  1.0000
  H   H1407     1.0  0.46119  0.38523  0.04344  1.0000
  H   H1408     1.0  0.56386  0.27940  0.12617  1.0000
  H   H1409     1.0  0.81835  0.15424  0.96009  1.0000
  Fe  Fe123     1.0  0.75932  0.00049  0.18832  1.0000
  S   S249      1.0  0.79757  0.04533  0.19373  1.0000
  S   S250      1.0  0.71477  0.00380  0.18667  1.0000
  C   C1778     1.0  0.91747  0.09463  0.21447  1.0000
  S   S251      1.0  0.93624  0.19025  0.17895  1.0000
  S   S252      1.0  0.92942  0.10741  0.17312  1.0000
  C   C1779     1.0  0.79894  0.10405  0.27400  1.0000
  S   S253      1.0  0.60474  0.46988  0.28740  1.0000
  C   C1780     1.0  0.52010  0.33111  0.12741  1.0000
  S   S254      1.0  0.81951  0.21650  0.28506  1.0000
  H   H1410     1.0  0.55382  0.09058  0.29032  1.0000
  C   C1781     1.0  0.50268  0.41234  0.29092  1.0000
  Fe  Fe124     1.0  0.93213  0.26426  0.27878  1.0000
  C   C1782     1.0  0.78726  0.11423  0.26447  1.0000
  S   S255      1.0  0.89242  0.27117  0.27157  1.0000
  H   H1411     1.0  0.79825  0.19551  0.22241  1.0000
  H   H1412     1.0  0.82179  0.11723  0.27719  1.0000
  H   H1413     1.0  0.51247  0.12692  0.25438  1.0000
  H   H1414     1.0  0.63826  0.99362  0.23083  1.0000
  C   C1783     1.0  0.92696  0.23757  0.24528  1.0000
  C   C1784     1.0  0.50234  0.01400  0.25213  1.0000
  H   H1415     1.0  0.50887  0.34647  0.12777  1.0000
  H   H1416     1.0  0.54529  0.01232  0.13872  1.0000
  S   S256      1.0  0.46308  0.39130  0.29178  1.0000
  C   C1785     1.0  0.80472  0.21159  0.24052  1.0000
  H   H1417     1.0  0.85279  0.20199  0.25717  1.0000
  C   C1786     1.0  0.89074  0.09393  0.21915  1.0000
  C   C1787     1.0  0.95296  0.23865  0.25113  1.0000
  C   C1788     1.0  0.84110  0.10736  0.13131  1.0000
  C   C1789     1.0  0.68276  0.98892  0.25358  1.0000
  H   H1418     1.0  0.88662  0.19675  0.27257  1.0000
  C   C1790     1.0  0.77255  0.16011  0.23421  1.0000
  H   H1419     1.0  0.53509  0.33982  0.14564  1.0000
  C   C1791     1.0  0.55915  0.04872  0.29262  1.0000
  H   H1420     1.0  0.52072  0.03452  0.26925  1.0000
  H   H1421     1.0  0.78508  0.25617  0.29220  1.0000
  C   C1792     1.0  0.81413  0.39866  0.28980  1.0000
  H   H1422     1.0  0.79261  0.20493  0.13235  1.0000
  H   H1423     1.0  0.55988  0.00527  0.15909  1.0000
  H   H1424     1.0  0.83901  0.16832  0.23936  1.0000
  H   H1425     1.0  0.90267  0.23073  0.22861  1.0000
  C   C1793     1.0  0.83372  0.06207  0.18754  1.0000
  C   C1794     1.0  0.84353  0.04706  0.17898  1.0000
  C   C1795     1.0  0.87290  0.06117  0.17459  1.0000
  C   C1796     1.0  0.89254  0.09036  0.17866  1.0000
  C   C1797     1.0  0.88260  0.10534  0.18717  1.0000
  C   C1798     1.0  0.85337  0.09122  0.19158  1.0000
  H   H1426     1.0  0.82859  0.02458  0.17582  1.0000
  H   H1427     1.0  0.88045  0.04944  0.16802  1.0000
  H   H1428     1.0  0.89751  0.12771  0.19044  1.0000
  H   H1429     1.0  0.84594  0.10299  0.19816  1.0000
  C   C1799     1.0  0.83189  0.31718  0.27724  1.0000
  Fe  Fe125     1.0  0.66637  0.00925  0.28349  1.0000
  S   S257      1.0  0.90904  0.35651  0.27373  1.0000
  C   C1800     1.0  0.48724  0.11058  0.27015  1.0000
  H   H1430     1.0  0.64493  0.00124  0.25267  1.0000
  H   H1431     1.0  0.78948  0.07024  0.28736  1.0000
  C   C1801     1.0  0.94519  0.14360  0.22400  1.0000
  C   C1802     1.0  0.79888  0.18097  0.29155  1.0000
  H   H1432     1.0  0.75697  0.17680  0.28339  1.0000
  H   H1433     1.0  0.54174  0.99327  0.23164  1.0000
  C   C1803     1.0  0.46983  0.08499  0.27649  1.0000
  C   C1804     1.0  0.88759  0.16069  0.14002  1.0000
  C   C1805     1.0  0.52245  0.39855  0.28854  1.0000
  C   C1806     1.0  0.95535  0.34642  0.24606  1.0000
  H   H1434     1.0  0.57042  0.03366  0.26627  1.0000
  C   C1807     1.0  0.95801  0.29383  0.20422  1.0000
  Fe  Fe126     1.0  0.86905  0.24829  0.28795  1.0000
  S   S258      1.0  0.67689  0.97747  0.15648  1.0000
  P   P57       1.0  0.85619  0.11871  0.23169  1.0000
  C   C1808     1.0  0.91792  0.44207  0.28231  1.0000
  C   C1809     1.0  0.75132  0.06080  0.27564  1.0000
  C   C1810     1.0  0.94068  0.27932  0.19418  1.0000
  H   H1435     1.0  0.84964  0.36341  0.28352  1.0000
  C   C1811     1.0  0.96025  0.21731  0.13376  1.0000
  C   C1812     1.0  0.65648  0.99031  0.23530  1.0000
  C   C1813     1.0  0.50862  0.00255  0.24149  1.0000
  S   S259      1.0  0.62000  0.99366  0.29109  1.0000
  H   H1436     1.0  0.48255  0.97900  0.27227  1.0000
  H   H1437     1.0  0.79463  0.10381  0.22204  1.0000
  H   H1438     1.0  0.81257  0.26903  0.27349  1.0000
  H   H1439     1.0  0.72013  0.97645  0.25142  1.0000
  C   C1814     1.0  0.55325  0.02503  0.25931  1.0000
  H   H1440     1.0  0.73720  0.04028  0.28006  1.0000
  H   H1441     1.0  0.76968  0.99967  0.24141  1.0000
  H   H1442     1.0  0.63168  0.06177  0.25833  1.0000
  C   C1815     1.0  0.81565  0.05962  0.22573  1.0000
  C   C1816     1.0  0.85646  0.10719  0.14186  1.0000
  H   H1443     1.0  0.65552  0.00470  0.13807  1.0000
  C   C1817     1.0  0.49844  0.10708  0.25919  1.0000
  H   H1444     1.0  0.90522  0.18147  0.14352  1.0000
  P   P58       1.0  0.46601  0.01480  0.25461  1.0000
  C   C1818     1.0  0.86103  0.18434  0.25620  1.0000
  C   C1819     1.0  0.46346  0.05587  0.27186  1.0000
  C   C1820     1.0  0.87251  0.16093  0.12942  1.0000
  H   H1445     1.0  0.84446  0.32271  0.26915  1.0000
  H   H1446     1.0  0.91744  0.26355  0.19510  1.0000
  H   H1447     1.0  0.77968  0.98608  0.27554  1.0000
  H   H1448     1.0  0.56247  0.30617  0.14493  1.0000
  C   C1821     1.0  0.55841  0.99905  0.14014  1.0000
  H   H1449     1.0  0.88508  0.16899  0.21590  1.0000
  C   C1822     1.0  0.55132  0.29354  0.12656  1.0000
  C   C1823     1.0  0.70250  0.98057  0.24692  1.0000
  C   C1824     1.0  0.82912  0.08084  0.23497  1.0000
  H   H1450     1.0  0.94768  0.28898  0.21277  1.0000
  H   H1451     1.0  0.78972  0.97513  0.14479  1.0000
  C   C1825     1.0  0.46777  0.27044  0.26308  1.0000
  C   C1826     1.0  0.84165  0.45310  0.28855  1.0000
  H   H1452     1.0  0.80227  0.15856  0.13025  1.0000
  C   C1827     1.0  0.81396  0.28696  0.27968  1.0000
  C   C1828     1.0  0.85056  0.17062  0.20435  1.0000
  C   C1829     1.0  0.91128  0.41418  0.27629  1.0000
  C   C1830     1.0  0.92282  0.23132  0.23301  1.0000
  H   H1453     1.0  0.72641  0.12703  0.29209  1.0000
  C   C1831     1.0  0.66652  0.99183  0.13382  1.0000
  C   C1832     1.0  0.79943  0.04313  0.24897  1.0000
  S   S260      1.0  0.68480  0.98772  0.26924  1.0000
  H   H1454     1.0  0.59167  0.97667  0.16259  1.0000
  H   H1455     1.0  0.49243  0.13308  0.27386  1.0000
  C   C1833     1.0  0.67525  0.98030  0.22871  1.0000
  S   S261      1.0  0.93837  0.21954  0.21083  1.0000
  C   C1834     1.0  0.87972  0.13381  0.14620  1.0000
  H   H1456     1.0  0.58117  0.01294  0.24749  1.0000
  C   C1835     1.0  0.53514  0.32759  0.13752  1.0000
  H   H1457     1.0  0.91396  0.46005  0.27803  1.0000
  C   C1836     1.0  0.82081  0.07233  0.24665  1.0000
  C   C1837     1.0  0.78652  0.02212  0.23968  1.0000
  C   C1838     1.0  0.94471  0.11932  0.21697  1.0000
  H   H1458     1.0  0.94255  0.35024  0.25321  1.0000
  C   C1839     1.0  0.88012  0.18138  0.26495  1.0000
  C   C1840     1.0  0.73948  0.07108  0.26618  1.0000
  H   H1459     1.0  0.46173  0.08767  0.28513  1.0000
  C   C1841     1.0  0.81881  0.42601  0.28436  1.0000
  H   H1460     1.0  0.80471  0.42630  0.27690  1.0000
  C   C1842     1.0  0.91688  0.39086  0.28169  1.0000
  H   H1461     1.0  0.81184  0.16608  0.19369  1.0000
  C   C1843     1.0  0.84142  0.13468  0.22017  1.0000
  C   C1844     1.0  0.54562  0.46200  0.29156  1.0000
  H   H1462     1.0  0.76360  0.14367  0.22704  1.0000
  H   H1463     1.0  0.47249  0.24415  0.27755  1.0000
  C   C1845     1.0  0.65174  0.08267  0.25927  1.0000
  C   C1846     1.0  0.65097  0.10688  0.26599  1.0000
  C   C1847     1.0  0.67706  0.13346  0.26760  1.0000
  C   C1848     1.0  0.70396  0.13596  0.26247  1.0000
  C   C1849     1.0  0.70501  0.11182  0.25563  1.0000
  C   C1850     1.0  0.67863  0.08498  0.25420  1.0000
  P   P59       1.0  0.74009  0.11353  0.24964  1.0000
  C   C1851     1.0  0.72995  0.09000  0.23634  1.0000
  C   C1852     1.0  0.74056  0.06729  0.23441  1.0000
  C   C1853     1.0  0.73206  0.04914  0.22409  1.0000
  C   C1854     1.0  0.71283  0.05336  0.21572  1.0000
  C   C1855     1.0  0.70212  0.07587  0.21760  1.0000
  C   C1856     1.0  0.71060  0.09412  0.22787  1.0000
  C   C1857     1.0  0.76508  0.15209  0.24600  1.0000
  C   C1858     1.0  0.79758  0.20387  0.25226  1.0000
  C   C1859     1.0  0.77823  0.17424  0.25500  1.0000
  H   H1464     1.0  0.91012  0.24182  0.25020  1.0000
  C   C1860     1.0  0.79484  0.03032  0.22808  1.0000
  H   H1465     1.0  0.67654  0.15195  0.27303  1.0000
  H   H1466     1.0  0.72371  0.15663  0.26404  1.0000
  H   H1467     1.0  0.67886  0.06549  0.24936  1.0000
  H   H1468     1.0  0.73977  0.03128  0.22259  1.0000
  H   H1469     1.0  0.70587  0.03877  0.20787  1.0000
  H   H1470     1.0  0.68699  0.07886  0.21112  1.0000
  H   H1471     1.0  0.70197  0.11139  0.22924  1.0000
  H   H1472     1.0  0.71635  0.05797  0.26335  1.0000
  H   H1473     1.0  0.80761  0.22067  0.25931  1.0000
  H   H1474     1.0  0.77416  0.16851  0.26419  1.0000
  H   H1475     1.0  0.82017  0.23445  0.23844  1.0000
  H   H1476     1.0  0.86634  0.18902  0.19931  1.0000
  C   C1861     1.0  0.55926  0.01336  0.24875  1.0000
  S   S262      1.0  0.67550  0.05876  0.28464  1.0000
  Fe  Fe127     1.0  0.91017  0.31471  0.28237  1.0000
  H   H1477     1.0  0.90692  0.15748  0.27038  1.0000
  H   H1478     1.0  0.82082  0.06588  0.21663  1.0000
  H   H1479     1.0  0.89310  0.12305  0.25279  1.0000
  C   C1862     1.0  0.89152  0.15920  0.26370  1.0000
  H   H1480     1.0  0.66642  0.47115  0.26725  1.0000
  H   H1481     1.0  0.78467  0.01430  0.22079  1.0000
  C   C1863     1.0  0.89095  0.11808  0.22635  1.0000
  C   C1864     1.0  0.78085  0.07754  0.27968  1.0000
  C   C1865     1.0  0.86122  0.15914  0.21378  1.0000
  H   H1482     1.0  0.50102  0.07553  0.24606  1.0000
  C   C1866     1.0  0.81052  0.12248  0.21722  1.0000
  C   C1867     1.0  0.75707  0.09837  0.26072  1.0000
  C   C1868     1.0  0.53699  0.00221  0.23984  1.0000
  H   H1483     1.0  0.91691  0.07637  0.20862  1.0000
  C   C1869     1.0  0.85343  0.16529  0.24612  1.0000
  C   C1870     1.0  0.52500  0.02549  0.26097  1.0000
  H   H1484     1.0  0.63030  0.10478  0.27018  1.0000
  C   C1871     1.0  0.88380  0.13992  0.25370  1.0000
  H   H1485     1.0  0.91934  0.16277  0.23363  1.0000
  H   H1486     1.0  0.79252  0.03696  0.25795  1.0000
  H   H1487     1.0  0.90197  0.41075  0.26738  1.0000
  H   H1488     1.0  0.60623  0.04509  0.12880  1.0000
  C   C1872     1.0  0.66031  0.99482  0.24767  1.0000
  C   C1873     1.0  0.86484  0.14295  0.24480  1.0000
  H   H1489     1.0  0.89143  0.13365  0.15443  1.0000
  C   C1874     1.0  0.49194  0.07798  0.25451  1.0000
  H   H1490     1.0  0.75513  0.06338  0.24085  1.0000
  C   C1875     1.0  0.79233  0.18967  0.23151  1.0000
  H   H1491     1.0  0.48785  0.29035  0.26554  1.0000
  Fe  Fe128     1.0  0.95730  0.15669  0.17841  1.0000
  H   H1492     1.0  0.95194  0.12909  0.13829  1.0000
  H   H1493     1.0  0.87010  0.07484  0.21677  1.0000
  C   C1876     1.0  0.79990  0.13377  0.20770  1.0000
  H   H1494     1.0  0.83035  0.08819  0.25397  1.0000
  H   H1495     1.0  0.80175  0.13481  0.26029  1.0000
  C   C1877     1.0  0.47394  0.05216  0.26073  1.0000
  C   C1878     1.0  0.68069  0.97733  0.14082  1.0000
  H   H1496     1.0  0.77624  0.12336  0.20514  1.0000
  C   C1879     1.0  0.91847  0.14311  0.22861  1.0000
  C   C1880     1.0  0.81993  0.15776  0.20123  1.0000
  H   H1497     1.0  0.56867  0.40561  0.28563  1.0000
  H   H1498     1.0  0.85009  0.08649  0.14679  1.0000
  H   H1499     1.0  0.51372  0.37419  0.28725  1.0000
  C   C1881     1.0  0.55360  0.41645  0.28759  1.0000
  C   C1882     1.0  0.69886  0.97629  0.23456  1.0000
  C   C1883     1.0  0.55063  0.30870  0.13712  1.0000
  C   C1884     1.0  0.83462  0.34026  0.28541  1.0000
  C   C1885     1.0  0.79847  0.27976  0.29026  1.0000
  C   C1886     1.0  0.94465  0.22623  0.22635  1.0000
  H   H1500     1.0  0.79624  0.37785  0.28648  1.0000
  C   C1887     1.0  0.56538  0.44829  0.28902  1.0000
  H   H1501     1.0  0.49184  0.99395  0.23446  1.0000
  S   S263      1.0  0.95965  0.24733  0.26659  1.0000
  H   H1502     1.0  0.82274  0.08660  0.12835  1.0000
  C   C1888     1.0  0.76778  0.16621  0.28906  1.0000
  H   H1503     1.0  0.94412  0.29989  0.25042  1.0000
  S   S264      1.0  0.59804  0.06526  0.28934  1.0000
  C   C1889     1.0  0.51449  0.44411  0.29249  1.0000
  H   H1504     1.0  0.94051  0.27189  0.17532  1.0000
  C   C1890     1.0  0.54253  0.06675  0.29229  1.0000
  S   S265      1.0  0.95191  0.30969  0.28864  1.0000
  C   C1891     1.0  0.95369  0.28387  0.18306  1.0000
  C   C1892     1.0  0.95920  0.26676  0.13246  1.0000
  C   C1893     1.0  0.95612  0.31797  0.24445  1.0000
  C   C1894     1.0  0.56676  0.99525  0.15169  1.0000
  C   C1895     1.0  0.56766  0.98650  0.13049  1.0000
  H   H1505     1.0  0.93920  0.36359  0.12657  1.0000
  C   C1896     1.0  0.58456  0.97909  0.15368  1.0000
  Fe  Fe129     1.0  0.64233  0.99816  0.30911  1.0000
  S   S266      1.0  0.65080  0.04732  0.31199  1.0000
  Fe  Fe130     1.0  0.69483  0.05849  0.30271  1.0000
  S   S267      1.0  0.74215  0.09045  0.30900  1.0000
  S   S268      1.0  0.68775  0.00948  0.30127  1.0000
  H   H1506     1.0  0.77666  0.09171  0.33277  1.0000
  C   C1897     1.0  0.90729  0.20644  0.33635  1.0000
  H   H1507     1.0  0.49490  0.08117  0.37876  1.0000
  C   C1898     1.0  0.84279  0.16965  0.34023  1.0000
  Fe  Fe131     1.0  0.92446  0.28516  0.30418  1.0000
  S   S269      1.0  0.88345  0.29257  0.29808  1.0000
  H   H1508     1.0  0.86044  0.46369  0.32522  1.0000
  H   H1509     1.0  0.93901  0.32741  0.34707  1.0000
  C   C1899     1.0  0.94201  0.21614  0.32016  1.0000
  H   H1510     1.0  0.66126  0.99660  0.33936  1.0000
  C   C1900     1.0  0.76374  0.12466  0.30180  1.0000
  C   C1901     1.0  0.79490  0.13938  0.30426  1.0000
  C   C1902     1.0  0.95568  0.30283  0.45452  1.0000
  H   H1511     1.0  0.84802  0.19916  0.38500  1.0000
  H   H1512     1.0  0.80550  0.12915  0.31020  1.0000
  H   H1513     1.0  0.52666  0.46199  0.38896  1.0000
  H   H1514     1.0  0.87141  0.14546  0.33750  1.0000
  H   H1515     1.0  0.83800  0.29155  0.31942  1.0000
  H   H1516     1.0  0.91658  0.34876  0.31773  1.0000
  H   H1517     1.0  0.80769  0.18607  0.34243  1.0000
  H   H1518     1.0  0.47306  0.45495  0.40564  1.0000
  H   H1519     1.0  0.50270  0.33940  0.30539  1.0000
  H   H1520     1.0  0.95639  0.45086  0.43932  1.0000
  H   H1521     1.0  0.94454  0.42658  0.30812  1.0000
  C   C1903     1.0  0.46732  0.03329  0.37980  1.0000
  C   C1904     1.0  0.64399  0.97787  0.34368  1.0000
  C   C1905     1.0  0.48002  0.39610  0.37655  1.0000
  C   C1906     1.0  0.51650  0.41121  0.36095  1.0000
  H   H1522     1.0  0.53371  0.46746  0.35168  1.0000
  C   C1907     1.0  0.85815  0.37928  0.32811  1.0000
  H   H1523     1.0  0.89759  0.32868  0.44541  1.0000
  C   C1908     1.0  0.81277  0.16659  0.34050  1.0000
  H   H1524     1.0  0.47315  0.31268  0.33861  1.0000
  C   C1909     1.0  0.75035  0.13803  0.29403  1.0000
  C   C1910     1.0  0.89086  0.39010  0.45815  1.0000
  C   C1911     1.0  0.92536  0.19556  0.34297  1.0000
  P   P60       1.0  0.50227  0.41160  0.33691  1.0000
  C   C1912     1.0  0.56054  0.98487  0.40582  1.0000
  H   H1525     1.0  0.49922  0.06860  0.29471  1.0000
  H   H1526     1.0  0.49075  0.38048  0.31360  1.0000
  H   H1527     1.0  0.87060  0.42590  0.31073  1.0000
  H   H1528     1.0  0.90273  0.22591  0.31977  1.0000
  C   C1913     1.0  0.89309  0.23218  0.38218  1.0000
  C   C1914     1.0  0.95353  0.31536  0.34727  1.0000
  C   C1915     1.0  0.84860  0.14391  0.33774  1.0000
  C   C1916     1.0  0.47027  0.41206  0.32865  1.0000
  C   C1917     1.0  0.79150  0.35317  0.31592  1.0000
  P   P61       1.0  0.87331  0.20666  0.34256  1.0000
  H   H1529     1.0  0.47476  0.39250  0.38582  1.0000
  C   C1918     1.0  0.54952  0.45131  0.32377  1.0000
  H   H1530     1.0  0.91927  0.18750  0.35183  1.0000
  H   H1531     1.0  0.83681  0.18526  0.36385  1.0000
  C   C1919     1.0  0.53489  0.44660  0.33464  1.0000
  H   H1532     1.0  0.91922  0.36838  0.33829  1.0000
  C   C1920     1.0  0.82479  0.11582  0.33520  1.0000
  H   H1533     1.0  0.82444  0.24012  0.31054  1.0000
  H   H1534     1.0  0.72892  0.36779  0.31929  1.0000
  H   H1535     1.0  0.94881  0.22464  0.31140  1.0000
  C   C1921     1.0  0.87048  0.26320  0.34009  1.0000
  C   C1922     1.0  0.49337  0.40558  0.35244  1.0000
  H   H1536     1.0  0.88049  0.15458  0.44214  1.0000
  H   H1537     1.0  0.83643  0.17819  0.30093  1.0000
  H   H1538     1.0  0.52580  0.08272  0.39661  1.0000
  H   H1539     1.0  0.54205  0.43393  0.31682  1.0000
  H   H1540     1.0  0.85467  0.17522  0.42796  1.0000
  H   H1541     1.0  0.95037  0.36581  0.44415  1.0000
  C   C1923     1.0  0.46160  0.00673  0.38600  1.0000
  C   C1924     1.0  0.74011  0.33688  0.32985  1.0000
  H   H1542     1.0  0.53466  0.37635  0.34656  1.0000
  S   S270      1.0  0.93642  0.30174  0.32371  1.0000
  C   C1925     1.0  0.83697  0.24649  0.31888  1.0000
  C   C1926     1.0  0.79508  0.11322  0.33514  1.0000
  C   C1927     1.0  0.76082  0.32406  0.33189  1.0000
  C   C1928     1.0  0.81903  0.33329  0.29606  1.0000
  C   C1929     1.0  0.81994  0.17285  0.44005  1.0000
  C   C1930     1.0  0.93527  0.42321  0.29923  1.0000
  H   H1543     1.0  0.93692  0.26337  0.37665  1.0000
  C   C1931     1.0  0.78639  0.33214  0.32497  1.0000
  Fe  Fe132     1.0  0.63055  0.04333  0.29367  1.0000
  H   H1544     1.0  0.78874  0.16848  0.45383  1.0000
  C   C1932     1.0  0.85587  0.36699  0.31661  1.0000
  C   C1933     1.0  0.94227  0.40247  0.45243  1.0000
  C   C1934     1.0  0.84450  0.27539  0.32390  1.0000
  C   C1935     1.0  0.95385  0.47173  0.44100  1.0000
  C   C1936     1.0  0.90032  0.35734  0.32066  1.0000
  C   C1937     1.0  0.87753  0.35672  0.31287  1.0000
  P   P62       1.0  0.82455  0.36305  0.30696  1.0000
  H   H1545     1.0  0.55680  0.00382  0.29553  1.0000
  C   C1938     1.0  0.91586  0.21681  0.32492  1.0000
  P   P63       1.0  0.47221  0.97314  0.40414  1.0000
  C   C1939     1.0  0.50225  0.03496  0.39987  1.0000
  H   H1546     1.0  0.66522  0.99043  0.36099  1.0000
  C   C1940     1.0  0.86494  0.21022  0.37852  1.0000
  C   C1941     1.0  0.91496  0.24644  0.37384  1.0000
  C   C1942     1.0  0.53913  0.00054  0.45552  1.0000
  H   H1547     1.0  0.76602  0.13650  0.33756  1.0000
  C   C1943     1.0  0.77051  0.36591  0.31392  1.0000
  C   C1944     1.0  0.74497  0.35780  0.32088  1.0000
  C   C1945     1.0  0.82344  0.15390  0.45953  1.0000
  C   C1946     1.0  0.85556  0.42549  0.30352  1.0000
  C   C1947     1.0  0.50791  0.06148  0.39364  1.0000
  H   H1548     1.0  0.80219  0.32193  0.32668  1.0000
  H   H1549     1.0  0.84044  0.20379  0.32036  1.0000
  H   H1550     1.0  0.80866  0.18186  0.43386  1.0000
  H   H1551     1.0  0.82936  0.09616  0.33303  1.0000
  C   C1948     1.0  0.49656  0.02347  0.29708  1.0000
  H   H1552     1.0  0.87688  0.34811  0.30395  1.0000
  C   C1949     1.0  0.84916  0.14972  0.45605  1.0000
  H   H1553     1.0  0.49156  0.45966  0.32430  1.0000
  H   H1554     1.0  0.87888  0.46083  0.45645  1.0000
  H   H1555     1.0  0.89808  0.23817  0.39148  1.0000
  C   C1950     1.0  0.90871  0.23876  0.36185  1.0000
  C   C1951     1.0  0.56826  0.01587  0.45131  1.0000
  C   C1952     1.0  0.88059  0.21659  0.35809  1.0000
  C   C1953     1.0  0.52718  0.36837  0.33764  1.0000
  H   H1556     1.0  0.53979  0.41954  0.35835  1.0000
  H   H1557     1.0  0.52072  0.98922  0.44927  1.0000
  H   H1558     1.0  0.84204  0.38800  0.33109  1.0000
  C   C1954     1.0  0.47919  0.00731  0.39605  1.0000
  C   C1955     1.0  0.56322  0.97403  0.41696  1.0000
  C   C1956     1.0  0.53296  0.98464  0.40199  1.0000
  H   H1559     1.0  0.61445  0.03058  0.33494  1.0000
  H   H1560     1.0  0.54709  0.33571  0.33803  1.0000
  C   C1957     1.0  0.47154  0.43879  0.32344  1.0000
  C   C1958     1.0  0.50982  0.40636  0.37292  1.0000
  C   C1959     1.0  0.93382  0.37277  0.44804  1.0000
  C   C1960     1.0  0.53084  0.01287  0.32724  1.0000
  C   C1961     1.0  0.55343  0.04104  0.32452  1.0000
  C   C1962     1.0  0.58354  0.04748  0.32729  1.0000
  C   C1963     1.0  0.59108  0.02587  0.33293  1.0000
  C   C1964     1.0  0.56860  0.99766  0.33560  1.0000
  C   C1965     1.0  0.85866  0.20240  0.36651  1.0000
  H   H1561     1.0  0.72027  0.33061  0.33521  1.0000
  H   H1562     1.0  0.88393  0.27039  0.34816  1.0000
  C   C1966     1.0  0.53826  0.99080  0.33274  1.0000
  H   H1563     1.0  0.93356  0.37782  0.29738  1.0000
  C   C1967     1.0  0.88109  0.38000  0.33589  1.0000
  H   H1564     1.0  0.75702  0.30779  0.33884  1.0000
  H   H1565     1.0  0.88260  0.38916  0.34479  1.0000
  C   C1968     1.0  0.86283  0.23403  0.33516  1.0000
  C   C1969     1.0  0.50244  0.37055  0.31919  1.0000
  H   H1566     1.0  0.92594  0.25008  0.35551  1.0000
  H   H1567     1.0  0.86773  0.30634  0.33824  1.0000
  C   C1970     1.0  0.53441  0.34531  0.33281  1.0000
  H   H1568     1.0  0.54122  0.98199  0.35750  1.0000
  C   C1971     1.0  0.86036  0.15742  0.44470  1.0000
  C   C1972     1.0  0.90191  0.36863  0.33221  1.0000
  H   H1569     1.0  0.50787  0.00841  0.32472  1.0000
  H   H1570     1.0  0.54763  0.05756  0.31993  1.0000
  H   H1571     1.0  0.60106  0.06900  0.32486  1.0000
  H   H1572     1.0  0.53077  0.31668  0.31749  1.0000
  H   H1573     1.0  0.78898  0.29652  0.30659  1.0000
  C   C1973     1.0  0.50946  0.34735  0.31442  1.0000
  H   H1574     1.0  0.93972  0.31068  0.45071  1.0000
  H   H1575     1.0  0.77371  0.38223  0.30708  1.0000
  H   H1576     1.0  0.50196  0.98158  0.29928  1.0000
  C   C1974     1.0  0.86127  0.28374  0.33448  1.0000
  H   H1577     1.0  0.49468  0.45009  0.43069  1.0000
  C   C1975     1.0  0.84623  0.22596  0.32444  1.0000
  H   H1578     1.0  0.57232  0.01579  0.44193  1.0000
  C   C1976     1.0  0.78908  0.13855  0.33784  1.0000
  C   C1977     1.0  0.81247  0.16726  0.29907  1.0000
  C   C1978     1.0  0.52533  0.33463  0.32123  1.0000
  C   C1979     1.0  0.51062  0.38085  0.33094  1.0000
  C   C1980     1.0  0.92888  0.39548  0.29319  1.0000
  C   C1981     1.0  0.90400  0.35173  0.44875  1.0000
  S   S271      1.0  0.90796  0.23888  0.29484  1.0000
  H   H1579     1.0  0.61493  0.04257  0.45602  1.0000
  C   C1982     1.0  0.86010  0.45277  0.29806  1.0000
  H   H1580     1.0  0.52779  0.41079  0.37941  1.0000
  C   C1983     1.0  0.80873  0.16527  0.45141  1.0000
  C   C1984     1.0  0.95660  0.30027  0.33691  1.0000
  C   C1985     1.0  0.80089  0.30280  0.29842  1.0000
  C   C1986     1.0  0.54486  0.47002  0.34332  1.0000
  H   H1581     1.0  0.57508  0.98086  0.33957  1.0000
  H   H1582     1.0  0.51580  0.03604  0.40768  1.0000
  C   C1987     1.0  0.84581  0.16906  0.43672  1.0000
  C   C1988     1.0  0.54432  0.01797  0.29521  1.0000
  H   H1583     1.0  0.48106  0.46225  0.37952  1.0000
  C   C1989     1.0  0.49050  0.06063  0.38359  1.0000
  C   C1990     1.0  0.51318  0.00542  0.29735  1.0000
  H   H1584     1.0  0.53113  0.99266  0.39326  1.0000
  C   C1991     1.0  0.51148  0.05429  0.29464  1.0000
  H   H1585     1.0  0.57978  0.99291  0.40010  1.0000
  C   C1992     1.0  0.50786  0.97376  0.40933  1.0000
  C   C1993     1.0  0.64617  0.97429  0.35596  1.0000
  H   H1586     1.0  0.85944  0.34396  0.45442  1.0000
  C   C1994     1.0  0.92087  0.41144  0.45753  1.0000
  C   C1995     1.0  0.88254  0.36038  0.45381  1.0000
  C   C1996     1.0  0.95169  0.19531  0.33825  1.0000
  C   C1997     1.0  0.93029  0.44678  0.29377  1.0000
  H   H1587     1.0  0.49943  0.45502  0.29436  1.0000
  C   C1998     1.0  0.83216  0.39827  0.29956  1.0000
  C   C1999     1.0  0.46343  0.39514  0.35622  1.0000
  C   C2000     1.0  0.95998  0.20553  0.32683  1.0000
  H   H1588     1.0  0.79938  0.09189  0.45837  1.0000
  C   C2001     1.0  0.50461  0.46729  0.43756  1.0000
  C   C2002     1.0  0.49177  0.46410  0.44877  1.0000
  H   H1589     1.0  0.46742  0.37685  0.45732  1.0000
  C   C2003     1.0  0.59227  0.03108  0.45922  1.0000
  H   H1590     1.0  0.58444  0.97364  0.41986  1.0000
  H   H1591     1.0  0.76491  0.03780  0.45941  1.0000
  C   C2004     1.0  0.78747  0.42429  0.52558  1.0000
  S   S272      1.0  0.89923  0.29773  0.52702  1.0000
  H   H1592     1.0  0.95585  0.43908  0.50558  1.0000
  S   S273      1.0  0.90403  0.29116  0.49835  1.0000
  Fe  Fe133     1.0  0.92685  0.32658  0.51255  1.0000
  H   H1593     1.0  0.71553  0.16061  0.47668  1.0000
  Fe  Fe134     1.0  0.87979  0.26017  0.51313  1.0000
  S   S274      1.0  0.82836  0.23246  0.51218  1.0000
  S   S275      1.0  0.91614  0.24305  0.51573  1.0000
  Fe  Fe135     1.0  0.64485  0.99846  0.52218  1.0000
  S   S276      1.0  0.65515  0.04827  0.52441  1.0000
  Fe  Fe136     1.0  0.65730  0.00424  0.49516  1.0000
  S   S277      1.0  0.66870  0.05432  0.49569  1.0000
  Fe  Fe137     1.0  0.69490  0.05752  0.51255  1.0000
  S   S278      1.0  0.74465  0.09007  0.51612  1.0000
  Fe  Fe138     1.0  0.62839  0.04163  0.50734  1.0000
  S   S279      1.0  0.59609  0.06279  0.50236  1.0000
  S   S280      1.0  0.68623  0.00783  0.51135  1.0000
  C   C2005     1.0  0.49297  0.29900  0.51282  1.0000
  S   S281      1.0  0.88512  0.46297  0.52953  1.0000
  C   C2006     1.0  0.80556  0.19265  0.51308  1.0000
  C   C2007     1.0  0.77400  0.18210  0.51179  1.0000
  C   C2008     1.0  0.75501  0.15089  0.51247  1.0000
  C   C2009     1.0  0.76727  0.12977  0.51481  1.0000
  C   C2010     1.0  0.79879  0.14033  0.51617  1.0000
  C   C2011     1.0  0.81783  0.17145  0.51521  1.0000
  H   H1594     1.0  0.76415  0.19821  0.51020  1.0000
  H   H1595     1.0  0.73091  0.14323  0.51130  1.0000
  H   H1596     1.0  0.80858  0.12427  0.51799  1.0000
  H   H1597     1.0  0.84196  0.17910  0.51627  1.0000
  C   C2012     1.0  0.50753  0.03623  0.52196  1.0000
  C   C2013     1.0  0.52991  0.02728  0.52620  1.0000
  C   C2014     1.0  0.55685  0.03458  0.52008  1.0000
  C   C2015     1.0  0.56188  0.05165  0.50987  1.0000
  C   C2016     1.0  0.53970  0.06096  0.50571  1.0000
  C   C2017     1.0  0.51237  0.05290  0.51164  1.0000
  H   H1598     1.0  0.93500  0.36335  0.54137  1.0000
  H   H1599     1.0  0.57394  0.02753  0.52340  1.0000
  H   H1600     1.0  0.54371  0.07453  0.49789  1.0000
  H   H1601     1.0  0.49545  0.06033  0.50846  1.0000
  C   C2018     1.0  0.90175  0.43912  0.52414  1.0000
  C   C2019     1.0  0.92541  0.45002  0.51628  1.0000
  C   C2020     1.0  0.93776  0.43050  0.51172  1.0000
  C   C2021     1.0  0.92648  0.39994  0.51487  1.0000
  C   C2022     1.0  0.90315  0.38908  0.52294  1.0000
  C   C2023     1.0  0.89086  0.40873  0.52760  1.0000
  C   C2024     1.0  0.84210  0.15515  0.48427  1.0000
  H   H1602     1.0  0.67085  0.37730  0.56933  1.0000
  H   H1603     1.0  0.89435  0.36555  0.52544  1.0000
  H   H1604     1.0  0.87264  0.40029  0.53375  1.0000
  C   C2025     1.0  0.49875  0.40701  0.52165  1.0000
  C   C2026     1.0  0.51433  0.39430  0.51466  1.0000
  C   C2027     1.0  0.54343  0.41268  0.51083  1.0000
  C   C2028     1.0  0.55699  0.44372  0.51402  1.0000
  C   C2029     1.0  0.54068  0.45661  0.52046  1.0000
  C   C2030     1.0  0.51156  0.43832  0.52415  1.0000
  C   C2031     1.0  0.95742  0.37565  0.54512  1.0000
  H   H1605     1.0  0.55568  0.40270  0.50562  1.0000
  C   C2032     1.0  0.46975  0.45856  0.56474  1.0000
  H   H1606     1.0  0.49908  0.44834  0.52917  1.0000
  H   H1607     1.0  0.60675  0.99740  0.57421  1.0000
  H   H1608     1.0  0.88726  0.26283  0.56382  1.0000
  C   C2033     1.0  0.95944  0.36050  0.58507  1.0000
  H   H1609     1.0  0.95291  0.35899  0.47634  1.0000
  H   H1610     1.0  0.76714  0.10915  0.49184  1.0000
  C   C2034     1.0  0.48420  0.42871  0.62092  1.0000
  C   C2035     1.0  0.87848  0.45776  0.46591  1.0000
  C   C2036     1.0  0.86758  0.18230  0.48264  1.0000
  H   H1611     1.0  0.55444  0.01756  0.48492  1.0000
  H   H1612     1.0  0.53684  0.45318  0.57152  1.0000
  H   H1613     1.0  0.79581  0.23517  0.48933  1.0000
  H   H1614     1.0  0.52964  0.40818  0.61108  1.0000
  C   C2037     1.0  0.90132  0.45194  0.47167  1.0000
  H   H1615     1.0  0.47241  0.28514  0.52961  1.0000
  Fe  Fe139     1.0  0.93655  0.28176  0.52925  1.0000
  C   C2038     1.0  0.69349  0.41572  0.54382  1.0000
  C   C2039     1.0  0.53400  0.99954  0.46773  1.0000
  H   H1616     1.0  0.74064  0.21280  0.48532  1.0000
  H   H1617     1.0  0.87556  0.44634  0.49982  1.0000
  C   C2040     1.0  0.95237  0.29325  0.46637  1.0000
  C   C2041     1.0  0.94464  0.39412  0.60224  1.0000
  C   C2042     1.0  0.85412  0.45605  0.48459  1.0000
  C   C2043     1.0  0.71801  0.44147  0.54827  1.0000
  H   H1618     1.0  0.47133  0.06135  0.48794  1.0000
  H   H1619     1.0  0.62005  0.00247  0.55296  1.0000
  P   P64       1.0  0.49679  0.97801  0.47327  1.0000
  C   C2044     1.0  0.52452  0.44364  0.60104  1.0000
  C   C2045     1.0  0.89972  0.44725  0.48392  1.0000
  H   H1620     1.0  0.95796  0.41317  0.47633  1.0000
  H   H1621     1.0  0.56642  0.46884  0.55220  1.0000
  H   H1622     1.0  0.47801  0.43944  0.54844  1.0000
  H   H1623     1.0  0.65767  0.37288  0.54794  1.0000
  C   C2046     1.0  0.48185  0.41852  0.48542  1.0000
  C   C2047     1.0  0.58702  0.03166  0.47130  1.0000
  C   C2048     1.0  0.91391  0.44854  0.55598  1.0000
  C   C2049     1.0  0.68392  0.39519  0.56346  1.0000
  H   H1624     1.0  0.74423  0.46327  0.56404  1.0000
  C   C2050     1.0  0.78487  0.21268  0.48529  1.0000
  H   H1625     1.0  0.71415  0.42260  0.57729  1.0000
  C   C2051     1.0  0.78516  0.08426  0.46594  1.0000
  C   C2052     1.0  0.84248  0.13616  0.49348  1.0000
  H   H1626     1.0  0.93407  0.29391  0.47152  1.0000
  C   C2053     1.0  0.86074  0.28068  0.55358  1.0000
  H   H1627     1.0  0.54855  0.40806  0.57411  1.0000
  H   H1628     1.0  0.87669  0.35545  0.55043  1.0000
  H   H1629     1.0  0.51871  0.31737  0.49738  1.0000
  H   H1630     1.0  0.60454  0.97680  0.47143  1.0000
  S   S282      1.0  0.61527  0.99125  0.50576  1.0000
  C   C2054     1.0  0.74775  0.06309  0.48528  1.0000
  C   C2055     1.0  0.51862  0.31791  0.50695  1.0000
  C   C2056     1.0  0.75380  0.20000  0.48309  1.0000
  C   C2057     1.0  0.49249  0.29992  0.52514  1.0000
  H   H1631     1.0  0.52639  0.01461  0.53425  1.0000
  H   H1632     1.0  0.61654  0.47040  0.54753  1.0000
  H   H1633     1.0  0.91242  0.21141  0.48884  1.0000
  H   H1634     1.0  0.74734  0.41354  0.53545  1.0000
  H   H1635     1.0  0.95016  0.26162  0.57305  1.0000
  C   C2058     1.0  0.89302  0.17138  0.49929  1.0000
  C   C2059     1.0  0.89289  0.19033  0.49012  1.0000
  C   C2060     1.0  0.46532  0.34708  0.57246  1.0000
  C   C2061     1.0  0.75664  0.15390  0.47562  1.0000
  C   C2062     1.0  0.70834  0.42068  0.56794  1.0000
  C   C2063     1.0  0.93460  0.39319  0.59053  1.0000
  C   C2064     1.0  0.54208  0.41806  0.58164  1.0000
  C   C2065     1.0  0.54012  0.40553  0.59281  1.0000
  C   C2066     1.0  0.86785  0.14431  0.50097  1.0000
  H   H1636     1.0  0.50440  0.37021  0.51261  1.0000
  H   H1637     1.0  0.67692  0.39331  0.50366  1.0000
  H   H1638     1.0  0.85031  0.41358  0.57159  1.0000
  H   H1639     1.0  0.64496  0.42246  0.50334  1.0000
  H   H1640     1.0  0.91658  0.44209  0.48859  1.0000
  H   H1641     1.0  0.84543  0.25861  0.55010  1.0000
  H   H1642     1.0  0.68756  0.41343  0.53449  1.0000
  C   C2067     1.0  0.59670  0.44937  0.54628  1.0000
  H   H1643     1.0  0.67688  0.01273  0.57334  1.0000
  S   S283      1.0  0.47483  0.02783  0.53028  1.0000
  H   H1644     1.0  0.50052  0.02974  0.48774  1.0000
  P   P65       1.0  0.80977  0.14478  0.47434  1.0000
  P   P66       1.0  0.51335  0.45980  0.61363  1.0000
  C   C2068     1.0  0.47697  0.00261  0.47249  1.0000
  C   C2069     1.0  0.88623  0.44334  0.56099  1.0000
  C   C2070     1.0  0.76566  0.05351  0.46649  1.0000
  C   C2071     1.0  0.72538  0.44374  0.56039  1.0000
  H   H1645     1.0  0.67942  0.47022  0.54003  1.0000
  H   H1646     1.0  0.82569  0.20601  0.48494  1.0000
  C   C2072     1.0  0.94168  0.37609  0.58183  1.0000
  H   H1647     1.0  0.84034  0.30509  0.54351  1.0000
  H   H1648     1.0  0.69131  0.99013  0.55597  1.0000
  H   H1649     1.0  0.46283  0.40751  0.58746  1.0000
  H   H1650     1.0  0.52063  0.42073  0.54912  1.0000
  H   H1651     1.0  0.86792  0.19740  0.47561  1.0000
  H   H1652     1.0  0.92443  0.46796  0.55043  1.0000
  C   C2073     1.0  0.53545  0.44342  0.58016  1.0000
  H   H1653     1.0  0.50257  0.42244  0.49027  1.0000
  C   C2074     1.0  0.51780  0.31961  0.53163  1.0000
  C   C2075     1.0  0.54396  0.33833  0.52581  1.0000
  C   C2076     1.0  0.54403  0.33754  0.51340  1.0000
  P   P67       1.0  0.57720  0.36261  0.53426  1.0000
  C   C2077     1.0  0.57355  0.39636  0.53976  1.0000
  C   C2078     1.0  0.58213  0.34181  0.54666  1.0000
  C   C2079     1.0  0.59433  0.35683  0.55746  1.0000
  C   C2080     1.0  0.59793  0.34055  0.56705  1.0000
  C   C2081     1.0  0.58949  0.30923  0.56590  1.0000
  C   C2082     1.0  0.57754  0.29416  0.55516  1.0000
  C   C2083     1.0  0.57392  0.31035  0.54556  1.0000
  C   C2084     1.0  0.59935  0.42339  0.54180  1.0000
  H   H1654     1.0  0.74526  0.13124  0.47180  1.0000
  H   H1655     1.0  0.87567  0.45891  0.55932  1.0000
  C   C2085     1.0  0.54273  0.42147  0.54727  1.0000
  C   C2086     1.0  0.54523  0.39557  0.54261  1.0000
  C   C2087     1.0  0.60956  0.37285  0.52491  1.0000
  C   C2088     1.0  0.62719  0.35586  0.52482  1.0000
  C   C2089     1.0  0.65159  0.36342  0.51726  1.0000
  C   C2090     1.0  0.64042  0.40420  0.50948  1.0000
  C   C2091     1.0  0.61635  0.39704  0.51715  1.0000
  C   C2092     1.0  0.76703  0.09382  0.48473  1.0000
  H   H1656     1.0  0.86780  0.12979  0.50817  1.0000
  H   H1657     1.0  0.94832  0.43222  0.55342  1.0000
  H   H1658     1.0  0.51697  0.31995  0.54118  1.0000
  H   H1659     1.0  0.56351  0.35196  0.50860  1.0000
  H   H1660     1.0  0.60096  0.38106  0.55856  1.0000
  H   H1661     1.0  0.60704  0.35218  0.57541  1.0000
  H   H1662     1.0  0.59204  0.29656  0.57335  1.0000
  H   H1663     1.0  0.57084  0.26982  0.55428  1.0000
  H   H1664     1.0  0.56461  0.29825  0.53729  1.0000
  H   H1665     1.0  0.62151  0.42453  0.53986  1.0000
  C   C2093     1.0  0.46696  0.04404  0.48107  1.0000
  H   H1666     1.0  0.54519  0.38583  0.59397  1.0000
  H   H1667     1.0  0.78619  0.40132  0.52565  1.0000
  H   H1668     1.0  0.52485  0.37529  0.54105  1.0000
  H   H1669     1.0  0.62205  0.33657  0.53045  1.0000
  H   H1670     1.0  0.66508  0.35020  0.51721  1.0000
  H   H1671     1.0  0.60271  0.41009  0.51686  1.0000
  C   C2094     1.0  0.65607  0.11996  0.52608  1.0000
  C   C2095     1.0  0.62637  0.10545  0.52975  1.0000
  C   C2096     1.0  0.62045  0.09308  0.54098  1.0000
  C   C2097     1.0  0.64428  0.09567  0.54863  1.0000
  C   C2098     1.0  0.67425  0.11106  0.54516  1.0000
  C   C2099     1.0  0.67997  0.12250  0.53370  1.0000
  P   P68       1.0  0.70459  0.11299  0.55500  1.0000
  C   C2100     1.0  0.70141  0.12774  0.56943  1.0000
  C   C2101     1.0  0.70208  0.07464  0.55577  1.0000
  C   C2102     1.0  0.68995  0.05682  0.56564  1.0000
  C   C2103     1.0  0.68684  0.02667  0.56582  1.0000
  C   C2104     1.0  0.69501  0.01388  0.55604  1.0000
  C   C2105     1.0  0.70654  0.03129  0.54612  1.0000
  C   C2106     1.0  0.71002  0.06152  0.54598  1.0000
  C   C2107     1.0  0.71970  0.12587  0.57882  1.0000
  C   C2108     1.0  0.71773  0.13736  0.59005  1.0000
  C   C2109     1.0  0.69779  0.15118  0.59194  1.0000
  C   C2110     1.0  0.68002  0.15377  0.58256  1.0000
  C   C2111     1.0  0.68195  0.14231  0.57131  1.0000
  C   C2112     1.0  0.74068  0.13924  0.54987  1.0000
  C   C2113     1.0  0.74460  0.16875  0.54685  1.0000
  C   C2114     1.0  0.77255  0.18959  0.54310  1.0000
  C   C2115     1.0  0.79695  0.18136  0.54259  1.0000
  C   C2116     1.0  0.79341  0.15226  0.54578  1.0000
  C   C2117     1.0  0.76544  0.13128  0.54947  1.0000
  H   H1672     1.0  0.66045  0.12817  0.51715  1.0000
  H   H1673     1.0  0.60787  0.10287  0.52374  1.0000
  H   H1674     1.0  0.59733  0.08083  0.54360  1.0000
  H   H1675     1.0  0.63932  0.08524  0.55719  1.0000
  H   H1676     1.0  0.70267  0.13241  0.53044  1.0000
  H   H1677     1.0  0.68209  0.06570  0.57309  1.0000
  S   S284      1.0  0.94194  0.37630  0.50827  1.0000
  C   C2118     1.0  0.76557  0.43140  0.53117  1.0000
  H   H1678     1.0  0.71195  0.02108  0.53838  1.0000
  H   H1679     1.0  0.71826  0.07449  0.53812  1.0000
  H   H1680     1.0  0.73537  0.11535  0.57745  1.0000
  H   H1681     1.0  0.73165  0.13551  0.59730  1.0000
  H   H1682     1.0  0.69617  0.15995  0.60065  1.0000
  H   H1683     1.0  0.66470  0.16466  0.58400  1.0000
  H   H1684     1.0  0.66834  0.14500  0.56414  1.0000
  H   H1685     1.0  0.72592  0.17550  0.54725  1.0000
  H   H1686     1.0  0.77527  0.21197  0.54037  1.0000
  H   H1687     1.0  0.81844  0.19733  0.53944  1.0000
  H   H1688     1.0  0.81222  0.14575  0.54516  1.0000
  H   H1689     1.0  0.76335  0.10895  0.55193  1.0000
  C   C2119     1.0  0.53123  0.41817  0.60247  1.0000
  C   C2120     1.0  0.67650  0.39271  0.55140  1.0000
  C   C2121     1.0  0.73968  0.17061  0.47826  1.0000
  H   H1690     1.0  0.91257  0.17786  0.50516  1.0000
  C   C2122     1.0  0.52690  0.45628  0.58982  1.0000
  S   S285      1.0  0.46539  0.38447  0.52881  1.0000
  C   C2123     1.0  0.65824  0.38763  0.50961  1.0000
  H   H1691     1.0  0.60548  0.04396  0.47746  1.0000
  H   H1692     1.0  0.82322  0.11524  0.49504  1.0000
  C   C2124     1.0  0.87627  0.44939  0.49033  1.0000
  C   C2125     1.0  0.74688  0.04297  0.47613  1.0000
  C   C2126     1.0  0.78576  0.10472  0.47503  1.0000
  C   C2127     1.0  0.48608  0.45873  0.55459  1.0000
  S   S286      1.0  0.59461  0.46564  0.51022  1.0000
  H   H1693     1.0  0.73335  0.05489  0.49281  1.0000
  Fe  Fe140     1.0  0.94170  0.27669  0.50175  1.0000
  C   C2128     1.0  0.61021  0.97923  0.56965  1.0000
  H   H1694     1.0  0.86073  0.14073  0.46213  1.0000
  H   H1695     1.0  0.91481  0.45762  0.59407  1.0000
  H   H1696     1.0  0.92292  0.31250  0.57126  1.0000
  C   C2129     1.0  0.80184  0.19589  0.48281  1.0000
  H   H1697     1.0  0.87384  0.37729  0.57472  1.0000
  C   C2130     1.0  0.76763  0.46134  0.53127  1.0000
  C   C2131     1.0  0.48269  0.42698  0.47362  1.0000
  P   P69       1.0  0.93202  0.44978  0.46340  1.0000
  H   H1698     1.0  0.47661  0.36410  0.59038  1.0000
  C   C2132     1.0  0.81137  0.44690  0.52000  1.0000
  H   H1699     1.0  0.73152  0.01921  0.47654  1.0000
  C   C2133     1.0  0.78787  0.16631  0.47798  1.0000
  S   S287      1.0  0.94792  0.27253  0.54826  1.0000
  H   H1700     1.0  0.82856  0.44150  0.51579  1.0000
  C   C2134     1.0  0.48341  0.02606  0.48097  1.0000
  P   P70       1.0  0.73974  0.47122  0.53844  1.0000
  P   P71       1.0  0.92969  0.37525  0.56653  1.0000
  C   C2135     1.0  0.90193  0.33808  0.56192  1.0000
  C   C2136     1.0  0.91318  0.40240  0.56452  1.0000
  C   C2137     1.0  0.92733  0.42814  0.55767  1.0000
  C   C2138     1.0  0.55797  0.01628  0.47553  1.0000
  C   C2139     1.0  0.87194  0.41775  0.56781  1.0000
  C   C2140     1.0  0.88530  0.39728  0.56955  1.0000
  C   C2141     1.0  0.90464  0.31154  0.56553  1.0000
  C   C2142     1.0  0.88420  0.28304  0.56135  1.0000
  C   C2143     1.0  0.85788  0.30690  0.54988  1.0000
  C   C2144     1.0  0.87856  0.33548  0.55390  1.0000
  H   H1701     1.0  0.92179  0.40625  0.58839  1.0000
  H   H1702     1.0  0.50427  0.43688  0.46939  1.0000
  C   C2145     1.0  0.56841  0.44846  0.54897  1.0000
  C   C2146     1.0  0.85513  0.46005  0.47238  1.0000
  H   H1703     1.0  0.83634  0.45834  0.48964  1.0000
  H   H1704     1.0  0.93958  0.40767  0.60890  1.0000
  H   H1705     1.0  0.87380  0.39609  0.46209  1.0000
  H   H1706     1.0  0.95681  0.46323  0.58091  1.0000
  H   H1707     1.0  0.47336  0.28362  0.50781  1.0000
  H   H1708     1.0  0.47167  0.32819  0.57367  1.0000
  C   C2147     1.0  0.61773  0.98218  0.55756  1.0000
  C   C2148     1.0  0.46808  0.36727  0.58186  1.0000
  S   S288      1.0  0.66458  0.98066  0.47847  1.0000
  H   H1709     1.0  0.83797  0.46526  0.46794  1.0000
  Fe  Fe141     1.0  0.73049  0.99884  0.73131  1.0000
  C   C2149     1.0  0.88858  0.18088  0.70802  1.0000
  S   S289      1.0  0.75775  0.05009  0.72880  1.0000
  C   C2150     1.0  0.91725  0.11805  0.76313  1.0000
  C   C2151     1.0  0.74971  0.00583  0.67925  1.0000
  C   C2152     1.0  0.93078  0.10517  0.70231  1.0000
  H   H1710     1.0  0.66481  0.98043  0.77596  1.0000
  C   C2153     1.0  0.90386  0.20368  0.70012  1.0000
  S   S290      1.0  0.89612  0.14205  0.73789  1.0000
  C   C2154     1.0  0.81277  0.03483  0.70982  1.0000
  S   S291      1.0  0.93946  0.23750  0.73387  1.0000
  C   C2155     1.0  0.79634  0.07512  0.73150  1.0000
  C   C2156     1.0  0.81755  0.06534  0.73626  1.0000
  C   C2157     1.0  0.84783  0.08612  0.73813  1.0000
  C   C2158     1.0  0.85745  0.11696  0.73531  1.0000
  C   C2159     1.0  0.83619  0.12673  0.73059  1.0000
  C   C2160     1.0  0.80596  0.10594  0.72867  1.0000
  H   H1711     1.0  0.81062  0.04178  0.73851  1.0000
  H   H1712     1.0  0.86394  0.07816  0.74177  1.0000
  H   H1713     1.0  0.84290  0.15035  0.72856  1.0000
  H   H1714     1.0  0.78982  0.11387  0.72504  1.0000
  C   C2161     1.0  0.92015  0.25140  0.77722  1.0000
  H   H1715     1.0  0.84191  0.98708  0.64781  1.0000
  C   C2162     1.0  0.83780  0.08164  0.69938  1.0000
  C   C2163     1.0  0.91740  0.19709  0.69031  1.0000
  H   H1716     1.0  0.92990  0.21512  0.68438  1.0000
  H   H1717     1.0  0.80391  0.13479  0.75368  1.0000
  H   H1718     1.0  0.87890  0.18626  0.71583  1.0000
  H   H1719     1.0  0.92688  0.16347  0.68083  1.0000
  Fe  Fe142     1.0  0.93440  0.18863  0.73405  1.0000
  C   C2164     1.0  0.83450  0.99087  0.65643  1.0000
  C   C2165     1.0  0.91563  0.16766  0.68836  1.0000
  H   H1720     1.0  0.86254  0.02114  0.68360  1.0000
  C   C2166     1.0  0.92849  0.10637  0.66044  1.0000
  H   H1721     1.0  0.46994  0.38891  0.64642  1.0000
  C   C2167     1.0  0.80044  0.09262  0.76098  1.0000
  H   H1722     1.0  0.85181  0.07576  0.67614  1.0000
  H   H1723     1.0  0.87564  0.13432  0.71247  1.0000
  H   H1724     1.0  0.88686  0.05010  0.70689  1.0000
  P   P72       1.0  0.89910  0.10670  0.69420  1.0000
  C   C2168     1.0  0.87423  0.07965  0.65972  1.0000
  C   C2169     1.0  0.87343  0.08408  0.67193  1.0000
  C   C2170     1.0  0.91181  0.20346  0.76745  1.0000
  H   H1725     1.0  0.71431  0.99587  0.65972  1.0000
  C   C2171     1.0  0.48898  0.41984  0.63226  1.0000
  C   C2172     1.0  0.72825  0.02789  0.69403  1.0000
  C   C2173     1.0  0.81544  0.00105  0.67863  1.0000
  H   H1726     1.0  0.85375  0.16481  0.76272  1.0000
  C   C2174     1.0  0.92776  0.11085  0.67265  1.0000
  H   H1727     1.0  0.90591  0.22669  0.70176  1.0000
  H   H1728     1.0  0.80835  0.00526  0.68726  1.0000
  H   H1729     1.0  0.85377  0.08359  0.77827  1.0000
  C   C2175     1.0  0.81180  0.05998  0.70421  1.0000
  C   C2176     1.0  0.81467  0.07822  0.76781  1.0000
  H   H1730     1.0  0.80373  0.05392  0.76899  1.0000
  H   H1731     1.0  0.79103  0.06324  0.70409  1.0000
  H   H1732     1.0  0.84068  0.01217  0.71531  1.0000
  H   H1733     1.0  0.85343  0.06784  0.65470  1.0000
  C   C2177     1.0  0.83987  0.03134  0.71069  1.0000
  C   C2178     1.0  0.94083  0.11385  0.75756  1.0000
  H   H1734     1.0  0.77866  0.07947  0.75678  1.0000
  C   C2179     1.0  0.90175  0.09068  0.65398  1.0000
  H   H1735     1.0  0.91231  0.19094  0.75946  1.0000
  H   H1736     1.0  0.79268  0.01863  0.71386  1.0000
  C   C2180     1.0  0.86604  0.05306  0.70595  1.0000
  C   C2181     1.0  0.88677  0.15145  0.70609  1.0000
  C   C2182     1.0  0.86523  0.07845  0.70027  1.0000
  H   H1737     1.0  0.77241  0.08205  0.67556  1.0000
  C   C2183     1.0  0.90026  0.09922  0.67855  1.0000
  C   C2184     1.0  0.46635  0.39528  0.63758  1.0000
  C   C2185     1.0  0.84306  0.09508  0.77298  1.0000
  C   C2186     1.0  0.90315  0.18844  0.77818  1.0000
  P   P73       1.0  0.89341  0.14812  0.77867  1.0000
  H   H1738     1.0  0.94130  0.07752  0.68933  1.0000
  C   C2187     1.0  0.92342  0.14142  0.77165  1.0000
  C   C2188     1.0  0.90014  0.14449  0.69623  1.0000
  H   H1739     1.0  0.71445  0.02528  0.70174  1.0000
  H   H1740     1.0  0.92765  0.27584  0.77687  1.0000
  C   C2189     1.0  0.81470  0.12384  0.75923  1.0000
  H   H1741     1.0  0.83660  0.10116  0.69519  1.0000
  H   H1742     1.0  0.46368  0.46660  0.64245  1.0000
  H   H1743     1.0  0.51003  0.43163  0.63706  1.0000
  H   H1744     1.0  0.92734  0.24647  0.75878  1.0000
  H   H1745     1.0  0.89436  0.10373  0.76042  1.0000
  C   C2190     1.0  0.84317  0.14076  0.76432  1.0000
  C   C2191     1.0  0.85755  0.12651  0.77128  1.0000
  H   H1746     1.0  0.74033  0.07594  0.69305  1.0000
  C   C2192     1.0  0.76106  0.05986  0.67934  1.0000
  H   H1747     1.0  0.94863  0.12387  0.67746  1.0000
  C   C2193     1.0  0.74289  0.05645  0.68914  1.0000
  H   H1748     1.0  0.46818  0.28210  0.72573  1.0000
  H   H1749     1.0  0.90232  0.08749  0.64450  1.0000
  C   C2194     1.0  0.92008  0.23478  0.76699  1.0000
  C   C2195     1.0  0.84614  0.01010  0.67658  1.0000
  S   S292      1.0  0.67952  0.98040  0.73320  1.0000
  H   H1750     1.0  0.92486  0.12944  0.71763  1.0000
  H   H1751     1.0  0.65849  0.98063  0.66736  1.0000
  C   C2196     1.0  0.73145  0.00265  0.68906  1.0000
  C   C2197     1.0  0.76453  0.03467  0.67442  1.0000
  C   C2198     1.0  0.85568  0.00497  0.66550  1.0000
  H   H1752     1.0  0.77854  0.03762  0.66679  1.0000
  C   C2199     1.0  0.93826  0.11877  0.71362  1.0000
  C   C2200     1.0  0.80373  0.98145  0.65849  1.0000
  C   C2201     1.0  0.95355  0.16050  0.77449  1.0000
  C   C2202     1.0  0.94752  0.08973  0.69771  1.0000
  C   C2203     1.0  0.79393  0.98602  0.66969  1.0000
  H   H1753     1.0  0.47505  0.24293  0.71310  1.0000
  H   H1754     1.0  0.93583  0.09648  0.75068  1.0000
  H   H1755     1.0  0.87950  0.01210  0.66392  1.0000
  H   H1756     1.0  0.94980  0.11551  0.65596  1.0000
  H   H1757     1.0  0.71940  0.98076  0.69287  1.0000
  H   H1758     1.0  0.95887  0.17920  0.78081  1.0000
  C   C2204     1.0  0.90337  0.20533  0.78845  1.0000
  C   C2205     1.0  0.91189  0.23671  0.78795  1.0000
  C   C2206     1.0  0.71426  0.97595  0.65517  1.0000
  H   H1759     1.0  0.66738  0.97466  0.68868  1.0000
  H   H1760     1.0  0.68257  0.97684  0.64181  1.0000
  P   P74       1.0  0.75431  0.97347  0.67276  1.0000
  C   C2207     1.0  0.94774  0.32469  0.87324  1.0000
  C   C2208     1.0  0.80857  0.14939  0.89659  1.0000
  C   C2209     1.0  0.93939  0.28740  0.89811  1.0000
  H   H1761     1.0  0.47769  0.27222  0.82691  1.0000
  C   C2210     1.0  0.92144  0.23729  0.88885  1.0000
  H   H1762     1.0  0.80168  0.16143  0.88999  1.0000
  H   H1763     1.0  0.83625  0.06861  0.90223  1.0000
  H   H1764     1.0  0.94247  0.26881  0.83169  1.0000
  C   C2211     1.0  0.94133  0.27498  0.90900  1.0000
  C   C2212     1.0  0.75652  0.04507  0.89615  1.0000
  S   S293      1.0  0.88808  0.16213  0.94184  1.0000
  C   C2213     1.0  0.94698  0.26459  0.84073  1.0000
  H   H1765     1.0  0.92809  0.11939  0.81613  1.0000
  H   H1766     1.0  0.91287  0.24983  0.79593  1.0000
  C   C2214     1.0  0.72357  0.03453  0.92184  1.0000
  C   C2215     1.0  0.83205  0.06439  0.95337  1.0000
  C   C2216     1.0  0.88974  0.13596  0.79380  1.0000
  H   H1767     1.0  0.68270  0.01174  0.93135  1.0000
  C   C2217     1.0  0.84345  0.14935  0.91205  1.0000
  C   C2218     1.0  0.80091  0.04505  0.91446  1.0000
  C   C2219     1.0  0.88650  0.27452  0.87172  1.0000
  C   C2220     1.0  0.93350  0.24382  0.90984  1.0000
  C   C2221     1.0  0.88071  0.10788  0.95214  1.0000
  C   C2222     1.0  0.87299  0.29096  0.87793  1.0000
  C   C2223     1.0  0.90997  0.12276  0.81157  1.0000
  C   C2224     1.0  0.95444  0.37437  0.86621  1.0000
  C   C2225     1.0  0.84198  0.28289  0.87677  1.0000
  H   H1768     1.0  0.94952  0.28960  0.91681  1.0000
  H   H1769     1.0  0.87014  0.04544  0.90934  1.0000
  H   H1770     1.0  0.71865  0.01551  0.91574  1.0000
  C   C2226     1.0  0.83472  0.16480  0.90345  1.0000
  H   H1771     1.0  0.83173  0.29585  0.88151  1.0000
  C   C2227     1.0  0.79979  0.10282  0.90694  1.0000
  C   C2228     1.0  0.81802  0.08155  0.94820  1.0000
  C   C2229     1.0  0.83538  0.11169  0.94493  1.0000
  C   C2230     1.0  0.86682  0.12492  0.94681  1.0000
  C   C2231     1.0  0.72856  0.04587  0.89336  1.0000
  C   C2232     1.0  0.84825  0.03924  0.91321  1.0000
  H   H1772     1.0  0.87809  0.23524  0.86030  1.0000
  H   H1773     1.0  0.84509  0.13522  0.79543  1.0000
  C   C2233     1.0  0.75015  0.06095  0.92094  1.0000
  H   H1774     1.0  0.85451  0.00862  0.92558  1.0000
  C   C2234     1.0  0.71235  0.03101  0.88316  1.0000
  S   S294      1.0  0.71868  0.00038  0.95581  1.0000
  C   C2235     1.0  0.88350  0.11831  0.81748  1.0000
  H   H1775     1.0  0.77086  0.01795  0.92787  1.0000
  C   C2236     1.0  0.86018  0.12276  0.81161  1.0000
  H   H1776     1.0  0.77688  0.10511  0.92896  1.0000
  C   C2237     1.0  0.73591  0.08237  0.93819  1.0000
  C   C2238     1.0  0.72412  0.01573  0.87554  1.0000
  H   H1777     1.0  0.91739  0.20080  0.90047  1.0000
  P   P75       1.0  0.77683  0.06327  0.90962  1.0000
  H   H1778     1.0  0.89753  0.19460  0.79690  1.0000
  C   C2239     1.0  0.86331  0.13166  0.79984  1.0000
  C   C2240     1.0  0.83735  0.24102  0.86363  1.0000
  C   C2241     1.0  0.83947  0.01846  0.92233  1.0000
  H   H1779     1.0  0.82448  0.12486  0.94091  1.0000
  H   H1780     1.0  0.83963  0.11931  0.81618  1.0000
  H   H1781     1.0  0.77073  0.10714  0.89305  1.0000
  P   P76       1.0  0.92618  0.28418  0.87382  1.0000
  C   C2242     1.0  0.86837  0.24903  0.86478  1.0000
  C   C2243     1.0  0.82611  0.11852  0.91378  1.0000
  S   S295      1.0  0.94611  0.24005  0.95219  1.0000
  Fe  Fe143     1.0  0.93607  0.19090  0.94847  1.0000
  H   H1782     1.0  0.69365  0.05412  0.94590  1.0000
  C   C2244     1.0  0.70927  0.05621  0.93888  1.0000
  H   H1783     1.0  0.78958  0.02856  0.89031  1.0000
  H   H1784     1.0  0.93559  0.23446  0.91829  1.0000
  C   C2245     1.0  0.93664  0.34327  0.86713  1.0000
  C   C2246     1.0  0.75629  0.08479  0.92925  1.0000
  H   H1785     1.0  0.80015  0.25179  0.86869  1.0000
  H   H1786     1.0  0.94535  0.31156  0.89773  1.0000
  C   C2247     1.0  0.82418  0.25802  0.86958  1.0000
  C   C2248     1.0  0.92995  0.26871  0.88789  1.0000
  H   H1787     1.0  0.69028  0.03066  0.88126  1.0000
  C   C2249     1.0  0.70310  0.03232  0.93069  1.0000
  H   H1788     1.0  0.86350  0.16127  0.91752  1.0000
  H   H1789     1.0  0.82350  0.22152  0.85816  1.0000
  H   H1790     1.0  0.83320  0.10709  0.92056  1.0000
  H   H1791     1.0  0.74094  0.10064  0.94468  1.0000
  H   H1792     1.0  0.91348  0.22239  0.88114  1.0000
  C   C2250     1.0  0.75210  0.01520  0.87813  1.0000
  H   H1793     1.0  0.71896  0.05753  0.89916  1.0000
  C   C2251     1.0  0.76823  0.02973  0.88841  1.0000
  H   H1794     1.0  0.71109  0.00357  0.86780  1.0000
  C   C2252     1.0  0.79108  0.11854  0.89834  1.0000
  H   H1795     1.0  0.84812  0.18876  0.90220  1.0000
  H   H1796     1.0  0.91876  0.28459  0.84819  1.0000
  H   H1797     1.0  0.79390  0.07149  0.94667  1.0000
  H   H1798     1.0  0.88647  0.31000  0.88369  1.0000
  H   H1799     1.0  0.93382  0.13481  0.79542  1.0000
  C   C2253     1.0  0.94058  0.26921  0.86184  1.0000
  C   C2254     1.0  0.82901  0.05240  0.90925  1.0000
  C   C2255     1.0  0.79217  0.02393  0.92355  1.0000
  Fe  Fe144     1.0  0.76208  0.99389  0.95647  1.0000
  H   H1800     1.0  0.88107  0.11142  0.82660  1.0000
  C   C2256     1.0  0.93363  0.27345  0.85010  1.0000
  H   H1801     1.0  0.80483  0.99483  0.93459  1.0000
  H   H1802     1.0  0.91463  0.33379  0.86284  1.0000
  C   C2257     1.0  0.92343  0.22495  0.89978  1.0000
  C   C2258     1.0  0.81138  0.01064  0.92740  1.0000
  C   C2259     1.0  0.91315  0.13159  0.79978  1.0000
  H   H1803     1.0  0.94618  0.38871  0.86134  1.0000
  H   H1804     1.0  0.76091  0.00293  0.87228  1.0000
  H   H1805     1.0  0.64919  0.98856  0.79611  1.0000
  H   H1806     1.0  0.87444  0.06472  0.95944  1.0000
  H   H1807     1.0  0.90487  0.11768  0.95352  1.0000
  C   C2260     1.0  0.86340  0.07781  0.95541  1.0000
  H   H1808     1.0  0.85952  0.20535  0.95829  1.0000
  H   H1809     1.0  0.95200  0.41926  0.82725  1.0000
  H   H1810     1.0  0.95014  0.36715  0.82551  1.0000
  S   S296      1.0  0.81189  0.02612  0.95737  1.0000
  C   C2261     1.0  0.77152  0.52586  0.03184  1.0000
  C   C2262     1.0  0.58104  0.67809  0.10325  1.0000
  H   H1811     1.0  0.91743  0.64127  0.02491  1.0000
  Fe  Fe145     1.0  0.69359  0.65385  0.97397  1.0000
  S   S297      1.0  0.68435  0.61615  0.98751  1.0000
  S   S298      1.0  0.72289  0.70360  0.97693  1.0000
  H   H1812     1.0  0.78566  0.62142  0.05648  1.0000
  S   S299      1.0  0.88617  0.52328  0.05959  1.0000
  C   C2263     1.0  0.50311  0.96599  0.04656  1.0000
  S   S300      1.0  0.90916  0.52428  0.08745  1.0000
  Fe  Fe146     1.0  0.92280  0.51451  0.06936  1.0000
  H   H1813     1.0  0.60132  0.53165  0.09794  1.0000
  Fe  Fe147     1.0  0.87546  0.53682  0.07751  1.0000
  S   S301      1.0  0.83215  0.53249  0.08615  1.0000
  S   S302      1.0  0.90696  0.58546  0.07595  1.0000
  S   S303      1.0  0.91931  0.60231  0.04338  1.0000
  C   C2264     1.0  0.87116  0.65178  0.05106  1.0000
  S   S304      1.0  0.74979  0.96647  0.97293  1.0000
  Fe  Fe148     1.0  0.65141  0.56753  0.05622  1.0000
  S   S305      1.0  0.63566  0.51684  0.05390  1.0000
  S   S306      1.0  0.65290  0.60305  0.04262  1.0000
  Fe  Fe149     1.0  0.66690  0.56623  0.08312  1.0000
  S   S307      1.0  0.65327  0.51558  0.08239  1.0000
  S   S308      1.0  0.69205  0.59961  0.09843  1.0000
  Fe  Fe150     1.0  0.67704  0.52364  0.06501  1.0000
  S   S309      1.0  0.70874  0.50310  0.05859  1.0000
  Fe  Fe151     1.0  0.61270  0.51254  0.07143  1.0000
  P   P77       1.0  0.77980  0.58317  0.98567  1.0000
  S   S310      1.0  0.69365  0.57416  0.06644  1.0000
  S   S311      1.0  0.62547  0.56329  0.07298  1.0000
  C   C2265     1.0  0.68558  0.60440  0.11368  1.0000
  H   H1814     1.0  0.94820  0.69631  0.09682  1.0000
  S   S312      1.0  0.88296  0.65505  0.96401  1.0000
  C   C2266     1.0  0.71157  0.87694  0.12590  1.0000
  H   H1815     1.0  0.62933  0.63957  0.05906  1.0000
  H   H1816     1.0  0.63994  0.85098  0.01601  1.0000
  C   C2267     1.0  0.92572  0.64949  0.10145  1.0000
  C   C2268     1.0  0.90168  0.64000  0.12047  1.0000
  H   H1817     1.0  0.75790  0.89069  0.12075  1.0000
  C   C2269     1.0  0.80007  0.52772  0.07743  1.0000
  C   C2270     1.0  0.79249  0.50939  0.06718  1.0000
  C   C2271     1.0  0.85282  0.48336  0.10741  1.0000
  C   C2272     1.0  0.74438  0.51414  0.06564  1.0000
  C   C2273     1.0  0.75260  0.53364  0.07558  1.0000
  C   C2274     1.0  0.78033  0.54029  0.08147  1.0000
  C   C2275     1.0  0.79158  0.95202  0.99782  1.0000
  H   H1818     1.0  0.78454  0.63049  0.01858  1.0000
  H   H1819     1.0  0.55159  0.61056  0.08784  1.0000
  H   H1820     1.0  0.93252  0.64099  0.09357  1.0000
  C   C2276     1.0  0.62036  0.64028  0.07768  1.0000
  H   H1821     1.0  0.70446  0.65572  0.08261  1.0000
  H   H1822     1.0  0.71573  0.84509  0.05040  1.0000
  C   C2277     1.0  0.67658  0.61360  0.00293  1.0000
  C   C2278     1.0  0.67162  0.63624  0.00928  1.0000
  C   C2279     1.0  0.66446  0.63256  0.02137  1.0000
  C   C2280     1.0  0.66244  0.60640  0.02735  1.0000
  C   C2281     1.0  0.66816  0.58410  0.02108  1.0000
  C   C2282     1.0  0.67500  0.58765  0.00895  1.0000
  H   H1823     1.0  0.67269  0.65631  0.00481  1.0000
  H   H1824     1.0  0.66018  0.65003  0.02611  1.0000
  H   H1825     1.0  0.66683  0.56391  0.02551  1.0000
  H   H1826     1.0  0.67869  0.56997  0.00412  1.0000
  H   H1827     1.0  0.74419  0.66218  0.99692  1.0000
  H   H1828     1.0  0.48544  0.94761  0.08207  1.0000
  C   C2283     1.0  0.81353  0.57707  0.98883  1.0000
  C   C2284     1.0  0.78514  0.62730  0.08669  1.0000
  C   C2285     1.0  0.82375  0.53338  0.03376  1.0000
  C   C2286     1.0  0.76050  0.62772  0.99303  1.0000
  C   C2287     1.0  0.78890  0.62554  0.03744  1.0000
  H   H1829     1.0  0.88007  0.66663  0.04372  1.0000
  H   H1830     1.0  0.65607  0.69701  0.10598  1.0000
  C   C2288     1.0  0.63878  0.64312  0.06799  1.0000
  C   C2289     1.0  0.90907  0.62923  0.10995  1.0000
  H   H1831     1.0  0.84352  0.63350  0.11143  1.0000
  H   H1832     1.0  0.71693  0.64176  0.03956  1.0000
  C   C2290     1.0  0.79172  0.68168  0.99347  1.0000
  H   H1833     1.0  0.59674  0.63459  0.07602  1.0000
  C   C2291     1.0  0.66916  0.64909  0.06975  1.0000
  C   C2292     1.0  0.72954  0.80758  0.00052  1.0000
  C   C2293     1.0  0.70314  0.78497  0.99575  1.0000
  C   C2294     1.0  0.67656  0.78955  0.99537  1.0000
  C   C2295     1.0  0.67632  0.81683  0.99966  1.0000
  C   C2296     1.0  0.70281  0.83979  0.00442  1.0000
  C   C2297     1.0  0.72937  0.83482  0.00491  1.0000
  P   P78       1.0  0.70324  0.87556  0.00976  1.0000
  C   C2298     1.0  0.70100  0.87657  0.02566  1.0000
  C   C2299     1.0  0.73793  0.90556  0.00520  1.0000
  C   C2300     1.0  0.74933  0.90381  0.99402  1.0000
  H   H1834     1.0  0.51242  0.93837  0.10424  1.0000
  C   C2301     1.0  0.84422  0.63919  0.02430  1.0000
  H   H1835     1.0  0.49586  0.94651  0.05222  1.0000
  S   S313      1.0  0.95120  0.63737  0.96516  1.0000
  C   C2302     1.0  0.70970  0.85766  0.03268  1.0000
  H   H1836     1.0  0.70584  0.94609  0.11849  1.0000
  C   C2303     1.0  0.69132  0.89730  0.03115  1.0000
  C   C2304     1.0  0.67122  0.88099  0.00369  1.0000
  C   C2305     1.0  0.67427  0.90033  0.99421  1.0000
  C   C2306     1.0  0.64928  0.90479  0.98990  1.0000
  C   C2307     1.0  0.62112  0.88981  0.99490  1.0000
  C   C2308     1.0  0.61785  0.87043  0.00431  1.0000
  C   C2309     1.0  0.64279  0.86605  0.00870  1.0000
  H   H1837     1.0  0.75024  0.80416  0.00059  1.0000
  H   H1838     1.0  0.70335  0.76414  0.99206  1.0000
  H   H1839     1.0  0.65637  0.77219  0.99137  1.0000
  H   H1840     1.0  0.65561  0.82001  0.99897  1.0000
  H   H1841     1.0  0.75012  0.85224  0.00845  1.0000
  H   H1842     1.0  0.71665  0.54610  0.02071  1.0000
  H   H1843     1.0  0.67238  0.65059  0.09971  1.0000
  C   C2310     1.0  0.69961  0.88065  0.05040  1.0000
  H   H1844     1.0  0.52546  0.54061  0.11374  1.0000
  C   C2311     1.0  0.78047  0.95391  0.00898  1.0000
  H   H1845     1.0  0.71726  0.84151  0.02869  1.0000
  H   H1846     1.0  0.68456  0.91220  0.02592  1.0000
  H   H1847     1.0  0.69583  0.91233  0.99017  1.0000
  H   H1848     1.0  0.65181  0.92024  0.98276  1.0000
  S   S314      1.0  0.67570  0.96461  0.10016  1.0000
  H   H1849     1.0  0.59601  0.85885  0.00821  1.0000
  C   C2312     1.0  0.94932  0.64164  0.01174  1.0000
  H   H1850     1.0  0.88749  0.56655  0.99566  1.0000
  H   H1851     1.0  0.92995  0.56389  0.11593  1.0000
  C   C2313     1.0  0.70889  0.85965  0.04502  1.0000
  C   C2314     1.0  0.60383  0.94721  0.01549  1.0000
  C   C2315     1.0  0.69834  0.52919  0.11029  1.0000
  H   H1852     1.0  0.76879  0.62535  0.07976  1.0000
  C   C2316     1.0  0.63229  0.64367  0.08926  1.0000
  C   C2317     1.0  0.86964  0.70967  0.12319  1.0000
  C   C2318     1.0  0.68121  0.65237  0.08121  1.0000
  H   H1853     1.0  0.80614  0.65279  0.12433  1.0000
  H   H1854     1.0  0.62371  0.95147  0.04455  1.0000
  H   H1855     1.0  0.74922  0.60894  0.96932  1.0000
  H   H1856     1.0  0.82248  0.66080  0.07781  1.0000
  H   H1857     1.0  0.80750  0.49952  0.06402  1.0000
  C   C2319     1.0  0.66286  0.64952  0.09093  1.0000
  H   H1858     1.0  0.68305  0.65017  0.06221  1.0000
  C   C2320     1.0  0.81659  0.67573  0.99045  1.0000
  H   H1859     1.0  0.69935  0.88251  0.05994  1.0000
  C   C2321     1.0  0.72362  0.55399  0.11466  1.0000
  C   C2322     1.0  0.62934  0.65565  0.11493  1.0000
  C   C2323     1.0  0.83837  0.58937  0.98144  1.0000
  P   P79       1.0  0.60787  0.63644  0.10182  1.0000
  C   C2324     1.0  0.73115  0.89800  0.10687  1.0000
  C   C2325     1.0  0.84828  0.66958  0.02306  1.0000
  H   H1860     1.0  0.73845  0.64001  0.02002  1.0000
  C   C2326     1.0  0.83357  0.60666  0.05954  1.0000
  Fe  Fe152     1.0  0.94116  0.57274  0.08501  1.0000
  H   H1861     1.0  0.75824  0.48714  0.05376  1.0000
  C   C2327     1.0  0.57887  0.64997  0.09868  1.0000
  S   S315      1.0  0.74496  0.88740  0.96269  1.0000
  C   C2328     1.0  0.55854  0.68832  0.10066  1.0000
  C   C2329     1.0  0.53373  0.67061  0.09350  1.0000
  C   C2330     1.0  0.53135  0.64261  0.08893  1.0000
  H   H1862     1.0  0.51637  0.67862  0.09146  1.0000
  C   C2331     1.0  0.55377  0.63230  0.09151  1.0000
  C   C2332     1.0  0.93992  0.61292  0.03008  1.0000
  H   H1863     1.0  0.79392  0.70491  0.99438  1.0000
  C   C2333     1.0  0.81529  0.64731  0.08564  1.0000
  H   H1864     1.0  0.89492  0.71974  0.96475  1.0000
  C   C2334     1.0  0.49718  0.96987  0.07845  1.0000
  H   H1865     1.0  0.90315  0.60523  0.10850  1.0000
  H   H1866     1.0  0.94460  0.65702  0.00604  1.0000
  H   H1867     1.0  0.86035  0.74599  0.96273  1.0000
  H   H1868     1.0  0.86854  0.71023  0.01297  1.0000
  C   C2335     1.0  0.83234  0.56476  0.03463  1.0000
  C   C2336     1.0  0.74484  0.56130  0.00552  1.0000
  H   H1869     1.0  0.78631  0.55490  0.08925  1.0000
  C   C2337     1.0  0.76374  0.65765  0.99487  1.0000
  Fe  Fe153     1.0  0.93420  0.67438  0.96442  1.0000
  C   C2338     1.0  0.87916  0.67407  0.00598  1.0000
  C   C2339     1.0  0.70566  0.63044  0.11994  1.0000
  H   H1870     1.0  0.62717  0.58732  0.09674  1.0000
  H   H1871     1.0  0.79693  0.55084  0.00458  1.0000
  H   H1872     1.0  0.87574  0.70053  0.11537  1.0000
  C   C2340     1.0  0.91079  0.67131  0.12245  1.0000
  H   H1873     1.0  0.75238  0.59411  0.09724  1.0000
  H   H1874     1.0  0.73266  0.78210  0.96646  1.0000
  H   H1875     1.0  0.89261  0.68737  0.99887  1.0000
  C   C2341     1.0  0.59041  0.59595  0.10400  1.0000
  C   C2342     1.0  0.56197  0.58255  0.10913  1.0000
  C   C2343     1.0  0.83622  0.64955  0.09461  1.0000
  C   C2344     1.0  0.60486  0.57746  0.10035  1.0000
  H   H1876     1.0  0.78661  0.48957  0.03194  1.0000
  C   C2345     1.0  0.95799  0.49427  0.10479  1.0000
  C   C2346     1.0  0.86562  0.68688  0.01392  1.0000
  C   C2347     1.0  0.77588  0.60941  0.09667  1.0000
  H   H1877     1.0  0.72747  0.52727  0.97816  1.0000
  C   C2348     1.0  0.73557  0.88841  0.11807  1.0000
  C   C2349     1.0  0.85820  0.62666  0.01635  1.0000
  C   C2350     1.0  0.59044  0.54589  0.10118  1.0000
  C   C2351     1.0  0.86486  0.58551  0.98387  1.0000
  C   C2352     1.0  0.81555  0.56052  0.99867  1.0000
  C   C2353     1.0  0.87541  0.64400  0.00720  1.0000
  C   C2354     1.0  0.78528  0.62151  0.98983  1.0000
  C   C2355     1.0  0.67860  0.88420  0.11103  1.0000
  H   H1878     1.0  0.73736  0.88478  0.98803  1.0000
  H   H1879     1.0  0.85643  0.60380  0.01726  1.0000
  C   C2356     1.0  0.66794  0.70048  0.12446  1.0000
  C   C2357     1.0  0.56174  0.53261  0.10590  1.0000
  C   C2358     1.0  0.85139  0.72145  0.96222  1.0000
  C   C2359     1.0  0.73702  0.63733  0.03896  1.0000
  S   S316      1.0  0.66832  0.74547  0.96738  1.0000
  C   C2360     1.0  0.75041  0.63211  0.04919  1.0000
  H   H1880     1.0  0.54018  0.96608  0.07792  1.0000
  C   C2361     1.0  0.84356  0.62635  0.04999  1.0000
  C   C2362     1.0  0.53443  0.94018  0.10171  1.0000
  H   H1881     1.0  0.83289  0.64202  0.98595  1.0000
  H   H1882     1.0  0.78469  0.92534  0.98172  1.0000
  C   C2363     1.0  0.94503  0.58379  0.12085  1.0000
  H   H1883     1.0  0.88639  0.63429  0.00115  1.0000
  C   C2364     1.0  0.56071  0.96481  0.10565  1.0000
  H   H1884     1.0  0.68331  0.49286  0.98880  1.0000
  C   C2365     1.0  0.79683  0.61118  0.10564  1.0000
  C   C2366     1.0  0.93468  0.68064  0.10332  1.0000
  H   H1885     1.0  0.72404  0.64735  0.11534  1.0000
  C   C2367     1.0  0.61393  0.95577  0.03651  1.0000
  C   C2368     1.0  0.65149  0.68545  0.11432  1.0000
  C   C2369     1.0  0.70064  0.51184  0.99349  1.0000
  H   H1886     1.0  0.55044  0.50809  0.10626  1.0000
  H   H1887     1.0  0.64675  0.56230  0.11523  1.0000
  H   H1888     1.0  0.73726  0.54290  0.07892  1.0000
  H   H1889     1.0  0.73830  0.60957  0.99362  1.0000
  C   C2370     1.0  0.72991  0.50307  0.10519  1.0000
  C   C2371     1.0  0.71955  0.54178  0.01148  1.0000
  H   H1890     1.0  0.84316  0.59688  0.07723  1.0000
  H   H1891     1.0  0.69949  0.90464  0.09491  1.0000
  P   P80       1.0  0.78521  0.58751  0.11842  1.0000
  H   H1892     1.0  0.68406  0.91616  0.04758  1.0000
  C   C2372     1.0  0.79335  0.51393  0.03230  1.0000
  H   H1893     1.0  0.85965  0.66484  0.09375  1.0000
  H   H1894     1.0  0.76168  0.58044  0.01026  1.0000
  C   C2373     1.0  0.92733  0.69155  0.11379  1.0000
  H   H1895     1.0  0.67771  0.50218  0.01008  1.0000
  C   C2374     1.0  0.80885  0.67300  0.95989  1.0000
  H   H1896     1.0  0.81282  0.58631  0.05883  1.0000
  P   P81       1.0  0.93158  0.47551  0.11615  1.0000
  H   H1897     1.0  0.62571  0.92481  0.02597  1.0000
  C   C2375     1.0  0.78007  0.55725  0.03273  1.0000
  H   H1898     1.0  0.81961  0.63380  0.95994  1.0000
  C   C2376     1.0  0.75396  0.93059  0.01272  1.0000
  C   C2377     1.0  0.81062  0.57700  0.03393  1.0000
  C   C2378     1.0  0.85069  0.61259  0.07002  1.0000
  C   C2379     1.0  0.68291  0.87456  0.12223  1.0000
  H   H1899     1.0  0.81193  0.97018  0.99484  1.0000
  C   C2380     1.0  0.72580  0.53148  0.98748  1.0000
  C   C2381     1.0  0.82704  0.63160  0.10459  1.0000
  H   H1900     1.0  0.67646  0.53018  0.11025  1.0000
  H   H1901     1.0  0.85594  0.57945  0.03616  1.0000
  C   C2382     1.0  0.66215  0.58263  0.11982  1.0000
  C   C2383     1.0  0.69747  0.51705  0.00547  1.0000
  Fe  Fe154     1.0  0.72948  0.92574  0.96065  1.0000
  H   H1902     1.0  0.86662  0.55322  0.11149  1.0000
  C   C2384     1.0  0.77621  0.92678  0.99042  1.0000
  C   C2385     1.0  0.87797  0.63811  0.07105  1.0000
  C   C2386     1.0  0.77612  0.62600  0.04846  1.0000
  H   H1903     1.0  0.91002  0.67664  0.06220  1.0000
  C   C2387     1.0  0.75229  0.55357  0.11436  1.0000
  C   C2388     1.0  0.59138  0.96876  0.01545  1.0000
  H   H1904     1.0  0.56603  0.90194  0.08498  1.0000
  C   C2389     1.0  0.87103  0.70667  0.96330  1.0000
  H   H1905     1.0  0.82765  0.57050  0.10531  1.0000
  C   C2390     1.0  0.70272  0.89611  0.10340  1.0000
  C   C2391     1.0  0.76457  0.50238  0.06139  1.0000
  C   C2392     1.0  0.77151  0.57803  0.96996  1.0000
  C   C2393     1.0  0.53635  0.91764  0.09423  1.0000
  H   H1906     1.0  0.77700  0.52692  0.10888  1.0000
  C   C2394     1.0  0.83198  0.56926  0.11466  1.0000
  C   C2395     1.0  0.75521  0.52779  0.10962  1.0000
  H   H1907     1.0  0.89159  0.64217  0.07905  1.0000
  H   H1908     1.0  0.76268  0.56581  0.03290  1.0000
  H   H1909     1.0  0.74782  0.51071  0.03129  1.0000
  P   P82       1.0  0.82195  0.61734  0.03628  1.0000
  H   H1910     1.0  0.89117  0.50732  0.11878  1.0000
  H   H1911     1.0  0.74049  0.63235  0.05768  1.0000
  C   C2396     1.0  0.56446  0.91937  0.09075  1.0000
  H   H1912     1.0  0.84194  0.72674  0.11321  1.0000
  C   C2397     1.0  0.72280  0.84822  0.96434  1.0000
  C   C2398     1.0  0.69085  0.89949  0.04345  1.0000
  H   H1913     1.0  0.83804  0.67990  0.02917  1.0000
  C   C2399     1.0  0.86673  0.56909  0.99367  1.0000
  H   H1914     1.0  0.84069  0.52421  0.03455  1.0000
  H   H1915     1.0  0.51601  0.89893  0.09108  1.0000
  C   C2400     1.0  0.77523  0.63081  0.02719  1.0000
  C   C2401     1.0  0.59066  0.94370  0.09470  1.0000
  H   H1916     1.0  0.51217  0.62888  0.08334  1.0000
  H   H1917     1.0  0.84358  0.54377  0.00863  1.0000
  C   C2402     1.0  0.84200  0.55637  0.00100  1.0000
  C   C2403     1.0  0.74805  0.55649  0.99345  1.0000
  C   C2404     1.0  0.74928  0.63648  0.02795  1.0000
  Fe  Fe155     1.0  0.92039  0.57178  0.05860  1.0000
  C   C2405     1.0  0.72102  0.79701  0.96593  1.0000
  H   H1918     1.0  0.88412  0.59578  0.97824  1.0000
  S   S317      1.0  0.95768  0.56284  0.06750  1.0000
  C   C2406     1.0  0.85406  0.55931  0.11815  1.0000
  H   H1919     1.0  0.74611  0.93236  0.02146  1.0000
  H   H1920     1.0  0.83741  0.60223  0.97381  1.0000
  C   C2407     1.0  0.81347  0.64580  0.98870  1.0000
  C   C2408     1.0  0.62392  0.64120  0.12584  1.0000
  C   C2409     1.0  0.88826  0.65760  0.06157  1.0000
  C   C2410     1.0  0.70149  0.50378  0.10550  1.0000
  H   H1921     1.0  0.56039  0.71005  0.10419  1.0000
  C   C2411     1.0  0.68962  0.78494  0.96612  1.0000
  H   H1922     1.0  0.74991  0.90762  0.10099  1.0000
  H   H1923     1.0  0.68203  0.48495  0.10178  1.0000
  H   H1924     1.0  0.65679  0.88358  0.10842  1.0000
  H   H1925     1.0  0.83808  0.69437  0.98897  1.0000
  H   H1926     1.0  0.60192  0.89342  0.99149  1.0000
  H   H1927     1.0  0.59998  0.69224  0.10880  1.0000
  S   S318      1.0  0.65914  0.66272  0.96297  1.0000
  C   C2412     1.0  0.61500  0.94063  0.02602  1.0000
  H   H1928     1.0  0.73253  0.48377  0.10114  1.0000
  C   C2413     1.0  0.93387  0.63259  0.02243  1.0000
  Fe  Fe156     1.0  0.69034  0.71225  0.96469  1.0000
  C   C2414     1.0  0.82019  0.70468  0.96061  1.0000
  H   H1929     1.0  0.93534  0.71585  0.11531  1.0000
  H   H1930     1.0  0.61251  0.94488  0.09215  1.0000
  H   H1931     1.0  0.67988  0.85128  0.96412  1.0000
  Fe  Fe157     1.0  0.74540  0.69920  0.96016  1.0000
  C   C2415     1.0  0.54766  0.55096  0.11002  1.0000
  C   C2416     1.0  0.67483  0.80467  0.96560  1.0000
  C   C2417     1.0  0.49822  0.97218  0.12165  1.0000
  H   H1932     1.0  0.55068  0.59643  0.11228  1.0000
  C   C2418     1.0  0.58880  0.96655  0.10196  1.0000
  C   C2419     1.0  0.81518  0.57682  0.12312  1.0000
  C   C2420     1.0  0.73748  0.82854  0.96528  1.0000
  C   C2421     1.0  0.88053  0.48802  0.11279  1.0000
  H   H1933     1.0  0.73181  0.83131  0.12199  1.0000
  H   H1934     1.0  0.59371  0.96086  0.12541  1.0000
  H   H1935     1.0  0.84198  0.49854  0.10933  1.0000
  H   H1936     1.0  0.71783  0.96363  0.00277  1.0000
  H   H1937     1.0  0.60593  0.93650  0.00727  1.0000
  Fe  Fe158     1.0  0.70557  0.97044  0.97172  1.0000
  H   H1938     1.0  0.79068  0.54492  0.96740  1.0000
  C   C2422     1.0  0.46852  0.96947  0.12041  1.0000
  S   S319      1.0  0.56440  0.48140  0.07693  1.0000
  H   H1939     1.0  0.65053  0.79547  0.96588  1.0000
  H   H1940     1.0  0.72091  0.57393  0.11790  1.0000
  H   H1941     1.0  0.68512  0.72334  0.12393  1.0000
  C   C2423     1.0  0.85961  0.67498  0.96252  1.0000
  C   C2424     1.0  0.69136  0.83624  0.96465  1.0000
  C   C2425     1.0  0.75643  0.59379  0.96435  1.0000
  S   S320      1.0  0.93883  0.47723  0.06397  1.0000
  H   H1942     1.0  0.73932  0.78385  0.12235  1.0000
  C   C2426     1.0  0.85023  0.72441  0.12191  1.0000
  C   C2427     1.0  0.69471  0.95882  0.12271  1.0000
  H   H1943     1.0  0.72197  0.96442  0.02476  1.0000
  H   H1944     1.0  0.54433  0.96262  0.04230  1.0000
  H   H1945     1.0  0.76180  0.83773  0.96543  1.0000
  C   C2428     1.0  0.82853  0.65828  0.96068  1.0000
  C   C2429     1.0  0.77972  0.55792  0.96323  1.0000
  S   S321      1.0  0.68386  0.92722  0.96061  1.0000
  C   C2430     1.0  0.67946  0.97222  0.11572  1.0000
  C   C2431     1.0  0.77108  0.57910  0.23703  1.0000
  S   S322      1.0  0.89866  0.66229  0.19418  1.0000
  H   H1946     1.0  0.46386  0.54656  0.19589  1.0000
  H   H1947     1.0  0.65781  0.88134  0.22640  1.0000
  H   H1948     1.0  0.87596  0.59150  0.27562  1.0000
  H   H1949     1.0  0.92543  0.74593  0.20345  1.0000
  H   H1950     1.0  0.78403  0.58470  0.20308  1.0000
  C   C2432     1.0  0.73521  0.54201  0.25686  1.0000
  Fe  Fe159     1.0  0.72967  0.93111  0.18603  1.0000
  S   S323      1.0  0.74554  0.89219  0.18612  1.0000
  S   S324      1.0  0.68283  0.93002  0.18462  1.0000
  Fe  Fe160     1.0  0.69970  0.65262  0.16804  1.0000
  S   S325      1.0  0.72803  0.70197  0.16521  1.0000
  S   S326      1.0  0.67407  0.61634  0.15377  1.0000
  Fe  Fe161     1.0  0.71095  0.65966  0.19551  1.0000
  S   S327      1.0  0.74084  0.70972  0.19435  1.0000
  S   S328      1.0  0.70276  0.62878  0.21174  1.0000
  Fe  Fe162     1.0  0.70631  0.71197  0.18124  1.0000
  S   S329      1.0  0.68514  0.74690  0.18082  1.0000
  Fe  Fe163     1.0  0.76036  0.69610  0.17840  1.0000
  S   S330      1.0  0.80961  0.71675  0.17352  1.0000
  S   S331      1.0  0.67508  0.66240  0.18326  1.0000
  S   S332      1.0  0.73327  0.64618  0.18035  1.0000
  Fe  Fe164     1.0  0.65191  0.58478  0.28010  1.0000
  S   S333      1.0  0.67127  0.54960  0.28047  1.0000
  S   S334      1.0  0.65576  0.61786  0.26505  1.0000
  C   C2433     1.0  0.79067  0.64005  0.13099  1.0000
  P   P83       1.0  0.90460  0.68640  0.13639  1.0000
  H   H1951     1.0  0.72826  0.66657  0.27183  1.0000
  C   C2434     1.0  0.50581  0.54219  0.19340  1.0000
  H   H1952     1.0  0.66038  0.56751  0.17239  1.0000
  H   H1953     1.0  0.90409  0.50277  0.15520  1.0000
  S   S335      1.0  0.90611  0.53173  0.28146  1.0000
  H   H1954     1.0  0.81444  0.62973  0.26440  1.0000
  C   C2435     1.0  0.74718  0.60601  0.27070  1.0000
  C   C2436     1.0  0.64617  0.57198  0.17877  1.0000
  C   C2437     1.0  0.84387  0.56549  0.13865  1.0000
  H   H1955     1.0  0.85691  0.60173  0.17306  1.0000
  H   H1956     1.0  0.64656  0.72703  0.20100  1.0000
  C   C2438     1.0  0.60418  0.58511  0.18304  1.0000
  C   C2439     1.0  0.59288  0.54783  0.23376  1.0000
  H   H1957     1.0  0.73864  0.85043  0.20998  1.0000
  C   C2440     1.0  0.68966  0.62651  0.22656  1.0000
  C   C2441     1.0  0.68751  0.65111  0.23260  1.0000
  C   C2442     1.0  0.67717  0.64801  0.24433  1.0000
  C   C2443     1.0  0.66983  0.62066  0.25038  1.0000
  C   C2444     1.0  0.67240  0.59620  0.24440  1.0000
  C   C2445     1.0  0.68158  0.59896  0.23252  1.0000
  H   H1958     1.0  0.69368  0.67251  0.22823  1.0000
  H   H1959     1.0  0.67511  0.66705  0.24880  1.0000
  H   H1960     1.0  0.66645  0.57487  0.24882  1.0000
  H   H1961     1.0  0.68215  0.57945  0.22787  1.0000
  C   C2446     1.0  0.70242  0.63470  0.13214  1.0000
  C   C2447     1.0  0.67919  0.61273  0.13831  1.0000
  C   C2448     1.0  0.65902  0.58680  0.13203  1.0000
  H   H1962     1.0  0.71799  0.65488  0.13678  1.0000
  H   H1963     1.0  0.64092  0.56964  0.13666  1.0000
  C   C2449     1.0  0.75450  0.60643  0.25873  1.0000
  H   H1964     1.0  0.57281  0.64203  0.19256  1.0000
  H   H1965     1.0  0.61709  0.57787  0.16548  1.0000
  C   C2450     1.0  0.81998  0.61019  0.26499  1.0000
  C   C2451     1.0  0.85498  0.58888  0.27130  1.0000
  C   C2452     1.0  0.80017  0.58168  0.26040  1.0000
  C   C2453     1.0  0.70227  0.78731  0.18243  1.0000
  C   C2454     1.0  0.73335  0.80334  0.18417  1.0000
  C   C2455     1.0  0.74602  0.83535  0.18518  1.0000
  C   C2456     1.0  0.72789  0.85185  0.18453  1.0000
  C   C2457     1.0  0.69678  0.83588  0.18276  1.0000
  C   C2458     1.0  0.68411  0.80381  0.18171  1.0000
  H   H1966     1.0  0.74768  0.79109  0.18469  1.0000
  H   H1967     1.0  0.77011  0.84742  0.18652  1.0000
  H   H1968     1.0  0.68254  0.84820  0.18217  1.0000
  H   H1969     1.0  0.66006  0.79173  0.18028  1.0000
  C   C2459     1.0  0.83559  0.56054  0.26663  1.0000
  H   H1970     1.0  0.70717  0.95102  0.14037  1.0000
  H   H1971     1.0  0.60823  0.95457  0.14570  1.0000
  C   C2460     1.0  0.80156  0.67003  0.22745  1.0000
  C   C2461     1.0  0.87437  0.67677  0.18757  1.0000
  C   C2462     1.0  0.84334  0.66193  0.18946  1.0000
  C   C2463     1.0  0.82327  0.67388  0.18516  1.0000
  C   C2464     1.0  0.83414  0.70089  0.17894  1.0000
  C   C2465     1.0  0.86518  0.71564  0.17695  1.0000
  C   C2466     1.0  0.88526  0.70347  0.18115  1.0000
  H   H1972     1.0  0.83483  0.64108  0.19430  1.0000
  H   H1973     1.0  0.79944  0.66234  0.18672  1.0000
  H   H1974     1.0  0.87375  0.73678  0.17230  1.0000
  H   H1975     1.0  0.90917  0.71511  0.17970  1.0000
  H   H1976     1.0  0.74819  0.58868  0.27644  1.0000
  C   C2467     1.0  0.68579  0.49047  0.26424  1.0000
  C   C2468     1.0  0.84313  0.65724  0.22209  1.0000
  C   C2469     1.0  0.80835  0.55693  0.26114  1.0000
  H   H1977     1.0  0.64200  0.58244  0.20829  1.0000
  H   H1978     1.0  0.84150  0.54125  0.26751  1.0000
  C   C2470     1.0  0.59381  0.96651  0.14415  1.0000
  C   C2471     1.0  0.64910  0.68773  0.20885  1.0000
  H   H1979     1.0  0.80889  0.58069  0.14191  1.0000
  P   P84       1.0  0.59024  0.59875  0.20553  1.0000
  H   H1980     1.0  0.58619  0.59099  0.17983  1.0000
  H   H1981     1.0  0.54206  0.61714  0.21198  1.0000
  C   C2472     1.0  0.70907  0.52885  0.24968  1.0000
  C   C2473     1.0  0.89614  0.57884  0.22551  1.0000
  C   C2474     1.0  0.64672  0.91232  0.25226  1.0000
  C   C2475     1.0  0.91426  0.66226  0.25835  1.0000
  C   C2476     1.0  0.79651  0.57653  0.23224  1.0000
  H   H1982     1.0  0.78004  0.67068  0.22521  1.0000
  C   C2477     1.0  0.92193  0.70140  0.22696  1.0000
  H   H1983     1.0  0.86518  0.56131  0.23969  1.0000
  H   H1984     1.0  0.87705  0.54961  0.13283  1.0000
  H   H1985     1.0  0.66418  0.49360  0.24792  1.0000
  H   H1986     1.0  0.89415  0.47294  0.13644  1.0000
  P   P85       1.0  0.71819  0.86718  0.14074  1.0000
  C   C2478     1.0  0.75071  0.89847  0.14708  1.0000
  C   C2479     1.0  0.68602  0.86314  0.14949  1.0000
  C   C2480     1.0  0.82139  0.57500  0.13517  1.0000
  C   C2481     1.0  0.62919  0.81215  0.26552  1.0000
  C   C2482     1.0  0.63348  0.85778  0.16111  1.0000
  C   C2483     1.0  0.65616  0.88643  0.15921  1.0000
  C   C2484     1.0  0.68260  0.88909  0.15368  1.0000
  C   C2485     1.0  0.76735  0.89383  0.15650  1.0000
  C   C2486     1.0  0.88045  0.70652  0.13445  1.0000
  H   H1987     1.0  0.92623  0.65211  0.21698  1.0000
  H   H1988     1.0  0.50319  0.95769  0.12776  1.0000
  H   H1989     1.0  0.93053  0.65623  0.27550  1.0000
  C   C2487     1.0  0.72398  0.83231  0.14078  1.0000
  H   H1990     1.0  0.48722  0.59453  0.20775  1.0000
  H   H1991     1.0  0.71912  0.81570  0.22669  1.0000
  C   C2488     1.0  0.73219  0.77780  0.14102  1.0000
  C   C2489     1.0  0.73436  0.79302  0.13044  1.0000
  C   C2490     1.0  0.73020  0.82012  0.13030  1.0000
  H   H1992     1.0  0.64577  0.91417  0.28442  1.0000
  H   H1993     1.0  0.85388  0.64850  0.21555  1.0000
  C   C2491     1.0  0.64207  0.83668  0.25803  1.0000
  S   S336      1.0  0.95473  0.61334  0.26609  1.0000
  C   C2492     1.0  0.92189  0.50732  0.14891  1.0000
  H   H1994     1.0  0.92878  0.64932  0.14985  1.0000
  H   H1995     1.0  0.73217  0.62706  0.28462  1.0000
  H   H1996     1.0  0.61325  0.85583  0.16559  1.0000
  H   H1997     1.0  0.65330  0.90673  0.16197  1.0000
  H   H1998     1.0  0.70008  0.91148  0.15252  1.0000
  H   H1999     1.0  0.76101  0.87171  0.16027  1.0000
  C   C2493     1.0  0.70553  0.87570  0.23718  1.0000
  H   H2000     1.0  0.63670  0.78796  0.28019  1.0000
  H   H2001     1.0  0.96094  0.70234  0.23674  1.0000
  C   C2494     1.0  0.79200  0.91821  0.16154  1.0000
  C   C2495     1.0  0.87743  0.60918  0.23753  1.0000
  Fe  Fe165     1.0  0.69786  0.96567  0.19934  1.0000
  H   H2002     1.0  0.73545  0.75685  0.14118  1.0000
  H   H2003     1.0  0.61408  0.93156  0.25442  1.0000
  H   H2004     1.0  0.93808  0.70743  0.28309  1.0000
  C   C2496     1.0  0.62601  0.90087  0.22880  1.0000
  H   H2005     1.0  0.87768  0.71427  0.15317  1.0000
  C   C2497     1.0  0.64022  0.65640  0.13598  1.0000
  H   H2006     1.0  0.61927  0.80951  0.15862  1.0000
  C   C2498     1.0  0.66232  0.68592  0.13529  1.0000
  C   C2499     1.0  0.55038  0.58256  0.20214  1.0000
  H   H2007     1.0  0.60572  0.79679  0.26428  1.0000
  H   H2008     1.0  0.60189  0.61234  0.24905  1.0000
  C   C2500     1.0  0.50112  0.58361  0.20431  1.0000
  H   H2009     1.0  0.59798  0.62922  0.22891  1.0000
  C   C2501     1.0  0.70659  0.84698  0.23681  1.0000
  C   C2502     1.0  0.59841  0.59689  0.24155  1.0000
  C   C2503     1.0  0.78458  0.65587  0.14035  1.0000
  C   C2504     1.0  0.76470  0.64009  0.14909  1.0000
  C   C2505     1.0  0.75070  0.60842  0.14848  1.0000
  H   H2010     1.0  0.49554  0.52098  0.18839  1.0000
  C   C2506     1.0  0.80113  0.57850  0.22005  1.0000
  C   C2507     1.0  0.53690  0.55499  0.19571  1.0000
  C   C2508     1.0  0.92338  0.72024  0.26679  1.0000
  C   C2509     1.0  0.85769  0.66900  0.23299  1.0000
  C   C2510     1.0  0.81549  0.68102  0.23846  1.0000
  C   C2511     1.0  0.92952  0.70037  0.27415  1.0000
  C   C2512     1.0  0.72184  0.81678  0.15136  1.0000
  C   C2513     1.0  0.88815  0.65688  0.14706  1.0000
  P   P86       1.0  0.89546  0.67161  0.23566  1.0000
  H   H2011     1.0  0.84359  0.65719  0.14640  1.0000
  H   H2012     1.0  0.90845  0.61392  0.16604  1.0000
  H   H2013     1.0  0.90870  0.72707  0.24951  1.0000
  C   C2514     1.0  0.71243  0.92742  0.26904  1.0000
  C   C2515     1.0  0.63687  0.83174  0.15717  1.0000
  H   H2014     1.0  0.75981  0.65251  0.15624  1.0000
  H   H2015     1.0  0.73465  0.59634  0.15512  1.0000
  C   C2516     1.0  0.76961  0.95773  0.25976  1.0000
  C   C2517     1.0  0.63533  0.70269  0.20209  1.0000
  C   C2518     1.0  0.62168  0.57782  0.17488  1.0000
  C   C2519     1.0  0.63545  0.58026  0.19903  1.0000
  C   C2520     1.0  0.75901  0.92806  0.14291  1.0000
  C   C2521     1.0  0.75689  0.59246  0.13919  1.0000
  H   H2016     1.0  0.71683  0.82551  0.15954  1.0000
  H   H2017     1.0  0.65445  0.91754  0.26131  1.0000
  H   H2018     1.0  0.64649  0.64473  0.21482  1.0000
  C   C2522     1.0  0.53220  0.59646  0.20663  1.0000
  C   C2523     1.0  0.94364  0.58515  0.13328  1.0000
  C   C2524     1.0  0.75353  0.62972  0.25168  1.0000
  C   C2525     1.0  0.74437  0.65150  0.25642  1.0000
  C   C2526     1.0  0.93311  0.73702  0.21094  1.0000
  C   C2527     1.0  0.73820  0.62790  0.27542  1.0000
  H   H2019     1.0  0.86192  0.63545  0.27434  1.0000
  H   H2020     1.0  0.75943  0.63116  0.24253  1.0000
  H   H2021     1.0  0.74256  0.66871  0.25081  1.0000
  C   C2528     1.0  0.87814  0.58114  0.23467  1.0000
  C   C2529     1.0  0.67250  0.85662  0.25953  1.0000
  C   C2530     1.0  0.59342  0.58692  0.22035  1.0000
  C   C2531     1.0  0.59095  0.55730  0.22228  1.0000
  H   H2022     1.0  0.71579  0.91727  0.22764  1.0000
  C   C2532     1.0  0.59674  0.56768  0.24339  1.0000
  H   H2023     1.0  0.55025  0.54316  0.19257  1.0000
  H   H2024     1.0  0.84875  0.56427  0.14794  1.0000
  H   H2025     1.0  0.58778  0.54161  0.21491  1.0000
  C   C2533     1.0  0.72585  0.78965  0.15146  1.0000
  C   C2534     1.0  0.90763  0.68191  0.25092  1.0000
  C   C2535     1.0  0.84695  0.62836  0.15990  1.0000
  C   C2536     1.0  0.63508  0.65624  0.20996  1.0000
  C   C2537     1.0  0.87081  0.71769  0.14438  1.0000
  C   C2538     1.0  0.59665  0.60650  0.23009  1.0000
  C   C2539     1.0  0.60695  0.63953  0.20451  1.0000
  H   H2026     1.0  0.69809  0.83141  0.24397  1.0000
  H   H2027     1.0  0.82108  0.57700  0.21647  1.0000
  H   H2028     1.0  0.70706  0.53866  0.24140  1.0000
  H   H2029     1.0  0.73707  0.90105  0.21057  1.0000
  C   C2540     1.0  0.73432  0.95177  0.27534  1.0000
  C   C2541     1.0  0.65311  0.57330  0.19084  1.0000
  H   H2030     1.0  0.75550  0.53921  0.27373  1.0000
  C   C2542     1.0  0.73621  0.52899  0.26779  1.0000
  C   C2543     1.0  0.48795  0.55656  0.19765  1.0000
  C   C2544     1.0  0.84336  0.68038  0.24126  1.0000
  C   C2545     1.0  0.85819  0.64817  0.15057  1.0000
  C   C2546     1.0  0.90585  0.64364  0.15249  1.0000
  C   C2547     1.0  0.89435  0.62343  0.16169  1.0000
  C   C2548     1.0  0.86517  0.61629  0.16557  1.0000
  C   C2549     1.0  0.72953  0.85745  0.21760  1.0000
  H   H2031     1.0  0.79509  0.68041  0.14086  1.0000
  C   C2550     1.0  0.94185  0.71111  0.14204  1.0000
  H   H2032     1.0  0.75359  0.92718  0.24492  1.0000
  C   C2551     1.0  0.91222  0.71405  0.21753  1.0000
  H   H2033     1.0  0.80473  0.69023  0.24479  1.0000
  C   C2552     1.0  0.85147  0.73243  0.14310  1.0000
  H   H2034     1.0  0.61867  0.89737  0.21960  1.0000
  C   C2553     1.0  0.84710  0.61364  0.27053  1.0000
  H   H2035     1.0  0.85358  0.68906  0.24982  1.0000
  C   C2554     1.0  0.89537  0.63527  0.23146  1.0000
  C   C2555     1.0  0.91269  0.63260  0.22204  1.0000
  C   C2556     1.0  0.81533  0.65803  0.21931  1.0000
  C   C2557     1.0  0.78027  0.58280  0.21251  1.0000
  C   C2558     1.0  0.59362  0.65458  0.19743  1.0000
  C   C2559     1.0  0.75018  0.58310  0.22932  1.0000
  H   H2036     1.0  0.73877  0.58897  0.21135  1.0000
  H   H2037     1.0  0.73057  0.58529  0.23275  1.0000
  P   P87       1.0  0.76552  0.57737  0.25288  1.0000
  C   C2560     1.0  0.91631  0.49068  0.13824  1.0000
  H   H2038     1.0  0.67285  0.57010  0.19386  1.0000
  H   H2039     1.0  0.79357  0.53481  0.25756  1.0000
  C   C2561     1.0  0.61331  0.91474  0.23663  1.0000
  H   H2040     1.0  0.86357  0.61074  0.24469  1.0000
  H   H2041     1.0  0.82435  0.62302  0.16295  1.0000
  H   H2042     1.0  0.81290  0.57305  0.23784  1.0000
  C   C2562     1.0  0.60773  0.68612  0.19631  1.0000
  C   C2563     1.0  0.75480  0.58513  0.21715  1.0000
  H   H2043     1.0  0.67522  0.69732  0.14316  1.0000
  C   C2564     1.0  0.61057  0.58576  0.19520  1.0000
  H   H2044     1.0  0.59777  0.69772  0.19070  1.0000
  H   H2045     1.0  0.67110  0.70041  0.21292  1.0000
  H   H2046     1.0  0.84395  0.74062  0.15088  1.0000
  C   C2565     1.0  0.71171  0.50324  0.27141  1.0000
  H   H2047     1.0  0.92719  0.60279  0.21204  1.0000
  C   C2566     1.0  0.95289  0.71218  0.22967  1.0000
  H   H2048     1.0  0.80458  0.64975  0.21076  1.0000
  H   H2049     1.0  0.59164  0.52521  0.23523  1.0000
  H   H2050     1.0  0.59620  0.92204  0.23350  1.0000
  C   C2567     1.0  0.91276  0.71118  0.25520  1.0000
  C   C2568     1.0  0.91308  0.60447  0.21911  1.0000
  H   H2051     1.0  0.59898  0.56071  0.25229  1.0000
  S   S337      1.0  0.60887  0.55488  0.28904  1.0000
  H   H2052     1.0  0.88872  0.70597  0.21498  1.0000
  C   C2569     1.0  0.66008  0.89882  0.24442  1.0000
  C   C2570     1.0  0.64893  0.89251  0.23269  1.0000
  H   H2053     1.0  0.92718  0.74282  0.27002  1.0000
  C   C2571     1.0  0.73642  0.65041  0.26825  1.0000
  Fe  Fe166     1.0  0.94159  0.57989  0.28146  1.0000
  H   H2054     1.0  0.89723  0.55731  0.22341  1.0000
  H   H2055     1.0  0.91202  0.64007  0.25530  1.0000
  H   H2056     1.0  0.63621  0.64499  0.14436  1.0000
  H   H2057     1.0  0.72404  0.77776  0.15966  1.0000
  H   H2058     1.0  0.92773  0.56603  0.13785  1.0000
  H   H2059     1.0  0.74594  0.56790  0.13889  1.0000
  C   C2572     1.0  0.76285  0.96704  0.27068  1.0000
  C   C2573     1.0  0.94671  0.73722  0.14898  1.0000
  Fe  Fe167     1.0  0.62973  0.52115  0.29069  1.0000
  H   H2060     1.0  0.84519  0.47437  0.28441  1.0000
  C   C2574     1.0  0.92512  0.67148  0.26990  1.0000
  H   H2061     1.0  0.95458  0.54370  0.15954  1.0000
  H   H2062     1.0  0.92849  0.74353  0.15115  1.0000
  C   C2575     1.0  0.72864  0.88603  0.21793  1.0000
  C   C2576     1.0  0.85998  0.55737  0.13014  1.0000
  C   C2577     1.0  0.71665  0.89514  0.22764  1.0000
  H   H2063     1.0  0.69077  0.91566  0.27297  1.0000
  P   P88       1.0  0.68951  0.88759  0.24959  1.0000
  C   C2578     1.0  0.64664  0.80717  0.27448  1.0000
  C   C2579     1.0  0.71852  0.83793  0.22703  1.0000
  H   H2064     1.0  0.82612  0.74722  0.13090  1.0000
  C   C2580     1.0  0.95041  0.53014  0.15144  1.0000
  C   C2581     1.0  0.63263  0.87110  0.29302  1.0000
  C   C2582     1.0  0.71851  0.91863  0.25782  1.0000
  Fe  Fe168     1.0  0.94625  0.67252  0.18837  1.0000
  C   C2583     1.0  0.93915  0.49708  0.12993  1.0000
  S   S338      1.0  0.95146  0.62861  0.18710  1.0000
  C   C2584     1.0  0.62341  0.92013  0.24839  1.0000
  C   C2585     1.0  0.69003  0.85117  0.26842  1.0000
  C   C2586     1.0  0.58550  0.97021  0.13260  1.0000
  H   H2065     1.0  0.74609  0.93268  0.13594  1.0000
  H   H2066     1.0  0.62832  0.83990  0.25101  1.0000
  C   C2587     1.0  0.66279  0.83439  0.15119  1.0000
  S   S339      1.0  0.74947  0.96822  0.17265  1.0000
  H   H2067     1.0  0.80399  0.91453  0.16908  1.0000
  H   H2068     1.0  0.66441  0.81399  0.14782  1.0000
  C   C2588     1.0  0.74759  0.93370  0.25334  1.0000
  H   H2069     1.0  0.88973  0.62396  0.12713  1.0000
  C   C2589     1.0  0.77685  0.60817  0.13033  1.0000
  C   C2590     1.0  0.84129  0.73595  0.13186  1.0000
  C   C2591     1.0  0.67706  0.82665  0.27591  1.0000
  H   H2070     1.0  0.69074  0.82253  0.28273  1.0000
  C   C2592     1.0  0.69558  0.96159  0.13516  1.0000
  H   H2071     1.0  0.71378  0.86572  0.26950  1.0000
  H   H2072     1.0  0.71356  0.96882  0.22961  1.0000
  H   H2073     1.0  0.66398  0.86614  0.12806  1.0000
  C   C2593     1.0  0.68452  0.50321  0.25336  1.0000
  H   H2074     1.0  0.71247  0.49370  0.27994  1.0000
  H   H2075     1.0  0.62612  0.85783  0.28485  1.0000
  C   C2594     1.0  0.64374  0.90276  0.29274  1.0000
  C   C2595     1.0  0.80032  0.94741  0.15723  1.0000
  S   S340      1.0  0.74296  0.96385  0.20179  1.0000
  H   H2076     1.0  0.72890  0.95917  0.28375  1.0000
  H   H2077     1.0  0.55429  0.48642  0.29268  1.0000
  C   C2596     1.0  0.78381  0.95233  0.14791  1.0000
  H   H2078     1.0  0.60742  0.61810  0.12659  1.0000
  Fe  Fe169     1.0  0.70326  0.96871  0.17197  1.0000
  H   H2079     1.0  0.79187  0.96936  0.25619  1.0000
  S   S341      1.0  0.66681  0.97076  0.21346  1.0000
  H   H2080     1.0  0.81898  0.96637  0.16134  1.0000
  Fe  Fe170     1.0  0.63260  0.57391  0.30658  1.0000
  S   S342      1.0  0.65171  0.53880  0.30855  1.0000
  S   S343      1.0  0.60506  0.58517  0.32084  1.0000
  H   H2081     1.0  0.55331  0.83690  0.35893  1.0000
  C   C2597     1.0  0.49818  0.51206  0.34157  1.0000
  S   S344      1.0  0.91043  0.53709  0.31065  1.0000
  C   C2598     1.0  0.55677  0.50236  0.38055  1.0000
  H   H2082     1.0  0.69938  0.64824  0.43793  1.0000
  C   C2599     1.0  0.53828  0.96270  0.42422  1.0000
  H   H2083     1.0  0.51192  0.56330  0.31975  1.0000
  Fe  Fe171     1.0  0.60385  0.60607  0.39241  1.0000
  S   S345      1.0  0.55553  0.59942  0.39146  1.0000
  S   S346      1.0  0.63292  0.60654  0.37656  1.0000
  Fe  Fe172     1.0  0.60444  0.60566  0.42007  1.0000
  S   S347      1.0  0.55618  0.59919  0.42073  1.0000
  S   S348      1.0  0.63244  0.60120  0.43584  1.0000
  Fe  Fe173     1.0  0.54782  0.56552  0.40580  1.0000
  C   C2600     1.0  0.51961  0.63745  0.44187  1.0000
  Fe  Fe174     1.0  0.56808  0.63422  0.40646  1.0000
  S   S349      1.0  0.54678  0.66868  0.40654  1.0000
  S   S350      1.0  0.59550  0.56994  0.40580  1.0000
  S   S351      1.0  0.61729  0.64302  0.40667  1.0000
  Fe  Fe175     1.0  0.60149  0.90811  0.38964  1.0000
  S   S352      1.0  0.57459  0.85932  0.38436  1.0000
  C   C2601     1.0  0.58863  0.80377  0.43265  1.0000
  Fe  Fe176     1.0  0.58302  0.89753  0.41597  1.0000
  S   S353      1.0  0.55442  0.84765  0.41235  1.0000
  Fe  Fe177     1.0  0.94612  0.58398  0.30897  1.0000
  Fe  Fe178     1.0  0.59237  0.84764  0.40117  1.0000
  S   S354      1.0  0.61291  0.81241  0.40119  1.0000
  Fe  Fe179     1.0  0.53893  0.86312  0.39593  1.0000
  S   S355      1.0  0.49096  0.84458  0.38895  1.0000
  S   S356      1.0  0.62237  0.89673  0.40586  1.0000
  S   S357      1.0  0.56453  0.91263  0.40011  1.0000
  C   C2602     1.0  0.70720  0.61023  0.44431  1.0000
  C   C2603     1.0  0.47448  0.54657  0.34570  1.0000
  C   C2604     1.0  0.50927  0.52691  0.33105  1.0000
  H   H2084     1.0  0.64123  0.93001  0.43927  1.0000
  C   C2605     1.0  0.62611  0.59959  0.45137  1.0000
  H   H2085     1.0  0.51649  0.93972  0.45766  1.0000
  C   C2606     1.0  0.53919  0.94585  0.36871  1.0000
  C   C2607     1.0  0.52858  0.47935  0.38269  1.0000
  H   H2086     1.0  0.60224  0.62855  0.45161  1.0000
  C   C2608     1.0  0.56572  0.70833  0.40428  1.0000
  C   C2609     1.0  0.54858  0.72550  0.40245  1.0000
  C   C2610     1.0  0.56255  0.75736  0.40154  1.0000
  C   C2611     1.0  0.59393  0.77239  0.40237  1.0000
  C   C2612     1.0  0.61106  0.75519  0.40407  1.0000
  C   C2613     1.0  0.59709  0.72332  0.40493  1.0000
  H   H2087     1.0  0.52429  0.71407  0.40185  1.0000
  H   H2088     1.0  0.54908  0.77027  0.40018  1.0000
  H   H2089     1.0  0.63530  0.76667  0.40487  1.0000
  H   H2090     1.0  0.61054  0.71043  0.40637  1.0000
  C   C2614     1.0  0.57374  0.47887  0.32164  1.0000
  C   C2615     1.0  0.63298  0.93984  0.44627  1.0000
  P   P89       1.0  0.50986  0.95306  0.33519  1.0000
  H   H2091     1.0  0.49709  0.87508  0.41182  1.0000
  C   C2616     1.0  0.47213  0.57355  0.38578  1.0000
  C   C2617     1.0  0.53321  0.52637  0.36769  1.0000
  H   H2092     1.0  0.55716  0.95414  0.31893  1.0000
  C   C2618     1.0  0.85645  0.63576  0.32202  1.0000
  C   C2619     1.0  0.56898  0.49764  0.34111  1.0000
  Fe  Fe180     1.0  0.88485  0.54800  0.29604  1.0000
  C   C2620     1.0  0.59765  0.93268  0.34285  1.0000
  C   C2621     1.0  0.59979  0.92911  0.35514  1.0000
  C   C2622     1.0  0.61992  0.95682  0.33702  1.0000
  S   S358      1.0  0.91858  0.59636  0.29541  1.0000
  H   H2093     1.0  0.57870  0.91655  0.33781  1.0000
  H   H2094     1.0  0.58279  0.91014  0.35944  1.0000
  C   C2623     1.0  0.50188  0.81618  0.43778  1.0000
  C   C2624     1.0  0.61261  0.58980  0.33638  1.0000
  C   C2625     1.0  0.63996  0.59197  0.34132  1.0000
  C   C2626     1.0  0.64563  0.59703  0.35360  1.0000
  C   C2627     1.0  0.62403  0.59974  0.36115  1.0000
  C   C2628     1.0  0.59651  0.59729  0.35623  1.0000
  C   C2629     1.0  0.59086  0.59234  0.34392  1.0000
  H   H2095     1.0  0.65694  0.59016  0.33566  1.0000
  H   H2096     1.0  0.66701  0.59892  0.35729  1.0000
  H   H2097     1.0  0.57974  0.59952  0.36188  1.0000
  H   H2098     1.0  0.56963  0.59072  0.34020  1.0000
  C   C2630     1.0  0.53863  0.84694  0.34213  1.0000
  S   S359      1.0  0.57830  0.91941  0.43361  1.0000
  H   H2099     1.0  0.53552  0.54517  0.36211  1.0000
  C   C2631     1.0  0.79793  0.58922  0.30120  1.0000
  C   C2632     1.0  0.93200  0.62122  0.36667  1.0000
  C   C2633     1.0  0.52279  0.61349  0.44783  1.0000
  H   H2100     1.0  0.53498  0.70583  0.42546  1.0000
  S   S360      1.0  0.74150  0.58895  0.30319  1.0000
  H   H2101     1.0  0.47437  0.81311  0.42227  1.0000
  C   C2634     1.0  0.52089  0.71016  0.43190  1.0000
  C   C2635     1.0  0.50487  0.72742  0.42873  1.0000
  C   C2636     1.0  0.90355  0.63070  0.31953  1.0000
  H   H2102     1.0  0.49260  0.93193  0.39069  1.0000
  H   H2103     1.0  0.54794  0.77920  0.44186  1.0000
  H   H2104     1.0  0.56322  0.53639  0.44158  1.0000
  C   C2637     1.0  0.47368  0.86614  0.40898  1.0000
  H   H2105     1.0  0.58025  0.64966  0.43814  1.0000
  C   C2638     1.0  0.48459  0.88342  0.31051  1.0000
  C   C2639     1.0  0.75649  0.54016  0.29845  1.0000
  H   H2106     1.0  0.94889  0.60774  0.45419  1.0000
  C   C2640     1.0  0.50261  0.47981  0.37738  1.0000
  H   H2107     1.0  0.80599  0.61340  0.30289  1.0000
  H   H2108     1.0  0.47367  0.74611  0.43439  1.0000
  H   H2109     1.0  0.94199  0.61125  0.38428  1.0000
  H   H2110     1.0  0.84270  0.58995  0.30004  1.0000
  H   H2111     1.0  0.46144  0.55482  0.35131  1.0000
  H   H2112     1.0  0.51700  0.84490  0.34532  1.0000
  H   H2113     1.0  0.49173  0.95312  0.42620  1.0000
  C   C2641     1.0  0.50689  0.90650  0.35018  1.0000
  C   C2642     1.0  0.53334  0.95763  0.35822  1.0000
  H   H2114     1.0  0.50367  0.87054  0.36199  1.0000
  C   C2643     1.0  0.57619  0.69246  0.44029  1.0000
  S   S361      1.0  0.51576  0.51606  0.40596  1.0000
  C   C2644     1.0  0.65126  0.95295  0.45640  1.0000
  C   C2645     1.0  0.88419  0.64451  0.31653  1.0000
  C   C2646     1.0  0.53031  0.49324  0.43503  1.0000
  C   C2647     1.0  0.94680  0.52593  0.44431  1.0000
  C   C2648     1.0  0.53033  0.51362  0.45469  1.0000
  C   C2649     1.0  0.58338  0.50205  0.33028  1.0000
  H   H2115     1.0  0.58095  0.54396  0.37159  1.0000
  H   H2116     1.0  0.51942  0.81389  0.43264  1.0000
  C   C2650     1.0  0.62436  0.94971  0.36176  1.0000
  H   H2117     1.0  0.46806  0.94812  0.35461  1.0000
  H   H2118     1.0  0.58054  0.73896  0.44183  1.0000
  H   H2119     1.0  0.63174  0.67217  0.43067  1.0000
  C   C2651     1.0  0.54622  0.85455  0.33042  1.0000
  H   H2120     1.0  0.67340  0.95275  0.45713  1.0000
  H   H2121     1.0  0.46615  0.88969  0.37665  1.0000
  H   H2122     1.0  0.60191  0.52355  0.32854  1.0000
  C   C2652     1.0  0.48621  0.73285  0.43688  1.0000
  C   C2653     1.0  0.56781  0.82656  0.44742  1.0000
  H   H2123     1.0  0.59653  0.74562  0.33666  1.0000
  C   C2654     1.0  0.51761  0.93803  0.34878  1.0000
  C   C2655     1.0  0.56636  0.80107  0.44078  1.0000
  H   H2124     1.0  0.58495  0.48235  0.31322  1.0000
  H   H2125     1.0  0.58724  0.78426  0.42737  1.0000
  C   C2656     1.0  0.62012  0.73674  0.43457  1.0000
  H   H2126     1.0  0.50691  0.73652  0.41994  1.0000
  C   C2657     1.0  0.46890  0.92555  0.38884  1.0000
  C   C2658     1.0  0.61253  0.83189  0.43112  1.0000
  C   C2659     1.0  0.52864  0.91449  0.36997  1.0000
  C   C2660     1.0  0.48416  0.90268  0.31982  1.0000
  H   H2127     1.0  0.46890  0.72500  0.45445  1.0000
  C   C2661     1.0  0.70985  0.64019  0.44481  1.0000
  C   C2662     1.0  0.65150  0.91986  0.30328  1.0000
  C   C2663     1.0  0.47287  0.95353  0.33564  1.0000
  C   C2664     1.0  0.76672  0.57139  0.30065  1.0000
  C   C2665     1.0  0.62915  0.85659  0.30386  1.0000
  C   C2666     1.0  0.63762  0.87378  0.31449  1.0000
  C   C2667     1.0  0.64842  0.90552  0.31411  1.0000
  P   P90       1.0  0.63095  0.85549  0.32860  1.0000
  C   C2668     1.0  0.59477  0.85224  0.33389  1.0000
  C   C2669     1.0  0.63203  0.81837  0.32722  1.0000
  C   C2670     1.0  0.65377  0.81426  0.32018  1.0000
  C   C2671     1.0  0.65498  0.78579  0.31919  1.0000
  C   C2672     1.0  0.63438  0.76108  0.32513  1.0000
  C   C2673     1.0  0.61249  0.76480  0.33204  1.0000
  C   C2674     1.0  0.61132  0.79328  0.33312  1.0000
  C   C2675     1.0  0.58705  0.84497  0.34571  1.0000
  C   C2676     1.0  0.55907  0.84229  0.34979  1.0000
  C   C2677     1.0  0.93946  0.50492  0.45335  1.0000
  C   C2678     1.0  0.63471  0.71805  0.43144  1.0000
  C   C2679     1.0  0.57416  0.85723  0.32629  1.0000
  C   C2680     1.0  0.66090  0.87905  0.33871  1.0000
  C   C2681     1.0  0.65603  0.89872  0.34690  1.0000
  C   C2682     1.0  0.67898  0.91668  0.35479  1.0000
  C   C2683     1.0  0.70728  0.91574  0.35441  1.0000
  C   C2684     1.0  0.71269  0.89693  0.34609  1.0000
  C   C2685     1.0  0.68967  0.87876  0.33823  1.0000
  H   H2128     1.0  0.65914  0.94429  0.30312  1.0000
  H   H2129     1.0  0.46984  0.95899  0.31674  1.0000
  H   H2130     1.0  0.47086  0.59565  0.41988  1.0000
  H   H2131     1.0  0.61938  0.83203  0.30394  1.0000
  H   H2132     1.0  0.65365  0.91931  0.32218  1.0000
  H   H2133     1.0  0.66976  0.83305  0.31541  1.0000
  H   H2134     1.0  0.67189  0.78284  0.31380  1.0000
  H   H2135     1.0  0.63535  0.73901  0.32439  1.0000
  C   C2686     1.0  0.48100  0.55446  0.37884  1.0000
  H   H2136     1.0  0.59423  0.79541  0.33859  1.0000
  H   H2137     1.0  0.60274  0.84159  0.35181  1.0000
  H   H2138     1.0  0.54030  0.95354  0.43271  1.0000
  H   H2139     1.0  0.57964  0.86362  0.31723  1.0000
  H   H2140     1.0  0.63464  0.90054  0.34719  1.0000
  H   H2141     1.0  0.67482  0.93152  0.36117  1.0000
  H   H2142     1.0  0.72504  0.92987  0.36051  1.0000
  H   H2143     1.0  0.73482  0.89661  0.34570  1.0000
  H   H2144     1.0  0.69457  0.86474  0.33180  1.0000
  P   P91       1.0  0.47120  0.50538  0.36343  1.0000
  C   C2687     1.0  0.50289  0.55154  0.32782  1.0000
  H   H2145     1.0  0.49410  0.89087  0.34319  1.0000
  C   C2688     1.0  0.87663  0.52382  0.34430  1.0000
  C   C2689     1.0  0.85972  0.53802  0.33887  1.0000
  C   C2690     1.0  0.84378  0.52547  0.32828  1.0000
  P   P92       1.0  0.85843  0.57212  0.34526  1.0000
  C   C2691     1.0  0.82156  0.56523  0.35081  1.0000
  C   C2692     1.0  0.88477  0.58574  0.35769  1.0000
  C   C2693     1.0  0.87825  0.56953  0.36823  1.0000
  C   C2694     1.0  0.89871  0.57881  0.37781  1.0000
  C   C2695     1.0  0.92566  0.60454  0.37700  1.0000
  H   H2146     1.0  0.51143  0.87487  0.29709  1.0000
  C   C2696     1.0  0.91170  0.61195  0.35705  1.0000
  C   C2697     1.0  0.81844  0.58630  0.35881  1.0000
  C   C2698     1.0  0.79000  0.58222  0.36284  1.0000
  C   C2699     1.0  0.76444  0.55717  0.35886  1.0000
  C   C2700     1.0  0.76733  0.53608  0.35091  1.0000
  C   C2701     1.0  0.79575  0.54000  0.34691  1.0000
  C   C2702     1.0  0.86780  0.59981  0.33378  1.0000
  C   C2703     1.0  0.84826  0.61355  0.33064  1.0000
  C   C2704     1.0  0.59107  0.67395  0.43717  1.0000
  H   H2147     1.0  0.53801  0.61796  0.45540  1.0000
  C   C2705     1.0  0.53717  0.91516  0.30750  1.0000
  H   H2148     1.0  0.62979  0.83411  0.42480  1.0000
  H   H2149     1.0  0.53064  0.85889  0.32457  1.0000
  S   S362      1.0  0.67357  0.60664  0.29754  1.0000
  C   C2706     1.0  0.53671  0.93452  0.31674  1.0000
  H   H2150     1.0  0.89021  0.53347  0.35218  1.0000
  H   H2151     1.0  0.83156  0.53662  0.32363  1.0000
  H   H2152     1.0  0.85762  0.54930  0.36894  1.0000
  H   H2153     1.0  0.89402  0.56582  0.38581  1.0000
  H   H2154     1.0  0.91762  0.62522  0.34918  1.0000
  H   H2155     1.0  0.83798  0.60614  0.36183  1.0000
  H   H2156     1.0  0.78773  0.59868  0.36895  1.0000
  H   H2157     1.0  0.74235  0.55422  0.36186  1.0000
  H   H2158     1.0  0.74746  0.51683  0.34773  1.0000
  H   H2159     1.0  0.79722  0.52345  0.34070  1.0000
  H   H2160     1.0  0.82662  0.60717  0.33472  1.0000
  H   H2161     1.0  0.52337  0.51976  0.32550  1.0000
  C   C2707     1.0  0.51867  0.69837  0.44327  1.0000
  H   H2162     1.0  0.47585  0.55364  0.43078  1.0000
  H   H2163     1.0  0.49878  0.64869  0.42667  1.0000
  C   C2708     1.0  0.49216  0.93004  0.45781  1.0000
  H   H2164     1.0  0.53998  0.49569  0.42634  1.0000
  S   S363      1.0  0.61719  0.95884  0.32138  1.0000
  C   C2709     1.0  0.59154  0.85485  0.44564  1.0000
  C   C2710     1.0  0.47620  0.50081  0.40642  1.0000
  C   C2711     1.0  0.48361  0.72102  0.44819  1.0000
  H   H2165     1.0  0.65716  0.72783  0.42791  1.0000
  C   C2712     1.0  0.71937  0.59915  0.45341  1.0000
  H   H2166     1.0  0.48036  0.58031  0.33257  1.0000
  H   H2167     1.0  0.53280  0.90523  0.37811  1.0000
  H   H2168     1.0  0.47192  0.54344  0.40744  1.0000
  H   H2169     1.0  0.91008  0.59697  0.32996  1.0000
  C   C2713     1.0  0.51109  0.88968  0.30434  1.0000
  C   C2714     1.0  0.55910  0.52578  0.37302  1.0000
  C   C2715     1.0  0.84350  0.49837  0.32354  1.0000
  C   C2716     1.0  0.48491  0.60062  0.42782  1.0000
  C   C2717     1.0  0.61250  0.66727  0.33542  1.0000
  C   C2718     1.0  0.64156  0.66959  0.33325  1.0000
  C   C2719     1.0  0.66573  0.68864  0.34041  1.0000
  C   C2720     1.0  0.66081  0.70506  0.34984  1.0000
  C   C2721     1.0  0.63155  0.70239  0.35224  1.0000
  C   C2722     1.0  0.60744  0.68363  0.34485  1.0000
  P   P93       1.0  0.62499  0.72100  0.36526  1.0000
  C   C2723     1.0  0.64644  0.71518  0.37744  1.0000
  C   C2724     1.0  0.63667  0.76139  0.36345  1.0000
  C   C2725     1.0  0.62482  0.77757  0.37074  1.0000
  C   C2726     1.0  0.63469  0.80900  0.36983  1.0000
  C   C2727     1.0  0.65666  0.82462  0.36172  1.0000
  C   C2728     1.0  0.66869  0.80877  0.35447  1.0000
  C   C2729     1.0  0.65879  0.77727  0.35533  1.0000
  C   C2730     1.0  0.65958  0.73784  0.38625  1.0000
  C   C2731     1.0  0.67694  0.73362  0.39544  1.0000
  C   C2732     1.0  0.68169  0.70695  0.39582  1.0000
  C   C2733     1.0  0.66893  0.68442  0.38705  1.0000
  C   C2734     1.0  0.65107  0.68829  0.37798  1.0000
  C   C2735     1.0  0.58527  0.70378  0.36837  1.0000
  C   C2736     1.0  0.57330  0.67726  0.37496  1.0000
  C   C2737     1.0  0.54235  0.66350  0.37694  1.0000
  C   C2738     1.0  0.52323  0.67622  0.37254  1.0000
  C   C2739     1.0  0.53490  0.70239  0.36585  1.0000
  C   C2740     1.0  0.56573  0.71592  0.36365  1.0000
  H   H2170     1.0  0.59378  0.65179  0.33001  1.0000
  H   H2171     1.0  0.64516  0.65594  0.32620  1.0000
  H   H2172     1.0  0.68814  0.68985  0.33885  1.0000
  H   H2173     1.0  0.67967  0.71893  0.35553  1.0000
  H   H2174     1.0  0.58458  0.68064  0.34655  1.0000
  H   H2175     1.0  0.60848  0.76607  0.37738  1.0000
  H   H2176     1.0  0.62580  0.82133  0.37566  1.0000
  H   H2177     1.0  0.66469  0.84907  0.36127  1.0000
  H   H2178     1.0  0.68597  0.82093  0.34827  1.0000
  H   H2179     1.0  0.66865  0.76552  0.34974  1.0000
  H   H2180     1.0  0.65651  0.75880  0.38613  1.0000
  H   H2181     1.0  0.68670  0.75107  0.40226  1.0000
  H   H2182     1.0  0.69506  0.70357  0.40294  1.0000
  H   H2183     1.0  0.67245  0.66362  0.38738  1.0000
  H   H2184     1.0  0.64099  0.67022  0.37140  1.0000
  H   H2185     1.0  0.58769  0.66720  0.37865  1.0000
  H   H2186     1.0  0.53327  0.64340  0.38223  1.0000
  H   H2187     1.0  0.49943  0.66589  0.37442  1.0000
  H   H2188     1.0  0.52005  0.71228  0.36246  1.0000
  H   H2189     1.0  0.57423  0.73595  0.35831  1.0000
  C   C2741     1.0  0.54327  0.51631  0.44360  1.0000
  S   S364      1.0  0.62982  0.94524  0.37709  1.0000
  H   H2190     1.0  0.63127  0.76105  0.43343  1.0000
  S   S365      1.0  0.83349  0.52673  0.29532  1.0000
  H   H2191     1.0  0.57644  0.51586  0.34773  1.0000
  C   C2742     1.0  0.51067  0.96243  0.42044  1.0000
  H   H2192     1.0  0.69464  0.59531  0.43704  1.0000
  C   C2743     1.0  0.62030  0.68671  0.43287  1.0000
  H   H2193     1.0  0.87820  0.47370  0.30113  1.0000
  H   H2194     1.0  0.50457  0.55888  0.37847  1.0000
  C   C2744     1.0  0.48525  0.56117  0.33508  1.0000
  H   H2195     1.0  0.57673  0.50260  0.38503  1.0000
  C   C2745     1.0  0.80849  0.54476  0.29736  1.0000
  C   C2746     1.0  0.72521  0.65934  0.45431  1.0000
  H   H2196     1.0  0.89034  0.48658  0.34350  1.0000
  C   C2747     1.0  0.48121  0.52207  0.34908  1.0000
  C   C2748     1.0  0.89502  0.60782  0.32787  1.0000
  H   H2197     1.0  0.89065  0.66184  0.30991  1.0000
  C   C2749     1.0  0.50674  0.58339  0.44393  1.0000
  H   H2198     1.0  0.48800  0.89520  0.44482  1.0000
  C   C2750     1.0  0.49984  0.70393  0.45141  1.0000
  C   C2751     1.0  0.87681  0.49707  0.33939  1.0000
  C   C2752     1.0  0.59420  0.95318  0.45439  1.0000
  C   C2753     1.0  0.61389  0.85737  0.43756  1.0000
  H   H2199     1.0  0.95322  0.64083  0.36600  1.0000
  H   H2200     1.0  0.84119  0.64611  0.31958  1.0000
  H   H2201     1.0  0.71639  0.57567  0.45295  1.0000
  C   C2754     1.0  0.50081  0.63075  0.43173  1.0000
  Fe  Fe181     1.0  0.69131  0.57008  0.29824  1.0000
  C   C2755     1.0  0.50467  0.50344  0.36988  1.0000
  S   S366      1.0  0.94153  0.48205  0.30145  1.0000
  Fe  Fe182     1.0  0.93384  0.52373  0.29609  1.0000
  P   P94       1.0  0.53991  0.67630  0.44716  1.0000
  C   C2756     1.0  0.86001  0.48418  0.32908  1.0000
  C   C2757     1.0  0.51233  0.89484  0.36077  1.0000
  C   C2758     1.0  0.47607  0.90454  0.45059  1.0000
  H   H2202     1.0  0.64966  0.57078  0.45437  1.0000
  C   C2759     1.0  0.60397  0.93909  0.44536  1.0000
  C   C2760     1.0  0.51019  0.92860  0.32295  1.0000
  P   P95       1.0  0.53878  0.82278  0.45785  1.0000
  H   H2203     1.0  0.83116  0.48888  0.31534  1.0000
  C   C2761     1.0  0.81876  0.57602  0.29957  1.0000
  C   C2762     1.0  0.48771  0.57693  0.43395  1.0000
  H   H2204     1.0  0.50335  0.49317  0.34403  1.0000
  H   H2205     1.0  0.92530  0.63768  0.31544  1.0000
  H   H2206     1.0  0.50960  0.56508  0.44846  1.0000
  C   C2763     1.0  0.59116  0.72407  0.43915  1.0000
  H   H2207     1.0  0.94348  0.54667  0.44544  1.0000
  H   H2208     1.0  0.59286  0.87505  0.45039  1.0000
  H   H2209     1.0  0.94284  0.56361  0.33943  1.0000
  C   C2764     1.0  0.46467  0.85024  0.39817  1.0000
  C   C2765     1.0  0.48182  0.82414  0.45638  1.0000
  H   H2210     1.0  0.55204  0.96098  0.37587  1.0000
  C   C2766     1.0  0.63844  0.58361  0.45850  1.0000
  H   H2211     1.0  0.63213  0.87920  0.43616  1.0000
  C   C2767     1.0  0.47623  0.81565  0.43183  1.0000
  H   H2212     1.0  0.48886  0.59238  0.39078  1.0000
  C   C2768     1.0  0.61154  0.61590  0.45689  1.0000
  H   H2213     1.0  0.55791  0.92019  0.30281  1.0000
  C   C2769     1.0  0.50443  0.48785  0.45722  1.0000
  H   H2214     1.0  0.73256  0.52619  0.29818  1.0000
  C   C2770     1.0  0.50492  0.82040  0.45012  1.0000
  C   C2771     1.0  0.77729  0.52695  0.29679  1.0000
  C   C2772     1.0  0.95852  0.52043  0.43379  1.0000
  C   C2773     1.0  0.94242  0.47729  0.45172  1.0000
  H   H2215     1.0  0.95161  0.55508  0.36052  1.0000
  H   H2216     1.0  0.46432  0.86369  0.30806  1.0000
  H   H2217     1.0  0.46347  0.89740  0.32455  1.0000
  H   H2218     1.0  0.76914  0.50274  0.29512  1.0000
  H   H2219     1.0  0.72697  0.68246  0.45474  1.0000
  H   H2220     1.0  0.57204  0.95325  0.45368  1.0000
  H   H2221     1.0  0.53228  0.88101  0.45796  1.0000
  C   C2774     1.0  0.96077  0.58093  0.34454  1.0000
  Fe  Fe183     1.0  0.58028  0.61047  0.61982  1.0000
  S   S367      1.0  0.53116  0.60171  0.61999  1.0000
  S   S368      1.0  0.60596  0.60012  0.60457  1.0000
  H   H2222     1.0  0.90618  0.60863  0.56071  1.0000
  C   C2775     1.0  0.85090  0.63097  0.47291  1.0000
  C   C2776     1.0  0.80168  0.54092  0.55841  1.0000
  Fe  Fe184     1.0  0.58702  0.91542  0.60581  1.0000
  S   S369      1.0  0.55502  0.86611  0.60393  1.0000
  S   S370      1.0  0.59915  0.95150  0.59133  1.0000
  C   C2777     1.0  0.50776  0.50852  0.57038  1.0000
  C   C2778     1.0  0.61042  0.61719  0.46933  1.0000
  C   C2779     1.0  0.57508  0.48592  0.61946  1.0000
  H   H2223     1.0  0.90923  0.67723  0.61887  1.0000
  Fe  Fe185     1.0  0.93877  0.55697  0.50404  1.0000
  S   S371      1.0  0.89123  0.52136  0.50437  1.0000
  C   C2780     1.0  0.58137  0.78113  0.61965  1.0000
  Fe  Fe186     1.0  0.93571  0.57671  0.53002  1.0000
  S   S372      1.0  0.88754  0.54329  0.53198  1.0000
  C   C2781     1.0  0.55524  0.77957  0.46842  1.0000
  Fe  Fe187     1.0  0.90241  0.51056  0.52251  1.0000
  H   H2224     1.0  0.77954  0.61943  0.49878  1.0000
  Fe  Fe188     1.0  0.87892  0.55644  0.51373  1.0000
  S   S373      1.0  0.83364  0.55475  0.50650  1.0000
  S   S374      1.0  0.92628  0.59312  0.51231  1.0000
  Fe  Fe189     1.0  0.61782  0.56597  0.53361  1.0000
  S   S375      1.0  0.63882  0.53201  0.53404  1.0000
  S   S376      1.0  0.59181  0.57826  0.54823  1.0000
  Fe  Fe190     1.0  0.63218  0.57871  0.50696  1.0000
  S   S377      1.0  0.65500  0.54646  0.50577  1.0000
  S   S378      1.0  0.62350  0.60638  0.49213  1.0000
  Fe  Fe191     1.0  0.61593  0.51525  0.51628  1.0000
  C   C2782     1.0  0.69993  0.54910  0.48001  1.0000
  Fe  Fe192     1.0  0.67645  0.56565  0.52351  1.0000
  S   S379      1.0  0.72526  0.57822  0.52985  1.0000
  S   S380      1.0  0.59197  0.54633  0.51651  1.0000
  S   S381      1.0  0.65653  0.60075  0.52407  1.0000
  C   C2783     1.0  0.71413  0.62401  0.48986  1.0000
  H   H2225     1.0  0.53067  0.56085  0.59874  1.0000
  C   C2784     1.0  0.54830  0.71895  0.62452  1.0000
  C   C2785     1.0  0.93708  0.47499  0.59600  1.0000
  C   C2786     1.0  0.50111  0.48895  0.60919  1.0000
  H   H2226     1.0  0.85055  0.66435  0.46058  1.0000
  C   C2787     1.0  0.63674  0.58433  0.47094  1.0000
  C   C2788     1.0  0.62324  0.60166  0.47646  1.0000
  H   H2227     1.0  0.53391  0.91154  0.59055  1.0000
  H   H2228     1.0  0.64654  0.57213  0.47626  1.0000
  H   H2229     1.0  0.59996  0.63073  0.47349  1.0000
  C   C2789     1.0  0.80369  0.56097  0.51332  1.0000
  C   C2790     1.0  0.80743  0.57645  0.52418  1.0000
  C   C2791     1.0  0.78337  0.58192  0.52897  1.0000
  C   C2792     1.0  0.75505  0.57150  0.52313  1.0000
  C   C2793     1.0  0.75135  0.55614  0.51224  1.0000
  C   C2794     1.0  0.77543  0.55072  0.50743  1.0000
  H   H2230     1.0  0.82901  0.58468  0.52880  1.0000
  H   H2231     1.0  0.78679  0.59446  0.53725  1.0000
  H   H2232     1.0  0.72993  0.54852  0.50754  1.0000
  H   H2233     1.0  0.77209  0.53842  0.49909  1.0000
  C   C2795     1.0  0.48118  0.48339  0.57278  1.0000
  H   H2234     1.0  0.54383  0.52833  0.55822  1.0000
  C   C2796     1.0  0.50402  0.77362  0.47169  1.0000
  C   C2797     1.0  0.66968  0.72633  0.62176  1.0000
  C   C2798     1.0  0.60740  0.95317  0.57591  1.0000
  C   C2799     1.0  0.61198  0.92993  0.56983  1.0000
  C   C2800     1.0  0.61967  0.93296  0.55777  1.0000
  H   H2235     1.0  0.67352  0.75297  0.57178  1.0000
  C   C2801     1.0  0.66659  0.76807  0.57689  1.0000
  C   C2802     1.0  0.57017  0.85618  0.47783  1.0000
  H   H2236     1.0  0.60995  0.90976  0.57445  1.0000
  P   P96       1.0  0.95686  0.67929  0.60258  1.0000
  H   H2237     1.0  0.47731  0.55379  0.60020  1.0000
  C   C2803     1.0  0.55468  0.90510  0.47377  1.0000
  H   H2238     1.0  0.56859  0.74707  0.47685  1.0000
  H   H2239     1.0  0.50716  0.64201  0.48750  1.0000
  C   C2804     1.0  0.59625  0.58417  0.56392  1.0000
  C   C2805     1.0  0.57534  0.59203  0.57010  1.0000
  C   C2806     1.0  0.57799  0.59729  0.58247  1.0000
  C   C2807     1.0  0.60141  0.59429  0.58890  1.0000
  C   C2808     1.0  0.62228  0.58640  0.58272  1.0000
  C   C2809     1.0  0.61979  0.58140  0.57033  1.0000
  H   H2240     1.0  0.55714  0.59446  0.56524  1.0000
  H   H2241     1.0  0.56209  0.60393  0.58700  1.0000
  H   H2242     1.0  0.64060  0.58418  0.58756  1.0000
  H   H2243     1.0  0.63612  0.57550  0.56576  1.0000
  H   H2244     1.0  0.68975  0.56285  0.48415  1.0000
  C   C2810     1.0  0.64923  0.80825  0.58970  1.0000
  H   H2245     1.0  0.65981  0.65358  0.61548  1.0000
  H   H2246     1.0  0.55829  0.66793  0.49658  1.0000
  H   H2247     1.0  0.57895  0.47819  0.61087  1.0000
  C   C2811     1.0  0.61259  0.96658  0.46447  1.0000
  H   H2248     1.0  0.58409  0.74026  0.58122  1.0000
  H   H2249     1.0  0.88957  0.75167  0.60740  1.0000
  H   H2250     1.0  0.79396  0.50719  0.52565  1.0000
  H   H2251     1.0  0.69841  0.61929  0.48244  1.0000
  H   H2252     1.0  0.57676  0.83770  0.47951  1.0000
  H   H2253     1.0  0.58465  0.66521  0.60147  1.0000
  H   H2254     1.0  0.51648  0.52780  0.57651  1.0000
  C   C2812     1.0  0.52335  0.50881  0.56010  1.0000
  H   H2255     1.0  0.94766  0.61546  0.60550  1.0000
  C   C2813     1.0  0.72876  0.56263  0.47526  1.0000
  C   C2814     1.0  0.64689  0.68152  0.60395  1.0000
  H   H2256     1.0  0.62038  0.76940  0.59908  1.0000
  H   H2257     1.0  0.55068  0.48056  0.52279  1.0000
  C   C2815     1.0  0.78727  0.51388  0.55183  1.0000
  C   C2816     1.0  0.52580  0.65593  0.48214  1.0000
  C   C2817     1.0  0.62281  0.95914  0.55154  1.0000
  H   H2258     1.0  0.92745  0.76238  0.59171  1.0000
  C   C2818     1.0  0.52255  0.73872  0.48044  1.0000
  C   C2819     1.0  0.55196  0.85527  0.46794  1.0000
  C   C2820     1.0  0.51381  0.53953  0.60167  1.0000
  C   C2821     1.0  0.52251  0.51653  0.60510  1.0000
  H   H2259     1.0  0.53869  0.95934  0.48653  1.0000
  C   C2822     1.0  0.70260  0.48381  0.50730  1.0000
  C   C2823     1.0  0.57880  0.68783  0.48031  1.0000
  C   C2824     1.0  0.93603  0.70260  0.60440  1.0000
  C   C2825     1.0  0.73438  0.61810  0.46310  1.0000
  H   H2260     1.0  0.74764  0.56866  0.55632  1.0000
  C   C2826     1.0  0.57433  0.69050  0.46822  1.0000
  C   C2827     1.0  0.72243  0.48029  0.51561  1.0000
  H   H2261     1.0  0.47013  0.48340  0.58099  1.0000
  H   H2262     1.0  0.50362  0.67942  0.59746  1.0000
  H   H2263     1.0  0.54610  0.52054  0.60468  1.0000
  C   C2828     1.0  0.49834  0.96761  0.48848  1.0000
  C   C2829     1.0  0.47929  0.96238  0.50844  1.0000
  C   C2830     1.0  0.51261  0.48394  0.55223  1.0000
  C   C2831     1.0  0.95924  0.58825  0.46981  1.0000
  S   S382      1.0  0.48124  0.85192  0.62005  1.0000
  H   H2264     1.0  0.92361  0.49192  0.61167  1.0000
  C   C2832     1.0  0.74036  0.61852  0.48900  1.0000
  H   H2265     1.0  0.72237  0.52171  0.54463  1.0000
  C   C2833     1.0  0.57281  0.90587  0.48356  1.0000
  H   H2266     1.0  0.47781  0.73656  0.48274  1.0000
  C   C2834     1.0  0.47650  0.96775  0.49647  1.0000
  H   H2267     1.0  0.58143  0.92569  0.48944  1.0000
  H   H2268     1.0  0.63744  0.66348  0.59732  1.0000
  C   C2835     1.0  0.94262  0.64789  0.56821  1.0000
  C   C2836     1.0  0.67895  0.79905  0.57439  1.0000
  H   H2269     1.0  0.93428  0.56229  0.56105  1.0000
  H   H2270     1.0  0.93138  0.51037  0.46157  1.0000
  C   C2837     1.0  0.67466  0.48246  0.51080  1.0000
  S   S383      1.0  0.61911  0.90545  0.61790  1.0000
  H   H2271     1.0  0.54918  0.92432  0.47212  1.0000
  H   H2272     1.0  0.67983  0.70337  0.58195  1.0000
  H   H2273     1.0  0.48397  0.82834  0.46584  1.0000
  C   C2838     1.0  0.95078  0.62638  0.61413  1.0000
  C   C2839     1.0  0.80604  0.63796  0.46694  1.0000
  C   C2840     1.0  0.48633  0.94579  0.58489  1.0000
  C   C2841     1.0  0.55458  0.67053  0.48726  1.0000
  C   C2842     1.0  0.55045  0.75429  0.47532  1.0000
  H   H2274     1.0  0.53047  0.72474  0.58544  1.0000
  C   C2843     1.0  0.91353  0.63119  0.58971  1.0000
  H   H2275     1.0  0.68608  0.67117  0.56589  1.0000
  C   C2844     1.0  0.63689  0.77736  0.59222  1.0000
  H   H2276     1.0  0.53060  0.64951  0.60504  1.0000
  C   C2845     1.0  0.78732  0.56052  0.56015  1.0000
  S   S384      1.0  0.56271  0.92474  0.62130  1.0000
  H   H2277     1.0  0.82414  0.54681  0.56207  1.0000
  C   C2846     1.0  0.95496  0.65684  0.61537  1.0000
  H   H2278     1.0  0.84428  0.59582  0.48550  1.0000
  H   H2279     1.0  0.50599  0.95281  0.52180  1.0000
  C   C2847     1.0  0.48578  0.89084  0.59262  1.0000
  C   C2848     1.0  0.51298  0.91443  0.58974  1.0000
  H   H2280     1.0  0.87989  0.59403  0.57977  1.0000
  H   H2281     1.0  0.59517  0.88241  0.49305  1.0000
  H   H2282     1.0  0.93976  0.58750  0.47452  1.0000
  P   P97       1.0  0.74834  0.60352  0.47534  1.0000
  C   C2849     1.0  0.59613  0.76175  0.62153  1.0000
  C   C2850     1.0  0.74422  0.52630  0.54858  1.0000
  C   C2851     1.0  0.70755  0.63518  0.50042  1.0000
  H   H2283     1.0  0.67962  0.84306  0.57879  1.0000
  H   H2284     1.0  0.54328  0.94992  0.50766  1.0000
  C   C2852     1.0  0.78852  0.61439  0.47429  1.0000
  H   H2285     1.0  0.51901  0.71933  0.48589  1.0000
  H   H2286     1.0  0.48582  0.78080  0.47053  1.0000
  C   C2853     1.0  0.80262  0.59922  0.48089  1.0000
  H   H2287     1.0  0.59364  0.70345  0.46301  1.0000
  C   C2854     1.0  0.53196  0.78934  0.46645  1.0000
  H   H2288     1.0  0.79861  0.58168  0.56510  1.0000
  C   C2855     1.0  0.64106  0.96600  0.46564  1.0000
  H   H2289     1.0  0.62344  0.91493  0.55323  1.0000
  C   C2856     1.0  0.65964  0.67580  0.61426  1.0000
  C   C2857     1.0  0.75847  0.50645  0.54677  1.0000
  C   C2858     1.0  0.96088  0.47829  0.58856  1.0000
  C   C2859     1.0  0.95998  0.57576  0.57753  1.0000
  C   C2860     1.0  0.83711  0.64616  0.46626  1.0000
  C   C2861     1.0  0.52125  0.65842  0.47004  1.0000
  H   H2290     1.0  0.78966  0.58109  0.48662  1.0000
  C   C2862     1.0  0.67091  0.69812  0.62320  1.0000
  C   C2863     1.0  0.65718  0.73224  0.61139  1.0000
  H   H2291     1.0  0.73407  0.49857  0.46439  1.0000
  H   H2292     1.0  0.48703  0.96739  0.58201  1.0000
  C   C2864     1.0  0.58063  0.88146  0.48556  1.0000
  C   C2865     1.0  0.89748  0.71397  0.61417  1.0000
  Fe  Fe193     1.0  0.53252  0.87504  0.61994  1.0000
  H   H2293     1.0  0.95666  0.73093  0.58962  1.0000
  C   C2866     1.0  0.54548  0.67576  0.46298  1.0000
  H   H2294     1.0  0.79875  0.49894  0.55063  1.0000
  C   C2867     1.0  0.72690  0.64075  0.51025  1.0000
  H   H2295     1.0  0.66132  0.50748  0.48290  1.0000
  H   H2296     1.0  0.60125  0.69855  0.48425  1.0000
  H   H2297     1.0  0.50933  0.72933  0.62302  1.0000
  H   H2298     1.0  0.72143  0.64867  0.51853  1.0000
  H   H2299     1.0  0.69516  0.80750  0.56744  1.0000
  C   C2868     1.0  0.94047  0.72630  0.59660  1.0000
  H   H2300     1.0  0.58876  0.68102  0.56942  1.0000
  H   H2301     1.0  0.95399  0.65410  0.55986  1.0000
  C   C2869     1.0  0.68368  0.51762  0.47927  1.0000
  H   H2302     1.0  0.88061  0.70900  0.62090  1.0000
  C   C2870     1.0  0.75961  0.62410  0.49896  1.0000
  H   H2303     1.0  0.70933  0.48851  0.49823  1.0000
  C   C2871     1.0  0.67024  0.81911  0.58078  1.0000
  H   H2304     1.0  0.64224  0.82368  0.59465  1.0000
  C   C2872     1.0  0.54486  0.88028  0.46583  1.0000
  C   C2873     1.0  0.75289  0.63523  0.50950  1.0000
  H   H2305     1.0  0.49426  0.48655  0.46576  1.0000
  C   C2874     1.0  0.94199  0.49429  0.60590  1.0000
  Fe  Fe194     1.0  0.58502  0.85665  0.61718  1.0000
  C   C2875     1.0  0.75855  0.55311  0.55528  1.0000
  C   C2876     1.0  0.64570  0.70987  0.60237  1.0000
  S   S385      1.0  0.60290  0.81952  0.61605  1.0000
  C   C2877     1.0  0.90248  0.73797  0.60654  1.0000
  C   C2878     1.0  0.50338  0.95604  0.51246  1.0000
  H   H2306     1.0  0.74906  0.66341  0.47080  1.0000
  C   C2879     1.0  0.51328  0.94192  0.58591  1.0000
  H   H2307     1.0  0.59571  0.64918  0.55344  1.0000
  H   H2308     1.0  0.57733  0.79177  0.46481  1.0000
  H   H2309     1.0  0.90178  0.62472  0.59794  1.0000
  C   C2880     1.0  0.94136  0.65635  0.58938  1.0000
  H   H2310     1.0  0.64394  0.64389  0.55169  1.0000
  C   C2881     1.0  0.71426  0.47510  0.52748  1.0000
  H   H2311     1.0  0.65631  0.75414  0.61054  1.0000
  C   C2882     1.0  0.49936  0.74842  0.47864  1.0000
  C   C2883     1.0  0.69603  0.49937  0.47370  1.0000
  C   C2884     1.0  0.74079  0.54419  0.46947  1.0000
  H   H2312     1.0  0.68707  0.63897  0.50103  1.0000
  C   C2885     1.0  0.90090  0.61393  0.57942  1.0000
  C   C2886     1.0  0.72460  0.51266  0.46882  1.0000
  C   C2887     1.0  0.66506  0.67380  0.56662  1.0000
  C   C2888     1.0  0.64141  0.65854  0.55859  1.0000
  C   C2889     1.0  0.61413  0.66154  0.55959  1.0000
  C   C2890     1.0  0.61026  0.67945  0.56872  1.0000
  C   C2891     1.0  0.63375  0.69444  0.57697  1.0000
  C   C2892     1.0  0.66136  0.69188  0.57573  1.0000
  P   P98       1.0  0.62873  0.71689  0.58904  1.0000
  C   C2893     1.0  0.64537  0.75695  0.58583  1.0000
  C   C2894     1.0  0.58886  0.70462  0.59141  1.0000
  C   C2895     1.0  0.57295  0.72062  0.58658  1.0000
  C   C2896     1.0  0.54233  0.71162  0.58878  1.0000
  C   C2897     1.0  0.52714  0.68602  0.59546  1.0000
  C   C2898     1.0  0.54246  0.66917  0.59980  1.0000
  C   C2899     1.0  0.57321  0.67843  0.59785  1.0000
  H   H2313     1.0  0.68331  0.47500  0.47307  1.0000
  H   H2314     1.0  0.52488  0.48445  0.54426  1.0000
  C   C2900     1.0  0.48379  0.53551  0.60248  1.0000
  C   C2901     1.0  0.92388  0.74404  0.59773  1.0000
  H   H2315     1.0  0.53831  0.78397  0.61893  1.0000
  C   C2902     1.0  0.91399  0.69615  0.61305  1.0000
  S   S386      1.0  0.63375  0.96191  0.53640  1.0000
  C   C2903     1.0  0.83364  0.60753  0.48024  1.0000
  H   H2316     1.0  0.48571  0.86967  0.59572  1.0000
  C   C2904     1.0  0.95548  0.66499  0.57849  1.0000
  C   C2905     1.0  0.95460  0.57837  0.56539  1.0000
  C   C2906     1.0  0.47678  0.94293  0.46496  1.0000
  H   H2317     1.0  0.76250  0.55412  0.46534  1.0000
  H   H2318     1.0  0.54038  0.53160  0.46132  1.0000
  C   C2907     1.0  0.91553  0.62222  0.56868  1.0000
  H   H2319     1.0  0.94379  0.55741  0.58241  1.0000
  C   C2908     1.0  0.55000  0.76935  0.62037  1.0000
  H   H2320     1.0  0.76735  0.63862  0.51726  1.0000
  H   H2321     1.0  0.94987  0.58679  0.62295  1.0000
  C   C2909     1.0  0.52444  0.95453  0.50449  1.0000
  C   C2910     1.0  0.73757  0.64841  0.46341  1.0000
  S   S387      1.0  0.95082  0.54288  0.52166  1.0000
  H   H2322     1.0  0.49900  0.64613  0.46613  1.0000
  H   H2323     1.0  0.87497  0.63738  0.47244  1.0000
  C   C2911     1.0  0.53360  0.73838  0.62270  1.0000
  C   C2912     1.0  0.46244  0.50841  0.60674  1.0000
  C   C2913     1.0  0.52181  0.96001  0.49252  1.0000
  C   C2914     1.0  0.81348  0.47666  0.52004  1.0000
  H   H2324     1.0  0.83206  0.49429  0.51578  1.0000
  C   C2915     1.0  0.79182  0.48391  0.52569  1.0000
  H   H2325     1.0  0.65936  0.48549  0.50440  1.0000
  H   H2326     1.0  0.62259  0.50924  0.62357  1.0000
  C   C2916     1.0  0.47100  0.48523  0.61012  1.0000
  C   C2917     1.0  0.54573  0.47942  0.62325  1.0000
  H   H2327     1.0  0.49749  0.69512  0.46021  1.0000
  H   H2328     1.0  0.46321  0.96406  0.51466  1.0000
  C   C2918     1.0  0.68605  0.47364  0.53089  1.0000
  C   C2919     1.0  0.57972  0.73079  0.62388  1.0000
  H   H2329     1.0  0.62039  0.77076  0.62114  1.0000
  C   C2920     1.0  0.66635  0.47717  0.52257  1.0000
  H   H2330     1.0  0.52222  0.47602  0.58847  1.0000
  H   H2331     1.0  0.53456  0.96020  0.58379  1.0000
  H   H2332     1.0  0.74422  0.48227  0.51271  1.0000
  H   H2333     1.0  0.64468  0.47611  0.52526  1.0000
  H   H2334     1.0  0.59139  0.71615  0.62523  1.0000
  C   C2921     1.0  0.95201  0.60996  0.62404  1.0000
  H   H2335     1.0  0.93395  0.47340  0.51357  1.0000
  H   H2336     1.0  0.79591  0.65008  0.46173  1.0000
  H   H2337     1.0  0.46602  0.96085  0.60627  1.0000
  Fe  Fe195     1.0  0.72936  0.93524  0.73077  1.0000
  S   S388      1.0  0.67950  0.91364  0.73240  1.0000
  S   S389      1.0  0.75643  0.90682  0.72840  1.0000
  Fe  Fe196     1.0  0.67743  0.94628  0.71882  1.0000
  H   H2338     1.0  0.70090  0.61287  0.77279  1.0000
  C   C2922     1.0  0.59168  0.82366  0.64938  1.0000
  H   H2339     1.0  0.58275  0.75808  0.78371  1.0000
  C   C2923     1.0  0.76292  0.88819  0.76074  1.0000
  S   S390      1.0  0.89770  0.65956  0.74060  1.0000
  Fe  Fe197     1.0  0.70658  0.73197  0.73928  1.0000
  S   S391      1.0  0.67089  0.68677  0.74393  1.0000
  S   S392      1.0  0.68907  0.76846  0.74182  1.0000
  Fe  Fe198     1.0  0.75376  0.70522  0.73565  1.0000
  S   S393      1.0  0.72064  0.65841  0.74009  1.0000
  S   S394      1.0  0.80407  0.72070  0.73186  1.0000
  Fe  Fe199     1.0  0.68772  0.66874  0.72837  1.0000
  S   S395      1.0  0.65233  0.63552  0.71538  1.0000
  Fe  Fe200     1.0  0.70635  0.68096  0.75519  1.0000
  S   S396      1.0  0.70640  0.67480  0.77534  1.0000
  S   S397      1.0  0.72159  0.71448  0.72317  1.0000
  S   S398      1.0  0.74140  0.72722  0.75115  1.0000
  Fe  Fe201     1.0  0.58972  0.63037  0.64669  1.0000
  C   C2924     1.0  0.72933  0.93389  0.65356  1.0000
  S   S399      1.0  0.62732  0.65437  0.66071  1.0000
  H   H2340     1.0  0.64999  0.86831  0.67400  1.0000
  H   H2341     1.0  0.81920  0.63934  0.76272  1.0000
  C   C2925     1.0  0.82313  0.72711  0.77356  1.0000
  Fe  Fe202     1.0  0.59274  0.91125  0.63328  1.0000
  S   S400      1.0  0.56040  0.86213  0.63307  1.0000
  S   S401      1.0  0.61943  0.94067  0.64930  1.0000
  P   P99       1.0  0.55000  0.78600  0.66515  1.0000
  H   H2342     1.0  0.78682  0.94765  0.68859  1.0000
  C   C2926     1.0  0.63953  0.86387  0.65536  1.0000
  C   C2927     1.0  0.73876  0.60970  0.76383  1.0000
  C   C2928     1.0  0.80983  0.56933  0.78126  1.0000
  C   C2929     1.0  0.74228  0.86398  0.76694  1.0000
  S   S402      1.0  0.54097  0.62235  0.64841  1.0000
  C   C2930     1.0  0.72133  0.86852  0.77428  1.0000
  S   S403      1.0  0.64129  0.92205  0.70425  1.0000
  C   C2931     1.0  0.70122  0.90215  0.69269  1.0000
  C   C2932     1.0  0.76288  0.93522  0.68951  1.0000
  C   C2933     1.0  0.72219  0.89587  0.69944  1.0000
  C   C2934     1.0  0.64590  0.64091  0.70014  1.0000
  C   C2935     1.0  0.66655  0.66457  0.69368  1.0000
  C   C2936     1.0  0.66071  0.66775  0.68162  1.0000
  C   C2937     1.0  0.63380  0.64799  0.67586  1.0000
  C   C2938     1.0  0.61309  0.62433  0.68230  1.0000
  C   C2939     1.0  0.61929  0.62067  0.69430  1.0000
  H   H2343     1.0  0.68728  0.68010  0.69794  1.0000
  H   H2344     1.0  0.67740  0.68549  0.67669  1.0000
  H   H2345     1.0  0.59240  0.60875  0.67804  1.0000
  H   H2346     1.0  0.60319  0.60216  0.69914  1.0000
  C   C2940     1.0  0.67755  0.66171  0.78606  1.0000
  C   C2941     1.0  0.71163  0.92359  0.64324  1.0000
  C   C2942     1.0  0.74234  0.92186  0.76920  1.0000
  H   H2347     1.0  0.64115  0.63682  0.77388  1.0000
  H   H2348     1.0  0.51549  0.88793  0.64154  1.0000
  C   C2943     1.0  0.60680  0.83186  0.67004  1.0000
  C   C2944     1.0  0.87190  0.67656  0.73763  1.0000
  C   C2945     1.0  0.84093  0.65973  0.73944  1.0000
  C   C2946     1.0  0.81985  0.67280  0.73783  1.0000
  C   C2947     1.0  0.82944  0.70282  0.73416  1.0000
  C   C2948     1.0  0.86033  0.71947  0.73218  1.0000
  C   C2949     1.0  0.88144  0.70653  0.73393  1.0000
  H   H2349     1.0  0.83320  0.63636  0.74205  1.0000
  H   H2350     1.0  0.79618  0.65956  0.73927  1.0000
  H   H2351     1.0  0.86805  0.74263  0.72928  1.0000
  H   H2352     1.0  0.90511  0.71981  0.73248  1.0000
  C   C2950     1.0  0.73795  0.86827  0.73212  1.0000
  C   C2951     1.0  0.74947  0.84721  0.72840  1.0000
  C   C2952     1.0  0.73490  0.81639  0.73134  1.0000
  C   C2953     1.0  0.70871  0.80663  0.73797  1.0000
  C   C2954     1.0  0.69730  0.82768  0.74165  1.0000
  C   C2955     1.0  0.71200  0.85839  0.73886  1.0000
  H   H2353     1.0  0.76968  0.85471  0.72326  1.0000
  H   H2354     1.0  0.74382  0.80024  0.72845  1.0000
  H   H2355     1.0  0.67714  0.82026  0.74682  1.0000
  H   H2356     1.0  0.70356  0.87448  0.74218  1.0000
  C   C2956     1.0  0.63579  0.92806  0.68900  1.0000
  C   C2957     1.0  0.65159  0.95568  0.68353  1.0000
  C   C2958     1.0  0.59575  0.51519  0.63753  1.0000
  C   C2959     1.0  0.62517  0.93488  0.66457  1.0000
  C   C2960     1.0  0.60909  0.90739  0.67009  1.0000
  C   C2961     1.0  0.61432  0.90411  0.68222  1.0000
  C   C2962     1.0  0.71863  0.75584  0.78675  1.0000
  H   H2357     1.0  0.67736  0.89001  0.69423  1.0000
  H   H2358     1.0  0.59280  0.88859  0.66500  1.0000
  H   H2359     1.0  0.60192  0.88276  0.68639  1.0000
  C   C2963     1.0  0.65190  0.93252  0.77793  1.0000
  H   H2360     1.0  0.95915  0.61141  0.64293  1.0000
  Fe  Fe203     1.0  0.68574  0.94895  0.74668  1.0000
  C   C2964     1.0  0.64477  0.78491  0.65930  1.0000
  C   C2965     1.0  0.64597  0.75967  0.65347  1.0000
  C   C2966     1.0  0.65376  0.73917  0.65978  1.0000
  C   C2967     1.0  0.65966  0.74357  0.67195  1.0000
  C   C2968     1.0  0.65663  0.76776  0.67801  1.0000
  C   C2969     1.0  0.65042  0.78916  0.67151  1.0000
  P   P100      1.0  0.66349  0.77255  0.69382  1.0000
  C   C2970     1.0  0.64400  0.73810  0.70174  1.0000
  C   C2971     1.0  0.70364  0.78590  0.69616  1.0000
  C   C2972     1.0  0.71641  0.76619  0.70010  1.0000
  C   C2973     1.0  0.74749  0.77705  0.70223  1.0000
  C   C2974     1.0  0.76597  0.80754  0.70041  1.0000
  C   C2975     1.0  0.75349  0.82712  0.69624  1.0000
  C   C2976     1.0  0.72246  0.81627  0.69398  1.0000
  C   C2977     1.0  0.64855  0.73857  0.71401  1.0000
  C   C2978     1.0  0.63348  0.71258  0.72052  1.0000
  C   C2979     1.0  0.61376  0.68582  0.71482  1.0000
  C   C2980     1.0  0.60852  0.68534  0.70264  1.0000
  C   C2981     1.0  0.62354  0.71134  0.69611  1.0000
  C   C2982     1.0  0.65013  0.79907  0.70042  1.0000
  C   C2983     1.0  0.62153  0.79763  0.69729  1.0000
  C   C2984     1.0  0.61068  0.81753  0.70263  1.0000
  C   C2985     1.0  0.62826  0.83881  0.71118  1.0000
  C   C2986     1.0  0.65608  0.83935  0.71474  1.0000
  C   C2987     1.0  0.66686  0.81935  0.70952  1.0000
  H   H2361     1.0  0.63937  0.80108  0.65432  1.0000
  H   H2362     1.0  0.64089  0.75600  0.64407  1.0000
  H   H2363     1.0  0.65493  0.71962  0.65530  1.0000
  H   H2364     1.0  0.66608  0.72775  0.67669  1.0000
  H   H2365     1.0  0.65016  0.80915  0.67583  1.0000
  H   H2366     1.0  0.70246  0.74249  0.70159  1.0000
  H   H2367     1.0  0.75724  0.76185  0.70541  1.0000
  H   H2368     1.0  0.78996  0.81593  0.70228  1.0000
  H   H2369     1.0  0.76782  0.85076  0.69487  1.0000
  H   H2370     1.0  0.71306  0.83167  0.69076  1.0000
  H   H2371     1.0  0.66399  0.75904  0.71856  1.0000
  H   H2372     1.0  0.63747  0.71321  0.72997  1.0000
  H   H2373     1.0  0.60307  0.66529  0.71979  1.0000
  H   H2374     1.0  0.59350  0.66446  0.69820  1.0000
  H   H2375     1.0  0.61919  0.71007  0.68671  1.0000
  H   H2376     1.0  0.60770  0.78106  0.69076  1.0000
  H   H2377     1.0  0.58867  0.81653  0.70018  1.0000
  H   H2378     1.0  0.62027  0.85473  0.71518  1.0000
  H   H2379     1.0  0.66929  0.85515  0.72163  1.0000
  H   H2380     1.0  0.68804  0.81961  0.71276  1.0000
  C   C2988     1.0  0.74804  0.60127  0.75315  1.0000
  H   H2381     1.0  0.71480  0.87901  0.70623  1.0000
  C   C2989     1.0  0.75294  0.91211  0.69774  1.0000
  H   H2382     1.0  0.80731  0.54967  0.78637  1.0000
  C   C2990     1.0  0.54179  0.49118  0.63418  1.0000
  C   C2991     1.0  0.69624  0.96530  0.64495  1.0000
  C   C2992     1.0  0.78277  0.68126  0.76577  1.0000
  C   C2993     1.0  0.92942  0.73800  0.78052  1.0000
  H   H2383     1.0  0.77117  0.60469  0.75191  1.0000
  C   C2994     1.0  0.83677  0.60633  0.76676  1.0000
  C   C2995     1.0  0.91120  0.70673  0.77954  1.0000
  C   C2996     1.0  0.58520  0.81617  0.66124  1.0000
  C   C2997     1.0  0.72734  0.58846  0.74379  1.0000
  C   C2998     1.0  0.69727  0.58405  0.74498  1.0000
  C   C2999     1.0  0.68795  0.59283  0.75548  1.0000
  C   C3000     1.0  0.70860  0.60576  0.76483  1.0000
  H   H2384     1.0  0.66124  0.70857  0.77325  1.0000
  H   H2385     1.0  0.73473  0.58246  0.73552  1.0000
  H   H2386     1.0  0.68141  0.57478  0.73763  1.0000
  H   H2387     1.0  0.66487  0.59034  0.75629  1.0000
  Fe  Fe204     1.0  0.94932  0.68111  0.73898  1.0000
  H   H2388     1.0  0.76593  0.67020  0.75893  1.0000
  H   H2389     1.0  0.77106  0.57306  0.78852  1.0000
  H   H2390     1.0  0.52828  0.82964  0.65610  1.0000
  C   C3001     1.0  0.57184  0.70128  0.66643  1.0000
  Fe  Fe205     1.0  0.52996  0.57942  0.63738  1.0000
  C   C3002     1.0  0.72178  0.89779  0.77545  1.0000
  H   H2391     1.0  0.67813  0.74351  0.62875  1.0000
  H   H2392     1.0  0.50630  0.74897  0.68229  1.0000
  C   C3003     1.0  0.53629  0.79539  0.67875  1.0000
  C   C3004     1.0  0.88205  0.71670  0.76387  1.0000
  H   H2393     1.0  0.90952  0.57538  0.78792  1.0000
  H   H2394     1.0  0.69449  0.93005  0.67936  1.0000
  C   C3005     1.0  0.51461  0.77252  0.68524  1.0000
  C   C3006     1.0  0.78919  0.58266  0.78242  1.0000
  H   H2395     1.0  0.65984  0.88309  0.65314  1.0000
  C   C3007     1.0  0.53294  0.83329  0.69245  1.0000
  H   H2396     1.0  0.79870  0.72452  0.75731  1.0000
  H   H2397     1.0  0.56830  0.68220  0.76352  1.0000
  C   C3008     1.0  0.83341  0.58097  0.77334  1.0000
  S   S404      1.0  0.57872  0.58608  0.63679  1.0000
  H   H2398     1.0  0.62151  0.85198  0.75348  1.0000
  C   C3009     1.0  0.52123  0.78240  0.65426  1.0000
  C   C3010     1.0  0.47546  0.77786  0.63795  1.0000
  C   C3011     1.0  0.63421  0.71793  0.78639  1.0000
  C   C3012     1.0  0.51273  0.81028  0.69924  1.0000
  S   S405      1.0  0.72757  0.96603  0.71639  1.0000
  C   C3013     1.0  0.96079  0.67077  0.62667  1.0000
  C   C3014     1.0  0.90108  0.74752  0.76448  1.0000
  H   H2399     1.0  0.83733  0.75103  0.77276  1.0000
  C   C3015     1.0  0.57300  0.79370  0.79142  1.0000
  H   H2400     1.0  0.67996  0.69325  0.63134  1.0000
  H   H2401     1.0  0.85495  0.61535  0.76054  1.0000
  C   C3016     1.0  0.88709  0.69638  0.77133  1.0000
  C   C3017     1.0  0.51098  0.89013  0.65078  1.0000
  C   C3018     1.0  0.74279  0.61520  0.78956  1.0000
  H   H2402     1.0  0.76908  0.90741  0.70314  1.0000
  H   H2403     1.0  0.51942  0.48714  0.63711  1.0000
  S   S406      1.0  0.59532  0.65565  0.62961  1.0000
  C   C3019     1.0  0.80120  0.71217  0.76486  1.0000
  C   C3020     1.0  0.53471  0.90142  0.65904  1.0000
  H   H2404     1.0  0.84903  0.57029  0.77227  1.0000
  H   H2405     1.0  0.77823  0.88431  0.75473  1.0000
  C   C3021     1.0  0.61554  0.69509  0.76706  1.0000
  H   H2406     1.0  0.46491  0.93259  0.65630  1.0000
  C   C3022     1.0  0.70509  0.78828  0.77395  1.0000
  H   H2407     1.0  0.54749  0.91381  0.67728  1.0000
  C   C3023     1.0  0.91442  0.64640  0.78199  1.0000
  C   C3024     1.0  0.91839  0.64594  0.76976  1.0000
  C   C3025     1.0  0.91798  0.61981  0.76406  1.0000
  C   C3026     1.0  0.91465  0.59434  0.77057  1.0000
  C   C3027     1.0  0.63964  0.90826  0.78577  1.0000
  H   H2408     1.0  0.57709  0.68143  0.66661  1.0000
  H   H2409     1.0  0.86330  0.70853  0.75759  1.0000
  C   C3028     1.0  0.54420  0.82590  0.68213  1.0000
  C   C3029     1.0  0.65558  0.96155  0.78184  1.0000
  H   H2410     1.0  0.87227  0.67256  0.77061  1.0000
  H   H2411     1.0  0.56555  0.70236  0.68516  1.0000
  C   C3030     1.0  0.61865  0.84770  0.64649  1.0000
  C   C3031     1.0  0.52888  0.90468  0.67092  1.0000
  C   C3032     1.0  0.65901  0.82421  0.77231  1.0000
  C   C3033     1.0  0.58155  0.70249  0.78094  1.0000
  H   H2412     1.0  0.55764  0.90814  0.65618  1.0000
  H   H2413     1.0  0.92216  0.66576  0.76456  1.0000
  H   H2414     1.0  0.92057  0.61952  0.75457  1.0000
  H   H2415     1.0  0.69977  0.79337  0.76515  1.0000
  C   C3034     1.0  0.78650  0.66498  0.77535  1.0000
  C   C3035     1.0  0.63387  0.85560  0.66711  1.0000
  C   C3036     1.0  0.79209  0.60784  0.77566  1.0000
  Fe  Fe206     1.0  0.54625  0.64542  0.63088  1.0000
  C   C3037     1.0  0.50329  0.77992  0.69556  1.0000
  C   C3038     1.0  0.91133  0.59483  0.78281  1.0000
  S   S407      1.0  0.66114  0.92487  0.76333  1.0000
  C   C3039     1.0  0.47526  0.88580  0.66619  1.0000
  H   H2416     1.0  0.62318  0.85411  0.63736  1.0000
  H   H2417     1.0  0.63655  0.88567  0.78290  1.0000
  H   H2418     1.0  0.58967  0.79674  0.75065  1.0000
  C   C3040     1.0  0.56495  0.74072  0.65540  1.0000
  C   C3041     1.0  0.74201  0.94225  0.68287  1.0000
  C   C3042     1.0  0.95731  0.62382  0.63526  1.0000
  H   H2419     1.0  0.77798  0.93541  0.75659  1.0000
  H   H2420     1.0  0.64511  0.77637  0.77582  1.0000
  C   C3043     1.0  0.55906  0.73895  0.67660  1.0000
  H   H2421     1.0  0.60251  0.82619  0.67918  1.0000
  C   C3044     1.0  0.63918  0.70760  0.77534  1.0000
  H   H2422     1.0  0.74235  0.84178  0.76563  1.0000
  H   H2423     1.0  0.61500  0.52959  0.64295  1.0000
  H   H2424     1.0  0.56322  0.51847  0.64962  1.0000
  C   C3045     1.0  0.80910  0.68001  0.78393  1.0000
  H   H2425     1.0  0.91507  0.57442  0.76614  1.0000
  C   C3046     1.0  0.50357  0.75438  0.64870  1.0000
  C   C3047     1.0  0.71106  0.92505  0.68434  1.0000
  H   H2426     1.0  0.57585  0.81127  0.64236  1.0000
  H   H2427     1.0  0.56509  0.75126  0.64701  1.0000
  H   H2428     1.0  0.55519  0.74815  0.68486  1.0000
  C   C3048     1.0  0.71241  0.76339  0.77547  1.0000
  H   H2429     1.0  0.70548  0.90193  0.78083  1.0000
  C   C3049     1.0  0.58672  0.69248  0.76987  1.0000
  H   H2430     1.0  0.61952  0.68695  0.75855  1.0000
  H   H2431     1.0  0.89743  0.76301  0.75845  1.0000
  H   H2432     1.0  0.74164  0.92121  0.65692  1.0000
  C   C3050     1.0  0.49239  0.80555  0.64370  1.0000
  C   C3051     1.0  0.56549  0.71318  0.67686  1.0000
  H   H2433     1.0  0.56907  0.80181  0.78296  1.0000
  H   H2434     1.0  0.71259  0.74956  0.76788  1.0000
  C   C3052     1.0  0.60869  0.80436  0.75681  1.0000
  H   H2435     1.0  0.66544  0.86920  0.76683  1.0000
  H   H2436     1.0  0.53977  0.85692  0.69512  1.0000
  C   C3053     1.0  0.51518  0.80786  0.65182  1.0000
  H   H2437     1.0  0.74170  0.94405  0.76985  1.0000
  C   C3054     1.0  0.65165  0.84518  0.76602  1.0000
  H   H2438     1.0  0.50401  0.81603  0.70724  1.0000
  H   H2439     1.0  0.72387  0.73618  0.78785  1.0000
  C   C3055     1.0  0.64034  0.79312  0.77099  1.0000
  H   H2440     1.0  0.71029  0.90316  0.63865  1.0000
  C   C3056     1.0  0.48084  0.75222  0.64053  1.0000
  C   C3057     1.0  0.70405  0.80609  0.78371  1.0000
  S   S408      1.0  0.52651  0.68047  0.62795  1.0000
  C   C3058     1.0  0.82715  0.71101  0.78310  1.0000
  C   C3059     1.0  0.91122  0.62077  0.78850  1.0000
  C   C3060     1.0  0.57155  0.71506  0.65571  1.0000
  C   C3061     1.0  0.61559  0.78325  0.76312  1.0000
  S   S409      1.0  0.49798  0.53096  0.64189  1.0000
  H   H2441     1.0  0.55876  0.84410  0.67674  1.0000
  C   C3062     1.0  0.76277  0.91703  0.76178  1.0000
  H   H2442     1.0  0.57632  0.70568  0.64762  1.0000
  C   C3063     1.0  0.81639  0.61985  0.76799  1.0000
  H   H2443     1.0  0.50722  0.73416  0.65055  1.0000
  H   H2444     1.0  0.48820  0.82540  0.64169  1.0000
  C   C3064     1.0  0.62658  0.83535  0.75835  1.0000
  C   C3065     1.0  0.55803  0.75254  0.66581  1.0000
  P   P101      1.0  0.76482  0.62453  0.77629  1.0000
  H   H2445     1.0  0.60203  0.75918  0.76181  1.0000
  P   P102      1.0  0.69272  0.83713  0.78161  1.0000
  H   H2446     1.0  0.55894  0.69964  0.78312  1.0000
  C   C3066     1.0  0.64763  0.64291  0.78306  1.0000
  C   C3067     1.0  0.92468  0.75822  0.77286  1.0000
  C   C3068     1.0  0.69495  0.93921  0.63898  1.0000
  H   H2447     1.0  0.93933  0.78218  0.77337  1.0000
  C   C3069     1.0  0.56664  0.50886  0.64132  1.0000
  H   H2448     1.0  0.68057  0.93088  0.63116  1.0000
  C   C3070     1.0  0.60534  0.71567  0.78924  1.0000
  C   C3071     1.0  0.64631  0.95903  0.67142  1.0000
  H   H2449     1.0  0.78787  0.97073  0.65131  1.0000
  H   H2450     1.0  0.60326  0.61614  0.78954  1.0000
  P   P103      1.0  0.91598  0.68022  0.78958  1.0000
  C   C3072     1.0  0.73114  0.96042  0.65950  1.0000
  C   C3073     1.0  0.58093  0.76886  0.79189  1.0000
  C   C3074     1.0  0.72222  0.58511  0.79126  1.0000
  H   H2451     1.0  0.71998  0.56742  0.78481  1.0000
  C   C3075     1.0  0.48142  0.88232  0.65433  1.0000
  H   H2452     1.0  0.46338  0.87408  0.64776  1.0000
  C   C3076     1.0  0.62617  0.63116  0.79198  1.0000
  S   S410      1.0  0.73653  0.96941  0.74554  1.0000
  H   H2453     1.0  0.65280  0.72706  0.79271  1.0000
  H   H2454     1.0  0.48700  0.76210  0.70066  1.0000
  H   H2455     1.0  0.81272  0.66769  0.79124  1.0000
  H   H2456     1.0  0.84459  0.72244  0.78971  1.0000
  H   H2457     1.0  0.94733  0.74691  0.78713  1.0000
  H   H2458     1.0  0.49535  0.90036  0.68368  1.0000
  H   H2459     1.0  0.46771  0.73069  0.63607  1.0000
  C   C3077     1.0  0.49926  0.89701  0.67450  1.0000
  H   H2460     1.0  0.85771  0.62796  0.79188  1.0000
  H   H2461     1.0  0.49306  0.91479  0.62661  1.0000
  C   C3078     1.0  0.59997  0.50368  0.62661  1.0000
  C   C3079     1.0  0.46900  0.90144  0.62650  1.0000
  Fe  Fe207     1.0  0.60709  0.91891  0.83159  1.0000
  S   S411      1.0  0.57244  0.87067  0.83130  1.0000
  S   S412      1.0  0.62221  0.94886  0.81530  1.0000
  Fe  Fe208     1.0  0.61892  0.91900  0.85889  1.0000
  S   S413      1.0  0.58500  0.87074  0.86017  1.0000
  C   C3080     1.0  0.58676  0.75864  0.80281  1.0000
  Fe  Fe209     1.0  0.60457  0.86155  0.84350  1.0000
  S   S414      1.0  0.62355  0.82614  0.84084  1.0000
  Fe  Fe210     1.0  0.55506  0.88394  0.84797  1.0000
  S   S415      1.0  0.50409  0.86208  0.85134  1.0000
  S   S416      1.0  0.64020  0.90889  0.84276  1.0000
  S   S417      1.0  0.58796  0.93320  0.84766  1.0000
  Fe  Fe211     1.0  0.60027  0.62460  0.83492  1.0000
  S   S418      1.0  0.55201  0.61388  0.83928  1.0000
  S   S419      1.0  0.60630  0.62082  0.81487  1.0000
  Fe  Fe212     1.0  0.61850  0.63499  0.86146  1.0000
  S   S420      1.0  0.57157  0.62525  0.86693  1.0000
  S   S421      1.0  0.65820  0.65254  0.87479  1.0000
  Fe  Fe213     1.0  0.55326  0.58187  0.85436  1.0000
  S   S422      1.0  0.49962  0.50921  0.86077  1.0000
  Fe  Fe214     1.0  0.57119  0.65410  0.85166  1.0000
  S   S423      1.0  0.54967  0.68785  0.85294  1.0000
  S   S424      1.0  0.60385  0.59404  0.84915  1.0000
  S   S425      1.0  0.61897  0.66628  0.84674  1.0000
  C   C3081     1.0  0.85854  0.59183  0.94356  1.0000
  H   H2462     1.0  0.63690  0.83721  0.90412  1.0000
  H   H2463     1.0  0.67362  0.81081  0.90089  1.0000
  H   H2464     1.0  0.75811  0.61141  0.91510  1.0000
  C   C3082     1.0  0.60562  0.77033  0.91127  1.0000
  H   H2465     1.0  0.75888  0.80645  0.90865  1.0000
  C   C3083     1.0  0.56446  0.66488  0.80638  1.0000
  C   C3084     1.0  0.50773  0.91918  0.81310  1.0000
  C   C3085     1.0  0.60128  0.76763  0.92345  1.0000
  H   H2466     1.0  0.68161  0.76246  0.94200  1.0000
  C   C3086     1.0  0.68621  0.85128  0.79568  1.0000
  H   H2467     1.0  0.57470  0.80981  0.82087  1.0000
  C   C3087     1.0  0.60238  0.70522  0.88344  1.0000
  C   C3088     1.0  0.90569  0.63706  0.93214  1.0000
  Fe  Fe215     1.0  0.68576  0.66192  0.94691  1.0000
  S   S426      1.0  0.65733  0.63517  0.93083  1.0000
  S   S427      1.0  0.71509  0.71189  0.94813  1.0000
  C   C3089     1.0  0.75067  0.59034  0.95215  1.0000
  C   C3090     1.0  0.64074  0.84375  0.89498  1.0000
  C   C3091     1.0  0.47540  0.87618  0.85017  1.0000
  H   H2468     1.0  0.59141  0.68218  0.88645  1.0000
  C   C3092     1.0  0.52477  0.67209  0.82251  1.0000
  C   C3093     1.0  0.60706  0.75746  0.88319  1.0000
  C   C3094     1.0  0.88785  0.59361  0.94479  1.0000
  H   H2469     1.0  0.72534  0.89455  0.81945  1.0000
  H   H2470     1.0  0.49635  0.72918  0.86887  1.0000
  S   S428      1.0  0.74427  0.95273  0.94417  1.0000
  H   H2471     1.0  0.48645  0.77513  0.86532  1.0000
  C   C3095     1.0  0.65674  0.64894  0.89046  1.0000
  C   C3096     1.0  0.63205  0.62701  0.89596  1.0000
  C   C3097     1.0  0.63283  0.62328  0.90828  1.0000
  C   C3098     1.0  0.65777  0.64189  0.91536  1.0000
  C   C3099     1.0  0.68208  0.66450  0.90993  1.0000
  C   C3100     1.0  0.68166  0.66775  0.89754  1.0000
  H   H2472     1.0  0.61280  0.61221  0.89067  1.0000
  H   H2473     1.0  0.61415  0.60547  0.91237  1.0000
  H   H2474     1.0  0.70142  0.67904  0.91522  1.0000
  H   H2475     1.0  0.70090  0.68477  0.89340  1.0000
  H   H2476     1.0  0.93327  0.74376  0.94785  1.0000
  C   C3101     1.0  0.63416  0.63810  0.80403  1.0000
  H   H2477     1.0  0.65463  0.87015  0.86257  1.0000
  H   H2478     1.0  0.54352  0.73384  0.87855  1.0000
  H   H2479     1.0  0.93417  0.61768  0.94002  1.0000
  C   C3102     1.0  0.88431  0.64222  0.88166  1.0000
  H   H2480     1.0  0.68877  0.82334  0.88024  1.0000
  H   H2481     1.0  0.73826  0.82620  0.87364  1.0000
  C   C3103     1.0  0.60267  0.78801  0.84444  1.0000
  C   C3104     1.0  0.61703  0.76800  0.84438  1.0000
  C   C3105     1.0  0.60091  0.73713  0.84673  1.0000
  C   C3106     1.0  0.57033  0.72610  0.84928  1.0000
  C   C3107     1.0  0.55582  0.74602  0.84910  1.0000
  C   C3108     1.0  0.57197  0.77700  0.84682  1.0000
  H   H2482     1.0  0.64075  0.77642  0.84255  1.0000
  H   H2483     1.0  0.61229  0.72206  0.84671  1.0000
  H   H2484     1.0  0.53199  0.73743  0.85072  1.0000
  H   H2485     1.0  0.56062  0.79222  0.84677  1.0000
  C   C3109     1.0  0.68539  0.66926  0.79809  1.0000
  C   C3110     1.0  0.85710  0.65745  0.89638  1.0000
  C   C3111     1.0  0.75949  0.57083  0.94549  1.0000
  H   H2486     1.0  0.70968  0.96312  0.91143  1.0000
  H   H2487     1.0  0.50504  0.92272  0.84730  1.0000
  C   C3112     1.0  0.65646  0.94294  0.88891  1.0000
  H   H2488     1.0  0.84027  0.66608  0.89840  1.0000
  C   C3113     1.0  0.67541  0.77565  0.82281  1.0000
  H   H2489     1.0  0.61333  0.92218  0.91341  1.0000
  C   C3114     1.0  0.63346  0.93098  0.90822  1.0000
  C   C3115     1.0  0.63073  0.93058  0.89576  1.0000
  H   H2490     1.0  0.62146  0.76263  0.90733  1.0000
  H   H2491     1.0  0.50370  0.62324  0.82257  1.0000
  C   C3116     1.0  0.63424  0.94182  0.80110  1.0000
  H   H2492     1.0  0.70841  0.68385  0.80053  1.0000
  H   H2493     1.0  0.62145  0.89395  0.80310  1.0000
  C   C3117     1.0  0.55026  0.63917  0.90232  1.0000
  C   C3118     1.0  0.55934  0.62135  0.90969  1.0000
  C   C3119     1.0  0.54940  0.59024  0.90729  1.0000
  C   C3120     1.0  0.53043  0.57692  0.89752  1.0000
  C   C3121     1.0  0.52106  0.59460  0.89005  1.0000
  C   C3122     1.0  0.53139  0.62595  0.89247  1.0000
  P   P104      1.0  0.49709  0.57744  0.87721  1.0000
  C   C3123     1.0  0.51810  0.56734  0.86594  1.0000
  H   H2494     1.0  0.89256  0.57804  0.95042  1.0000
  H   H2495     1.0  0.67050  0.66311  0.81620  1.0000
  H   H2496     1.0  0.84867  0.65647  0.87760  1.0000
  C   C3124     1.0  0.57035  0.79406  0.90980  1.0000
  C   C3125     1.0  0.65245  0.85382  0.81085  1.0000
  H   H2497     1.0  0.81015  0.61565  0.91246  1.0000
  C   C3126     1.0  0.50733  0.56301  0.85313  1.0000
  C   C3127     1.0  0.52124  0.54917  0.84412  1.0000
  C   C3128     1.0  0.54609  0.53978  0.84783  1.0000
  C   C3129     1.0  0.55721  0.54424  0.86061  1.0000
  C   C3130     1.0  0.54352  0.55817  0.86957  1.0000
  H   H2498     1.0  0.55172  0.80072  0.92623  1.0000
  C   C3131     1.0  0.49185  0.62116  0.86231  1.0000
  C   C3132     1.0  0.92636  0.75036  0.91820  1.0000
  C   C3133     1.0  0.77380  0.55445  0.95104  1.0000
  C   C3134     1.0  0.48522  0.89544  0.81880  1.0000
  H   H2499     1.0  0.55024  0.71969  0.82117  1.0000
  H   H2500     1.0  0.55811  0.66330  0.90417  1.0000
  H   H2501     1.0  0.57436  0.63162  0.91721  1.0000
  H   H2502     1.0  0.55670  0.57648  0.91296  1.0000
  H   H2503     1.0  0.47192  0.54855  0.90006  1.0000
  H   H2504     1.0  0.52521  0.64031  0.88672  1.0000
  H   H2505     1.0  0.67542  0.88777  0.89964  1.0000
  C   C3135     1.0  0.54129  0.63941  0.81091  1.0000
  H   H2506     1.0  0.70501  0.96357  0.88956  1.0000
  H   H2507     1.0  0.48831  0.56778  0.85044  1.0000
  H   H2508     1.0  0.51258  0.54491  0.83511  1.0000
  H   H2509     1.0  0.55519  0.52889  0.84150  1.0000
  H   H2510     1.0  0.57420  0.53645  0.86339  1.0000
  H   H2511     1.0  0.55126  0.56004  0.87861  1.0000
  H   H2512     1.0  0.51148  0.62156  0.85784  1.0000
  H   H2513     1.0  0.84055  0.57507  0.94837  1.0000
  H   H2514     1.0  0.63758  0.83251  0.94590  1.0000
  C   C3136     1.0  0.92572  0.73733  0.93876  1.0000
  C   C3137     1.0  0.56077  0.78271  0.88130  1.0000
  H   H2515     1.0  0.86535  0.70354  0.82343  1.0000
  C   C3138     1.0  0.48191  0.90681  0.84829  1.0000
  H   H2516     1.0  0.72219  0.76734  0.80530  1.0000
  C   C3139     1.0  0.57052  0.80835  0.80185  1.0000
  C   C3140     1.0  0.91136  0.61611  0.93901  1.0000
  H   H2517     1.0  0.91082  0.63814  0.90906  1.0000
  C   C3141     1.0  0.89587  0.69885  0.92420  1.0000
  H   H2518     1.0  0.81666  0.61705  0.80598  1.0000
  C   C3142     1.0  0.70630  0.88012  0.81396  1.0000
  C   C3143     1.0  0.57617  0.79829  0.81274  1.0000
  H   H2519     1.0  0.82022  0.65474  0.82177  1.0000
  C   C3144     1.0  0.66289  0.72243  0.82599  1.0000
  H   H2520     1.0  0.84370  0.69837  0.93378  1.0000
  C   C3145     1.0  0.63103  0.91286  0.79727  1.0000
  C   C3146     1.0  0.55460  0.80844  0.87951  1.0000
  H   H2521     1.0  0.63768  0.69785  0.90622  1.0000
  C   C3147     1.0  0.58955  0.78278  0.90430  1.0000
  H   H2522     1.0  0.52308  0.55277  0.89576  1.0000
  C   C3148     1.0  0.63064  0.73722  0.81331  1.0000
  C   C3149     1.0  0.63049  0.76418  0.87513  1.0000
  C   C3150     1.0  0.67707  0.87212  0.81795  1.0000
  C   C3151     1.0  0.66390  0.65762  0.80701  1.0000
  H   H2523     1.0  0.77309  0.81753  0.88790  1.0000
  C   C3152     1.0  0.53938  0.75407  0.87751  1.0000
  H   H2524     1.0  0.95190  0.78173  0.93215  1.0000
  C   C3153     1.0  0.54785  0.69763  0.81797  1.0000
  S   S429      1.0  0.66359  0.94475  0.92982  1.0000
  H   H2525     1.0  0.58027  0.66141  0.80051  1.0000
  H   H2526     1.0  0.57053  0.83080  0.88242  1.0000
  H   H2527     1.0  0.51339  0.90471  0.87398  1.0000
  H   H2528     1.0  0.93624  0.67560  0.81384  1.0000
  C   C3154     1.0  0.56650  0.79189  0.92202  1.0000
  C   C3155     1.0  0.85999  0.64435  0.79887  1.0000
  H   H2529     1.0  0.73931  0.60284  0.94786  1.0000
  H   H2530     1.0  0.64661  0.70902  0.94398  1.0000
  H   H2531     1.0  0.61325  0.75735  0.92873  1.0000
  H   H2532     1.0  0.53125  0.92364  0.81472  1.0000
  C   C3156     1.0  0.66284  0.87240  0.89250  1.0000
  H   H2533     1.0  0.68504  0.90403  0.87890  1.0000
  C   C3157     1.0  0.48540  0.92645  0.88048  1.0000
  H   H2534     1.0  0.46382  0.94074  0.84639  1.0000
  C   C3158     1.0  0.62880  0.83411  0.87406  1.0000
  H   H2535     1.0  0.62295  0.69073  0.81713  1.0000
  H   H2536     1.0  0.51016  0.67493  0.82912  1.0000
  H   H2537     1.0  0.63754  0.82916  0.79439  1.0000
  H   H2538     1.0  0.73368  0.87606  0.79989  1.0000
  C   C3159     1.0  0.47222  0.87243  0.88112  1.0000
  H   H2539     1.0  0.90943  0.62112  0.79803  1.0000
  C   C3160     1.0  0.63735  0.71454  0.81863  1.0000
  C   C3161     1.0  0.88592  0.67158  0.79994  1.0000
  C   C3162     1.0  0.90171  0.63720  0.89060  1.0000
  C   C3163     1.0  0.52125  0.64301  0.81888  1.0000
  H   H2540     1.0  0.89785  0.69123  0.94288  1.0000
  H   H2541     1.0  0.78030  0.53903  0.94589  1.0000
  C   C3164     1.0  0.58469  0.77392  0.81319  1.0000
  C   C3165     1.0  0.65014  0.76785  0.81531  1.0000
  C   C3166     1.0  0.66822  0.88166  0.88082  1.0000
  C   C3167     1.0  0.70485  0.60058  0.80911  1.0000
  C   C3168     1.0  0.56756  0.69429  0.80965  1.0000
  H   H2542     1.0  0.66781  0.70477  0.83010  1.0000
  H   H2543     1.0  0.79182  0.69383  0.93611  1.0000
  H   H2544     1.0  0.55851  0.80474  0.90468  1.0000
  C   C3169     1.0  0.90565  0.70754  0.93592  1.0000
  C   C3170     1.0  0.85260  0.61215  0.93634  1.0000
  H   H2545     1.0  0.89850  0.71471  0.90627  1.0000
  H   H2546     1.0  0.52374  0.82572  0.87205  1.0000
  H   H2547     1.0  0.68970  0.59513  0.81650  1.0000
  H   H2548     1.0  0.50108  0.94898  0.87814  1.0000
  C   C3171     1.0  0.52791  0.80565  0.87375  1.0000
  H   H2549     1.0  0.67336  0.88014  0.82654  1.0000
  P   P105      1.0  0.59561  0.78674  0.88860  1.0000
  C   C3172     1.0  0.64663  0.96607  0.79330  1.0000
  C   C3173     1.0  0.65108  0.86260  0.87161  1.0000
  C   C3174     1.0  0.49245  0.90155  0.87820  1.0000
  Fe  Fe216     1.0  0.69979  0.95685  0.94468  1.0000
  H   H2550     1.0  0.82980  0.61054  0.93569  1.0000
  H   H2551     1.0  0.74887  0.65045  0.92692  1.0000
  H   H2552     1.0  0.88834  0.63849  0.87249  1.0000
  C   C3175     1.0  0.68177  0.75294  0.82816  1.0000
  C   C3176     1.0  0.71089  0.86971  0.80288  1.0000
  H   H2553     1.0  0.56462  0.82776  0.80151  1.0000
  H   H2554     1.0  0.65778  0.74696  0.86508  1.0000
  H   H2555     1.0  0.63291  0.69489  0.87248  1.0000
  H   H2556     1.0  0.75496  0.56826  0.93604  1.0000
  C   C3177     1.0  0.49993  0.93739  0.80543  1.0000
  C   C3178     1.0  0.87420  0.65205  0.90547  1.0000
  C   C3179     1.0  0.77252  0.78904  0.93956  1.0000
  C   C3180     1.0  0.78956  0.81800  0.94434  1.0000
  C   C3181     1.0  0.78085  0.84180  0.94221  1.0000
  C   C3182     1.0  0.75475  0.83655  0.93549  1.0000
  C   C3183     1.0  0.73733  0.80745  0.93074  1.0000
  C   C3184     1.0  0.74673  0.78385  0.93265  1.0000
  P   P106      1.0  0.70449  0.80087  0.92154  1.0000
  C   C3185     1.0  0.67825  0.76165  0.92288  1.0000
  C   C3186     1.0  0.68790  0.82662  0.92637  1.0000
  C   C3187     1.0  0.66632  0.81856  0.93524  1.0000
  C   C3188     1.0  0.65392  0.83875  0.93894  1.0000
  C   C3189     1.0  0.66329  0.86736  0.93398  1.0000
  C   C3190     1.0  0.68518  0.87590  0.92533  1.0000
  C   C3191     1.0  0.69748  0.85568  0.92154  1.0000
  C   C3192     1.0  0.66596  0.74294  0.91280  1.0000
  C   C3193     1.0  0.64642  0.71244  0.91400  1.0000
  C   C3194     1.0  0.63916  0.70033  0.92523  1.0000
  C   C3195     1.0  0.65155  0.71863  0.93527  1.0000
  C   C3196     1.0  0.67128  0.74902  0.93410  1.0000
  C   C3197     1.0  0.71531  0.80836  0.90634  1.0000
  C   C3198     1.0  0.74330  0.80999  0.90256  1.0000
  C   C3199     1.0  0.75146  0.81629  0.89078  1.0000
  C   C3200     1.0  0.73182  0.82111  0.88274  1.0000
  C   C3201     1.0  0.70387  0.81934  0.88644  1.0000
  C   C3202     1.0  0.69549  0.81262  0.89816  1.0000
  H   H2557     1.0  0.77913  0.77051  0.94135  1.0000
  C   C3203     1.0  0.68765  0.95423  0.90716  1.0000
  H   H2558     1.0  0.79364  0.86414  0.94613  1.0000
  H   H2559     1.0  0.74807  0.85518  0.93426  1.0000
  H   H2560     1.0  0.73403  0.76132  0.92891  1.0000
  H   H2561     1.0  0.65931  0.79704  0.93953  1.0000
  C   C3204     1.0  0.93622  0.75870  0.92990  1.0000
  H   H2562     1.0  0.65403  0.88321  0.93699  1.0000
  H   H2563     1.0  0.69289  0.89848  0.92175  1.0000
  H   H2564     1.0  0.71489  0.86305  0.91500  1.0000
  H   H2565     1.0  0.67168  0.75143  0.90399  1.0000
  H   H2566     1.0  0.53959  0.61688  0.80851  1.0000
  C   C3205     1.0  0.83848  0.65948  0.81566  1.0000
  C   C3206     1.0  0.59300  0.72766  0.88730  1.0000
  C   C3207     1.0  0.86391  0.68695  0.81660  1.0000
  C   C3208     1.0  0.65690  0.84330  0.79975  1.0000
  C   C3209     1.0  0.80644  0.63299  0.91756  1.0000
  C   C3210     1.0  0.74365  0.63798  0.79766  1.0000
  H   H2567     1.0  0.60871  0.92161  0.89148  1.0000
  H   H2568     1.0  0.68976  0.79936  0.82458  1.0000
  C   C3211     1.0  0.72503  0.63057  0.80746  1.0000
  H   H2569     1.0  0.47769  0.85319  0.87917  1.0000
  H   H2570     1.0  0.58992  0.76708  0.82168  1.0000
  C   C3212     1.0  0.95246  0.69567  0.79693  1.0000
  C   C3213     1.0  0.62392  0.82413  0.88572  1.0000
  H   H2571     1.0  0.64579  0.78580  0.81120  1.0000
  H   H2572     1.0  0.70122  0.75895  0.83404  1.0000
  P   P107      1.0  0.59780  0.72700  0.80372  1.0000
  H   H2573     1.0  0.68721  0.55474  0.80214  1.0000
  H   H2574     1.0  0.57473  0.72173  0.89344  1.0000
  H   H2575     1.0  0.72533  0.64829  0.81354  1.0000
  S   S430      1.0  0.65449  0.94600  0.87322  1.0000
  H   H2576     1.0  0.62479  0.67648  0.92618  1.0000
  C   C3214     1.0  0.62587  0.71232  0.87554  1.0000
  H   H2577     1.0  0.93430  0.76701  0.91135  1.0000
  H   H2578     1.0  0.61532  0.81982  0.86683  1.0000
  C   C3215     1.0  0.83652  0.63820  0.80679  1.0000
  C   C3216     1.0  0.63997  0.74175  0.87141  1.0000
  C   C3217     1.0  0.79594  0.67693  0.93086  1.0000
  C   C3218     1.0  0.68490  0.95446  0.89472  1.0000
  C   C3219     1.0  0.51245  0.75130  0.87195  1.0000
  C   C3220     1.0  0.48056  0.60270  0.87206  1.0000
  H   H2579     1.0  0.64139  0.78644  0.87150  1.0000
  C   C3221     1.0  0.50687  0.77711  0.86995  1.0000
  C   C3222     1.0  0.82544  0.67951  0.92944  1.0000
  C   C3223     1.0  0.90609  0.72060  0.91535  1.0000
  C   C3224     1.0  0.66187  0.94315  0.91403  1.0000
  C   C3225     1.0  0.77696  0.63041  0.91908  1.0000
  H   H2580     1.0  0.49135  0.88162  0.82489  1.0000
  C   C3226     1.0  0.89669  0.64201  0.90244  1.0000
  H   H2581     1.0  0.91939  0.62980  0.88836  1.0000
  H   H2582     1.0  0.62996  0.84807  0.81403  1.0000
  H   H2583     1.0  0.57876  0.77674  0.93831  1.0000
  C   C3227     1.0  0.77171  0.65241  0.92572  1.0000
  C   C3228     1.0  0.70344  0.57785  0.80101  1.0000
  C   C3229     1.0  0.83095  0.65770  0.92267  1.0000
  P   P108      1.0  0.86894  0.66063  0.92072  1.0000
  H   H2584     1.0  0.92445  0.65514  0.92820  1.0000
  C   C3230     1.0  0.87615  0.63468  0.93040  1.0000
  C   C3231     1.0  0.86200  0.65233  0.88455  1.0000
  C   C3232     1.0  0.47788  0.63963  0.85826  1.0000
  C   C3233     1.0  0.58179  0.77848  0.92884  1.0000
  H   H2585     1.0  0.90700  0.71453  0.80950  1.0000
  H   H2586     1.0  0.80927  0.82186  0.94985  1.0000
  C   C3234     1.0  0.88751  0.69306  0.80873  1.0000
  H   H2587     1.0  0.48658  0.65360  0.85065  1.0000
  H   H2588     1.0  0.70966  0.81159  0.80276  1.0000
  C   C3235     1.0  0.95560  0.68956  0.80885  1.0000
  H   H2589     1.0  0.51750  0.95597  0.80112  1.0000
  C   C3236     1.0  0.46460  0.54362  0.88102  1.0000
  C   C3237     1.0  0.46324  0.48285  0.85561  1.0000
  C   C3238     1.0  0.46962  0.93180  0.80343  1.0000
  H   H2590     1.0  0.46402  0.94642  0.79759  1.0000
  S   S431      1.0  0.71807  0.64906  0.95772  1.0000
  H   H2591     1.0  0.78496  0.65990  0.95854  1.0000
  C   C3239     1.0  0.71765  0.77340  0.79655  1.0000
  C   C3240     1.0  0.71047  0.79849  0.79505  1.0000
  H   H2592     1.0  0.75759  0.66163  0.79622  1.0000
  S   S432      1.0  0.79628  0.72406  0.95911  1.0000
