data_image0
_chemical_formula_structural       SHFeSCH2SFeS2FeS2FeSFeS3FeS2FeS2FeSFeS3CHCSHC6H7C3H2C2HCH2C2H2C7H4CPH2C6H5C3HCHCHCH3C5SCHC10H2CH4PHC5H4C6PCH2CHCHC4HC6H6CHCHCHC3H8C2H2C2H4CHCHCHCH2CH2C2HC2HC2HCHCHC2HC6PC7H2C7H5FeH4C2HC2H2C2HCHCHC6PC7H8CH2C2HCH2C5HCHCH2CH3C3H2C3HCHCHCPC2H6CHCHC2SCH2CHCH2C2H2FeHSC2SHCHS2CFeSHFeS2FeS2FeSFeCS2FeS2FeS2FeSFeS3H3C2HC2HC8H4C2H2C7H7C3H2CHC6H4CH2C5H2C2H4C7PC18H6C2H12C6PC3HC10H12C2H4CH4C7PC11H2CH11CH3CH2CH5C3HPCHC2HC7HCH2CHC3H13C2HC4PC12HCSHC2H3SH4C2H3C3S2CSHFeSFeS2FeS2FeCFeS3FeS2FeS2FeSFeS3FeS2C6H4C2H3C6H4CH4CHSC4H3C2HCHC7H8CHC6PC7H2PC3H3C3H14CH2C2H2CSCH3CH2PC4H2CH3C5H2C2H3CHPC5HPC11HFeH2CH12CH2CHCH2C3H3C4H2C2HC8PC14H5CHC2H2C3HCHC3HCHCHCHCH4CHC4H2CHCH3CHCHCHC3HCHC2H2CHC4H2C4HC2HCH2FeHC3SCHC3FeCHC3H2C6HCPFeHSCHC2H2SCH2SHCHCHC3HCHFeHSHSC2Fe2HSFeCSFeS2FeSHFeSFeHS2FeS2FeS2FeSFeCS2CHSCH2C3SC7H5C8H4SC3H2C6H6CH3CSCH3C5H2CH2CHC8PC3HC14H7CH4CH4CH2CFeCPHC6HC4HC4HC4H2C2H2CH4C2H6C2H3C2HCHC4HC2H3CSCHC7PC18H18C6PC9H11C4HCH2SH4CHCH2CH3C2H4PH2C3HC2HC2HPHSHCH2C3HC2HC2H2C3HC4HC2HCH2CPFeCHSC2HSFeSHSCFeSFeS2FeSHFeSFeS3FeS2FeSHFeSFeS3CHCHCHCH2CHC2H3C7H4CH2CHC8H4C3HCH3C6H5CHC7PC6H5PH3CSFeC2H2C8PC16H7PH8C2SC4H4CH2CH4C3HC2HCHC2PC5PC18H18CHCH3C2HC9HCFeCH2C3H2C2H6CSHC2PCH2C4HCH4C8H2CH6CH2CHC3HC2HCHC3HC3H5SHCH2CH2CFeC5HCHC4HCH3CS2H3C4HSPFeSCHSCFeSFeS2FeSCFeSFeCS2FeSCFeS2FeSFeCS2C9H4C2HC3HC3HCHCSCHC8H6CSHC7H4C2HC11H3CHC2HCHCHC2SH2C5HSC3H2CHCH2C2H2CHC2H2C2HCHCHCHCH2C4SCH3C6H5CH2CH5CHSC2H2CHC4PC3HC11H6CPH10C2H4C3H4C2H3C3HCH2FeCH3CHPC2H3C13H2SH2C2HCH12C4HPHCH2C3H3C3H5CH2PHCHC6FeC3HCSHCHCHC5FeCH2SC2H2PC5FeSHCSFeS2FeS2FeSFeS3FeS2FeS2FeSFeS3FeHSCHCSCH2C2HC6H4C6H6CHC3HCHC2HC2HCH4C2HC2HC6H5CH6CH2C2H2C3H2CHC4HCPC11H9C5HCHCHPH2CH4PC4HC3HC3H4C3HCHC5H2C3H2CHC2HCHC9PC4HC3H2PC7H4CHCH3CH7CHCHC6HC4SC2FeC6H5CH3C2HC5H2CHC2HCHC2H4CHC3H2CH3CH6C2PCHCH4C2HSH2C6HCHC6FePSCHCS2HFeHSHCSFeS2FeS2FeSFeHS2FeSHFeS2FeSFeS3HCHC3HC7H6C2HCHCH2C7H4CHC4HCHCHC7H4C2H2C2PHC5HC2HCH2CH3C2HCHCHCHC2HCHCH4CH2CHC2PC3HCHC8H2C3HCH4CSH10CSH2CH3C3HC3HCH2C2H3SC2FeC4H2CH2CHC5H2C3HC2HCH2C2HCH2CH5CHCHC7H2CSHC6H3C9PC2HCHC12H7CHCH3CHCHCHCHCHCSHC2H5C4HC4H2CFeSHSCFeSFeS2FeS2FeSFeS3FeS2FeSCFeSFeS3C6H4C4H2CHC3H2CH3C3HCHCHC5HC6H4CH3C6H4C3PC10H10C6PC3H2CHCH2C8H7C2H4PCH7CH2C5HCHSC3H2CHC2HC3H3C4H3C3SCH2C3H2C3H2C6H2C2H2C2H3SH3C2H2C10HSCH2CH2C2H4C3H6C3PC2HCHCH3CHCHC2H2CH2C3H2C2HC2H3CHCH2C3PH2C3HC3HCHC3HC5H2CH3C2HCHCHC2HC2FeHPCHCHCSCHC2H2CHC6HCH2C4H2C2H2SCHFeSC2H2CSFeSCS2FeS2FeSHFeSFeS3FeS2FeSHFeSFeS3HSCHCH2C6H4CH2C2HC6H5C2H3C2H2C8H4CH2CH2CH2C2PC8H2C2HC3H3CH2CHCHC4HCSCH2C2HCH4PCFeH2FeCHC9HC5HC2HCHCH4CH4C2H2CHCH2C2HCHC5H2C2HCH2CHPHCH2CH3CHC2HCHCHC6HC4HC7HCPHC2HC2H4C9H2CHCH3CH6C2HCHFeH2SC4HCHCHPH7C2FeHCHCHCHCH2CSC3SC3FeSCFeS2FeS2FeSFeS3FeS2FeS2FeSFeS3FeS2HC3H2CHCH3C3SCHCHC2HC6H4C3H2CSHC8H4CHCHC6H6C2HCH5C5HC2PC3HCH3C2H3C2PHCHCHC2HC7PC18HPH15CPHCHC2H5CH2C3HC3HC4HC3HC2H2CHCH3C2HC2H3C6PC5HC4HC7H2C2H7C2H7CHCHCH2CH2C2HC3H2C2SCHC3H5C4H3CH2C4H2CH2C3H2CHCH2CHCHCHCH3C4HC5HC2PH3CHSH2FeSCHFeHSH2SC2FeS2FeSCFeCFeS3FeS2FeSCFeSFe2S2H2C2HC6H6C4HC13H5C2S2C7H5CHCHCHC2HFeC6H2C3H3CHC3H2C3HPC2H2CH2C8PC18H20C2PHC2HCPC3HCHCHSHCH2CHCH2C2HC2H4C2H2C4H6C5SPHC3SHC2HC6H6C2HC3HC5HCH3C2HC4HC3H2C7HCH6CHCPCHC2H2CHSCHSCH4CHCHC3H3CHCHC3HC2SHFeH2CH4SH3CHCH3C4HSH5CH2SFeSFeS2FeSCFeS2FeSFeS3FeS2FeS2FeSFeS3C2HCH3CFeHC7HCH3C6H7C7H6C7H4CHCHC3PHC6PC18HSH22C4HC4H2C5HCHC4SHC3PH2CH4CH4C6PC14H16C2H3C2H5C6HCHC6H6C2HCH2CHCHCHC2HCHC4HCHC2H2C2HC6PHCH2CH2C2H2SC3H3C2HCHFeC3H2SPH2C3HCSHFeSCSH2SH2FeSCFeS2FeSPFeSFeS3FeSCFeS2FeSFeS3CHCHC6H5CH6SH2C2HC8H5C4HC8H6CHCHC2HCHCHC4HC2HCH6C4H2CH2C2H2C2H4C2HCHCHSHC2HCH3C3SC2HC2HFeHCHCHCHCH3CH3C3HC2H3CH2C3PHC2H2CHC2H2CHC9PC9HC8H12C2H6C13H2C2H5CHC3H2C6PC8HC6HC2H20C6PC3H3CSPH2CHFeHCHC4HC2HC2H2C5HC3HC3HSC5HCHC2HC2HC3HCHFeS2FeS2FeS2FeSFeHS2FeS2FeS2FeSFeS3FeSCSCH3FeC7H4CHCHC6H5C2H2PH4C3HCSC4HC6H4CHC6PC2H3C4HC8H6C2H13C4PC4HC12H4CH10C3HCHSH3CHCHC2H2C3HSH2C4HC4H6CHCHCHCH2CH3C2HCH3C2HPC9HC4HCHC2H3C3H2CH2C2SFeCHPC2H3C6HC3H2C3HPC3HC5HC3HC2HCHCH2CH2C4HSH3CH6C2H2C2HSCHFeHSCH2SPSHSCFeS2CHFeS2FeSHFeSFeHS2FeSHFeS2FeSFeS3H2CH6CSC7H4C3HCH4C6H4C3FeHC8H2CHPH3C9HCHC3HCHCHCH3SCHCH3C4PC18H3CH6C3H4CHCHC7H3C3H2CH11C2HCHC3HCHCHC5HCHC5HC3H3C2HCHC3H4C4PH5PC7H5C6H2C2H3CSHCH2C3H4C5HC2HCHC3HCFeHCH3CHSC2SCH2CH2CHSC2H2
_chemical_formula_sum              "S384 H2304 Fe192 C2880 P96"
_cell_length_a       60.0809
_cell_length_b       60.0502
_cell_length_c       64.361
_cell_angle_alpha    88.4765
_cell_angle_beta     89.1881
_cell_angle_gamma    89.0832

_space_group_name_H-M_alt    "P 1"
_space_group_IT_number       1

loop_
  _space_group_symop_operation_xyz
  'x, y, z'

loop_
  _atom_site_type_symbol
  _atom_site_label
  _atom_site_symmetry_multiplicity
  _atom_site_fract_x
  _atom_site_fract_y
  _atom_site_fract_z
  _atom_site_occupancy
  S   S1        1.0  0.11362  0.03235  0.01710  1.0000
  H   H1        1.0  0.08426  0.25958  0.22627  1.0000
  Fe  Fe1       1.0  0.14174  0.05693  0.01767  1.0000
  S   S2        1.0  0.15057  0.07441  0.04809  1.0000
  C   C1        1.0  0.10686  0.20370  0.20484  1.0000
  H   H2        1.0  0.30757  0.33654  0.21020  1.0000
  H   H3        1.0  0.26704  0.28932  0.20336  1.0000
  S   S3        1.0  0.40521  0.33634  0.03433  1.0000
  Fe  Fe2       1.0  0.40273  0.27010  0.15008  1.0000
  S   S4        1.0  0.41489  0.24088  0.17043  1.0000
  S   S5        1.0  0.41958  0.27557  0.11764  1.0000
  Fe  Fe3       1.0  0.37281  0.28735  0.18571  1.0000
  S   S6        1.0  0.38383  0.26034  0.20801  1.0000
  S   S7        1.0  0.34493  0.31227  0.19349  1.0000
  Fe  Fe4       1.0  0.41881  0.26584  0.19572  1.0000
  S   S8        1.0  0.44962  0.27369  0.21554  1.0000
  Fe  Fe5       1.0  0.37881  0.23715  0.18139  1.0000
  S   S9        1.0  0.36011  0.20501  0.19195  1.0000
  S   S10       1.0  0.40781  0.29498  0.17505  1.0000
  S   S11       1.0  0.36668  0.26430  0.15923  1.0000
  Fe  Fe6       1.0  0.22044  0.08356  0.15656  1.0000
  S   S12       1.0  0.25363  0.08068  0.17294  1.0000
  S   S13       1.0  0.21452  0.06292  0.12743  1.0000
  Fe  Fe7       1.0  0.20080  0.11254  0.19117  1.0000
  S   S14       1.0  0.23221  0.11147  0.20970  1.0000
  S   S15       1.0  0.16759  0.12874  0.19989  1.0000
  Fe  Fe8       1.0  0.24991  0.11772  0.17895  1.0000
  S   S16       1.0  0.27455  0.14628  0.17083  1.0000
  Fe  Fe9       1.0  0.23360  0.07450  0.20259  1.0000
  S   S17       1.0  0.23687  0.04951  0.23061  1.0000
  S   S18       1.0  0.21797  0.12060  0.16067  1.0000
  S   S19       1.0  0.20099  0.07574  0.18586  1.0000
  C   C2        1.0  0.47304  0.26089  0.22855  1.0000
  H   H4        1.0  0.46490  0.22690  0.22273  1.0000
  C   C3        1.0  0.45964  0.32757  0.11770  1.0000
  S   S20       1.0  0.44419  0.37371  0.99714  1.0000
  H   H5        1.0  0.48629  0.29249  0.23700  1.0000
  C   C4        1.0  0.33536  0.19003  0.18615  1.0000
  C   C5        1.0  0.32452  0.19228  0.16705  1.0000
  C   C6        1.0  0.30599  0.17889  0.16277  1.0000
  C   C7        1.0  0.29784  0.16306  0.17745  1.0000
  C   C8        1.0  0.30843  0.16108  0.19670  1.0000
  C   C9        1.0  0.32707  0.17433  0.20091  1.0000
  H   H6        1.0  0.33073  0.20399  0.15539  1.0000
  H   H7        1.0  0.29808  0.18065  0.14781  1.0000
  H   H8        1.0  0.30247  0.14917  0.20828  1.0000
  H   H9        1.0  0.33538  0.17219  0.21564  1.0000
  H   H10       1.0  0.06664  0.01472  0.02744  1.0000
  H   H11       1.0  0.38733  0.03360  0.16657  1.0000
  H   H12       1.0  0.18693  0.04701  0.23614  1.0000
  C   C10       1.0  0.16478  0.14727  0.22066  1.0000
  C   C11       1.0  0.37820  0.03599  0.13432  1.0000
  C   C12       1.0  0.01862  0.19458  0.19423  1.0000
  H   H13       1.0  0.13012  0.15344  0.21488  1.0000
  H   H14       1.0  0.39083  0.02409  0.12937  1.0000
  C   C13       1.0  0.48260  0.39317  0.05362  1.0000
  C   C14       1.0  0.36423  0.38430  0.22646  1.0000
  H   H15       1.0  0.47282  0.31509  0.14671  1.0000
  C   C15       1.0  0.33888  0.32138  0.21901  1.0000
  H   H16       1.0  0.11215  0.13020  0.14409  1.0000
  H   H17       1.0  0.31556  0.20271  0.23896  1.0000
  C   C16       1.0  0.07787  0.16745  0.18190  1.0000
  C   C17       1.0  0.16547  0.01196  0.12113  1.0000
  H   H18       1.0  0.09309  0.14708  0.20621  1.0000
  H   H19       1.0  0.25735  0.01185  0.20808  1.0000
  C   C18       1.0  0.49695  0.27105  0.17601  1.0000
  C   C19       1.0  0.40982  0.31940  0.05740  1.0000
  C   C20       1.0  0.39503  0.32147  0.07450  1.0000
  C   C21       1.0  0.39776  0.30842  0.09300  1.0000
  C   C22       1.0  0.41538  0.29296  0.09477  1.0000
  C   C23       1.0  0.43037  0.29112  0.07778  1.0000
  C   C24       1.0  0.42763  0.30418  0.05928  1.0000
  H   H20       1.0  0.38119  0.33317  0.07337  1.0000
  H   H21       1.0  0.38607  0.31019  0.10581  1.0000
  H   H22       1.0  0.44410  0.27930  0.07885  1.0000
  H   H23       1.0  0.43912  0.30228  0.04636  1.0000
  C   C25       1.0  0.00382  0.22354  0.17118  1.0000
  P   P1        1.0  0.00934  0.07937  0.06361  1.0000
  H   H24       1.0  0.13945  0.21726  0.20906  1.0000
  H   H25       1.0  0.25744  0.16567  0.20811  1.0000
  C   C26       1.0  0.16863  0.07069  0.06995  1.0000
  C   C27       1.0  0.18378  0.05280  0.07199  1.0000
  C   C28       1.0  0.19769  0.05082  0.08956  1.0000
  C   C29       1.0  0.19667  0.06655  0.10545  1.0000
  C   C30       1.0  0.18147  0.08438  0.10346  1.0000
  C   C31       1.0  0.16762  0.08640  0.08587  1.0000
  H   H26       1.0  0.18486  0.04055  0.05998  1.0000
  H   H27       1.0  0.20930  0.03691  0.09086  1.0000
  H   H28       1.0  0.18041  0.09665  0.11545  1.0000
  H   H29       1.0  0.15605  0.10033  0.08453  1.0000
  H   H30       1.0  0.04092  0.14409  0.20467  1.0000
  C   C32       1.0  0.31434  0.26041  0.21076  1.0000
  C   C33       1.0  0.25073  0.17688  0.23910  1.0000
  C   C34       1.0  0.41573  0.49176  0.01533  1.0000
  H   H31       1.0  0.25254  0.03572  0.15767  1.0000
  C   C35       1.0  0.48806  0.30352  0.05669  1.0000
  H   H32       1.0  0.12500  0.25321  0.22222  1.0000
  C   C36       1.0  0.45943  0.48812  0.99950  1.0000
  H   H33       1.0  0.33688  0.12077  0.12323  1.0000
  C   C37       1.0  0.46456  0.33639  0.09786  1.0000
  H   H34       1.0  0.22536  0.37406  0.22292  1.0000
  H   H35       1.0  0.45554  0.45259  0.00515  1.0000
  H   H36       1.0  0.49787  0.21080  0.24111  1.0000
  C   C38       1.0  0.31416  0.34205  0.24248  1.0000
  C   C39       1.0  0.27289  0.47990  0.23044  1.0000
  C   C40       1.0  0.46806  0.41045  0.04739  1.0000
  C   C41       1.0  0.48677  0.33979  0.09148  1.0000
  C   C42       1.0  0.18974  0.27157  0.22316  1.0000
  S   S21       1.0  0.16328  0.03834  0.99449  1.0000
  C   C43       1.0  0.47669  0.23779  0.22968  1.0000
  H   H37       1.0  0.16356  0.02737  0.11211  1.0000
  C   C44       1.0  0.14639  0.04499  0.19982  1.0000
  C   C45       1.0  0.12165  0.22024  0.21035  1.0000
  C   C46       1.0  0.32122  0.40059  0.23462  1.0000
  C   C47       1.0  0.24103  0.37999  0.21654  1.0000
  C   C48       1.0  0.03922  0.07954  0.06025  1.0000
  C   C49       1.0  0.05339  0.07713  0.07737  1.0000
  C   C50       1.0  0.07652  0.07711  0.07440  1.0000
  C   C51       1.0  0.08561  0.07991  0.05441  1.0000
  C   C52       1.0  0.07161  0.08312  0.03744  1.0000
  C   C53       1.0  0.04851  0.08323  0.04037  1.0000
  H   H38       1.0  0.30553  0.11343  0.18881  1.0000
  H   H39       1.0  0.48825  0.34549  0.01989  1.0000
  C   C54       1.0  0.08840  0.15736  0.14672  1.0000
  H   H40       1.0  0.17842  0.21894  0.24111  1.0000
  H   H41       1.0  0.39852  0.49313  0.02057  1.0000
  H   H42       1.0  0.02740  0.12261  0.23553  1.0000
  H   H43       1.0  0.44247  0.32443  0.12225  1.0000
  P   P2        1.0  0.06431  0.18616  0.19982  1.0000
  H   H44       1.0  0.00450  0.21518  0.01972  1.0000
  C   C55       1.0  0.24645  0.01967  0.16301  1.0000
  C   C56       1.0  0.15797  0.05223  0.21703  1.0000
  C   C57       1.0  0.02047  0.24593  0.24138  1.0000
  C   C58       1.0  0.29411  0.09010  0.21227  1.0000
  C   C59       1.0  0.04046  0.20030  0.18833  1.0000
  H   H45       1.0  0.04669  0.07540  0.09301  1.0000
  H   H46       1.0  0.07870  0.08548  0.02196  1.0000
  H   H47       1.0  0.03787  0.08611  0.02711  1.0000
  H   H48       1.0  0.28327  0.06303  0.23245  1.0000
  C   C60       1.0  0.16749  0.18953  0.17805  1.0000
  C   C61       1.0  0.15658  0.20354  0.16369  1.0000
  C   C62       1.0  0.16156  0.22620  0.16246  1.0000
  C   C63       1.0  0.17763  0.23480  0.17544  1.0000
  C   C64       1.0  0.18901  0.22072  0.18961  1.0000
  C   C65       1.0  0.18346  0.19808  0.19114  1.0000
  P   P3        1.0  0.20851  0.23245  0.20721  1.0000
  C   C66       1.0  0.18269  0.15221  0.23327  1.0000
  H   H49       1.0  0.27546  0.47555  0.16767  1.0000
  H   H50       1.0  0.28505  0.47017  0.22193  1.0000
  C   C67       1.0  0.07624  0.17092  0.16030  1.0000
  H   H51       1.0  0.05805  0.23035  0.21718  1.0000
  C   C68       1.0  0.23623  0.19491  0.20793  1.0000
  H   H52       1.0  0.49991  0.39702  0.05563  1.0000
  C   C69       1.0  0.19142  0.24822  0.22505  1.0000
  C   C70       1.0  0.48914  0.32535  0.04831  1.0000
  C   C71       1.0  0.44557  0.40616  0.04435  1.0000
  C   C72       1.0  0.43772  0.38453  0.04718  1.0000
  H   H53       1.0  0.30463  0.40679  0.23825  1.0000
  C   C73       1.0  0.22856  0.24981  0.19363  1.0000
  C   C74       1.0  0.23235  0.24799  0.17215  1.0000
  C   C75       1.0  0.24805  0.26151  0.16194  1.0000
  C   C76       1.0  0.26026  0.27667  0.17312  1.0000
  C   C77       1.0  0.25705  0.27808  0.19459  1.0000
  C   C78       1.0  0.24137  0.26460  0.20481  1.0000
  H   H54       1.0  0.16355  0.17197  0.17909  1.0000
  H   H55       1.0  0.14421  0.19681  0.15360  1.0000
  H   H56       1.0  0.15294  0.23711  0.15145  1.0000
  H   H57       1.0  0.18112  0.25244  0.17451  1.0000
  H   H58       1.0  0.19124  0.18694  0.20247  1.0000
  H   H59       1.0  0.41668  0.45595  0.01775  1.0000
  C   C79       1.0  0.36412  0.04625  0.11971  1.0000
  H   H60       1.0  0.00488  0.11370  0.09521  1.0000
  C   C80       1.0  0.30255  0.24241  0.17962  1.0000
  H   H61       1.0  0.23513  0.19549  0.19112  1.0000
  C   C81       1.0  0.07576  0.22745  0.21490  1.0000
  H   H62       1.0  0.08753  0.07499  0.08752  1.0000
  C   C82       1.0  0.34360  0.12592  0.13783  1.0000
  C   C83       1.0  0.09151  0.15000  0.18963  1.0000
  C   C84       1.0  0.31465  0.25889  0.18914  1.0000
  H   H63       1.0  0.22343  0.23602  0.16329  1.0000
  H   H64       1.0  0.25100  0.26004  0.14537  1.0000
  H   H65       1.0  0.27268  0.28689  0.16527  1.0000
  H   H66       1.0  0.27823  0.00299  0.15971  1.0000
  H   H67       1.0  0.00548  0.02510  0.00716  1.0000
  H   H68       1.0  0.01287  0.01919  0.11737  1.0000
  H   H69       1.0  0.19015  0.09995  0.23393  1.0000
  H   H70       1.0  0.27320  0.42591  0.21606  1.0000
  C   C85       1.0  0.10391  0.13672  0.17605  1.0000
  C   C86       1.0  0.28935  0.22797  0.19168  1.0000
  H   H71       1.0  0.08724  0.16018  0.13007  1.0000
  H   H72       1.0  0.47425  0.42715  0.04480  1.0000
  C   C87       1.0  0.11352  0.24048  0.21779  1.0000
  C   C88       1.0  0.24769  0.40168  0.22026  1.0000
  H   H73       1.0  0.11512  0.12386  0.18217  1.0000
  H   H74       1.0  0.35734  0.15607  0.12434  1.0000
  H   H75       1.0  0.23734  0.41259  0.22964  1.0000
  H   H76       1.0  0.48410  0.26879  0.05021  1.0000
  C   C89       1.0  0.22483  0.21071  0.21997  1.0000
  H   H77       1.0  0.30340  0.24088  0.16290  1.0000
  C   C90       1.0  0.15473  0.02711  0.18835  1.0000
  H   H78       1.0  0.42039  0.38100  0.04432  1.0000
  C   C91       1.0  0.29175  0.06765  0.21802  1.0000
  H   H79       1.0  0.27993  0.21523  0.18428  1.0000
  C   C92       1.0  0.10236  0.14040  0.15459  1.0000
  H   H80       1.0  0.36587  0.04235  0.10342  1.0000
  H   H81       1.0  0.44609  0.35035  0.05391  1.0000
  C   C93       1.0  0.47477  0.37134  0.05671  1.0000
  H   H82       1.0  0.46209  0.26453  0.17231  1.0000
  H   H83       1.0  0.11363  0.18828  0.19900  1.0000
  C   C94       1.0  0.24898  0.17799  0.21750  1.0000
  C   C95       1.0  0.22401  0.01744  0.16860  1.0000
  H   H84       1.0  0.21307  0.03190  0.16744  1.0000
  C   C96       1.0  0.23952  0.02002  0.23607  1.0000
  C   C97       1.0  0.05552  0.17005  0.22251  1.0000
  H   H85       1.0  0.17669  0.02843  0.14807  1.0000
  C   C98       1.0  0.09058  0.24408  0.22005  1.0000
  C   C99       1.0  0.08376  0.20719  0.20707  1.0000
  H   H86       1.0  0.06585  0.18416  0.15386  1.0000
  C   C100      1.0  0.48750  0.32884  0.02674  1.0000
  H   H87       1.0  0.14532  0.02148  0.17534  1.0000
  C   C101      1.0  0.00733  0.04833  0.03194  1.0000
  H   H88       1.0  0.23923  0.26572  0.22144  1.0000
  C   C102      1.0  0.29970  0.05110  0.20485  1.0000
  C   C103      1.0  0.31911  0.33359  0.22271  1.0000
  H   H89       1.0  0.35891  0.06103  0.17792  1.0000
  C   C104      1.0  0.33327  0.35748  0.15260  1.0000
  C   C105      1.0  0.33181  0.36842  0.13323  1.0000
  C   C106      1.0  0.32349  0.39027  0.13186  1.0000
  C   C107      1.0  0.31674  0.40126  0.14986  1.0000
  C   C108      1.0  0.31841  0.39048  0.16944  1.0000
  C   C109      1.0  0.32650  0.36839  0.17058  1.0000
  P   P4        1.0  0.30955  0.40441  0.19286  1.0000
  C   C110      1.0  0.28218  0.39516  0.20096  1.0000
  C   C111      1.0  0.32839  0.39799  0.21395  1.0000
  C   C112      1.0  0.02545  0.22940  0.16524  1.0000
  C   C113      1.0  0.35344  0.31724  0.23547  1.0000
  C   C114      1.0  0.35029  0.39045  0.20999  1.0000
  C   C115      1.0  0.27526  0.37344  0.19709  1.0000
  C   C116      1.0  0.25478  0.36590  0.20488  1.0000
  H   H90       1.0  0.02581  0.03933  0.08563  1.0000
  H   H91       1.0  0.02488  0.04494  0.03431  1.0000
  C   C117      1.0  0.25041  0.00540  0.22255  1.0000
  C   C118      1.0  0.30886  0.43428  0.18828  1.0000
  C   C119      1.0  0.29056  0.44454  0.17834  1.0000
  C   C120      1.0  0.28979  0.46766  0.17502  1.0000
  C   C121      1.0  0.17804  0.23698  0.23983  1.0000
  C   C122      1.0  0.32566  0.47062  0.19127  1.0000
  C   C123      1.0  0.32647  0.44749  0.19464  1.0000
  H   H92       1.0  0.33977  0.34052  0.15378  1.0000
  H   H93       1.0  0.33717  0.35994  0.11932  1.0000
  H   H94       1.0  0.32231  0.39872  0.11682  1.0000
  H   H95       1.0  0.31038  0.41816  0.14837  1.0000
  H   H96       1.0  0.32787  0.35959  0.18541  1.0000
  Fe  Fe10      1.0  0.42116  0.34444  0.00198  1.0000
  H   H97       1.0  0.35659  0.38892  0.19427  1.0000
  H   H98       1.0  0.28573  0.36215  0.18838  1.0000
  H   H99       1.0  0.24972  0.34902  0.20213  1.0000
  H   H100      1.0  0.06036  0.22284  0.16924  1.0000
  C   C124      1.0  0.17777  0.04143  0.22289  1.0000
  C   C125      1.0  0.14389  0.15715  0.22465  1.0000
  H   H101      1.0  0.27677  0.43470  0.17331  1.0000
  C   C126      1.0  0.30732  0.48070  0.18149  1.0000
  C   C127      1.0  0.00326  0.25125  0.22714  1.0000
  H   H102      1.0  0.34076  0.44003  0.20234  1.0000
  H   H103      1.0  0.37319  0.16830  0.15747  1.0000
  C   C128      1.0  0.04371  0.21783  0.17374  1.0000
  C   C129      1.0  0.36201  0.13947  0.17499  1.0000
  H   H104      1.0  0.36900  0.14497  0.18939  1.0000
  C   C130      1.0  0.35538  0.14581  0.13833  1.0000
  H   H105      1.0  0.45090  0.33977  0.08748  1.0000
  C   C131      1.0  0.04419  0.15001  0.22007  1.0000
  H   H106      1.0  0.10352  0.07981  0.05206  1.0000
  C   C132      1.0  0.27330  0.07031  0.11886  1.0000
  C   C133      1.0  0.26328  0.09090  0.11395  1.0000
  C   C134      1.0  0.27241  0.11045  0.12113  1.0000
  C   C135      1.0  0.29166  0.10947  0.13308  1.0000
  C   C136      1.0  0.30208  0.08891  0.13781  1.0000
  C   C137      1.0  0.29253  0.06927  0.13089  1.0000
  P   P5        1.0  0.32522  0.08723  0.15541  1.0000
  C   C138      1.0  0.34552  0.06679  0.14715  1.0000
  C   C139      1.0  0.34034  0.11299  0.15611  1.0000
  C   C140      1.0  0.36002  0.05677  0.16168  1.0000
  C   C141      1.0  0.35016  0.11963  0.17459  1.0000
  C   C142      1.0  0.31313  0.07953  0.18036  1.0000
  C   C143      1.0  0.31027  0.05698  0.18603  1.0000
  C   C144      1.0  0.47970  0.26477  0.14294  1.0000
  H   H107      1.0  0.26561  0.05517  0.11389  1.0000
  H   H108      1.0  0.24802  0.09161  0.10511  1.0000
  H   H109      1.0  0.26421  0.12637  0.11798  1.0000
  H   H110      1.0  0.29798  0.12476  0.13905  1.0000
  H   H111      1.0  0.29960  0.05314  0.13520  1.0000
  H   H112      1.0  0.48900  0.30026  0.07327  1.0000
  H   H113      1.0  0.33745  0.06985  0.11448  1.0000
  H   H114      1.0  0.31579  0.04394  0.17578  1.0000
  C   C145      1.0  0.36447  0.15264  0.15693  1.0000
  H   H115      1.0  0.43428  0.41945  0.03940  1.0000
  H   H116      1.0  0.32409  0.27313  0.21784  1.0000
  C   C146      1.0  0.22700  0.20973  0.24168  1.0000
  C   C147      1.0  0.17543  0.28345  0.23634  1.0000
  H   H117      1.0  0.33918  0.48075  0.19641  1.0000
  C   C148      1.0  0.49892  0.32507  0.12518  1.0000
  H   H118      1.0  0.19906  0.28069  0.21133  1.0000
  H   H119      1.0  0.46493  0.26146  0.13406  1.0000
  C   C149      1.0  0.44789  0.46898  0.00616  1.0000
  C   C150      1.0  0.18624  0.02379  0.21127  1.0000
  C   C151      1.0  0.45233  0.36714  0.05287  1.0000
  C   C152      1.0  0.05313  0.00425  0.02282  1.0000
  C   C153      1.0  0.37620  0.04132  0.15528  1.0000
  H   H120      1.0  0.49401  0.38381  0.00278  1.0000
  C   C154      1.0  0.42598  0.47081  0.01369  1.0000
  H   H121      1.0  0.28731  0.10292  0.22216  1.0000
  C   C155      1.0  0.36645  0.44848  0.99380  1.0000
  H   H122      1.0  0.29722  0.03372  0.20914  1.0000
  H   H123      1.0  0.38072  0.37752  0.22333  1.0000
  C   C156      1.0  0.47806  0.26658  0.16448  1.0000
  H   H124      1.0  0.34864  0.10961  0.18875  1.0000
  H   H125      1.0  0.01536  0.18181  0.20595  1.0000
  H   H126      1.0  0.36870  0.30784  0.23289  1.0000
  C   C157      1.0  0.34792  0.06172  0.12606  1.0000
  C   C158      1.0  0.30458  0.09602  0.19343  1.0000
  C   C159      1.0  0.26813  0.40923  0.21251  1.0000
  H   H127      1.0  0.32446  0.27046  0.17982  1.0000
  H   H128      1.0  0.49530  0.27234  0.19269  1.0000
  C   C160      1.0  0.48416  0.28913  0.02215  1.0000
  C   C161      1.0  0.47677  0.32212  0.13143  1.0000
  C   C162      1.0  0.01148  0.04569  0.09415  1.0000
  H   H129      1.0  0.02800  0.24320  0.15433  1.0000
  C   C163      1.0  0.48546  0.31075  0.01372  1.0000
  H   H130      1.0  0.30653  0.49865  0.17909  1.0000
  C   C164      1.0  0.30167  0.24553  0.22300  1.0000
  H   H131      1.0  0.48210  0.27522  0.01201  1.0000
  C   C165      1.0  0.50032  0.26733  0.13292  1.0000
  P   P6        1.0  0.49322  0.34868  0.06491  1.0000
  C   C166      1.0  0.28863  0.22973  0.21329  1.0000
  C   C167      1.0  0.14072  0.17166  0.24128  1.0000
  H   H132      1.0  0.27817  0.21854  0.22235  1.0000
  H   H133      1.0  0.19893  0.14488  0.23025  1.0000
  H   H134      1.0  0.35335  0.44294  0.00433  1.0000
  H   H135      1.0  0.20162  0.01566  0.21587  1.0000
  H   H136      1.0  0.48490  0.31354  0.99704  1.0000
  H   H137      1.0  0.17421  0.30146  0.23496  1.0000
  C   C168      1.0  0.48880  0.27462  0.23772  1.0000
  H   H138      1.0  0.34720  0.23598  0.23941  1.0000
  C   C169      1.0  0.17269  0.01249  0.14166  1.0000
  H   H139      1.0  0.00411  0.26648  0.21784  1.0000
  C   C170      1.0  0.00405  0.03410  0.11201  1.0000
  C   C171      1.0  0.48539  0.28552  0.04364  1.0000
  S   S22       1.0  0.34863  0.49038  0.99920  1.0000
  C   C172      1.0  0.49551  0.22868  0.24011  1.0000
  H   H140      1.0  0.07750  0.11256  0.23382  1.0000
  H   H141      1.0  0.49696  0.33993  0.21392  1.0000
  C   C173      1.0  0.03646  0.13785  0.23749  1.0000
  H   H142      1.0  0.13106  0.05335  0.19527  1.0000
  C   C174      1.0  0.17505  0.01676  0.19373  1.0000
  H   H143      1.0  0.15179  0.06634  0.22568  1.0000
  H   H144      1.0  0.50151  0.26590  0.11620  1.0000
  C   C175      1.0  0.26715  0.50168  0.22315  1.0000
  C   C176      1.0  0.05938  0.17747  0.24260  1.0000
  H   H145      1.0  0.03425  0.25710  0.24293  1.0000
  H   H146      1.0  0.17709  0.25244  0.34523  1.0000
  Fe  Fe11      1.0  0.05114  0.13852  0.46676  1.0000
  H   H147      1.0  0.12644  0.03846  0.45889  1.0000
  S   S23       1.0  0.05020  0.14705  0.43154  1.0000
  C   C177      1.0  0.07353  0.25380  0.38097  1.0000
  C   C178      1.0  0.20740  0.08951  0.28339  1.0000
  S   S24       1.0  0.03738  0.10469  0.47652  1.0000
  H   H148      1.0  0.19334  0.16995  0.25998  1.0000
  C   C179      1.0  0.34752  0.24779  0.25188  1.0000
  H   H149      1.0  0.08620  0.07565  0.25023  1.0000
  S   S25       1.0  0.37348  0.44428  0.47234  1.0000
  S   S26       1.0  0.27095  0.44271  0.25672  1.0000
  C   C180      1.0  0.35671  0.38633  0.24696  1.0000
  Fe  Fe12      1.0  0.34772  0.41780  0.46965  1.0000
  S   S27       1.0  0.34381  0.40350  0.43687  1.0000
  H   H150      1.0  0.23043  0.30982  0.26477  1.0000
  Fe  Fe13      1.0  0.29414  0.37166  0.29171  1.0000
  S   S28       1.0  0.26563  0.37882  0.27049  1.0000
  S   S29       1.0  0.32338  0.34838  0.28413  1.0000
  Fe  Fe14      1.0  0.27326  0.39886  0.32735  1.0000
  S   S30       1.0  0.24263  0.40732  0.30805  1.0000
  S   S31       1.0  0.27512  0.41167  0.36090  1.0000
  Fe  Fe15      1.0  0.24347  0.37109  0.29835  1.0000
  S   S32       1.0  0.21987  0.34093  0.29668  1.0000
  Fe  Fe16      1.0  0.26710  0.41434  0.28158  1.0000
  C   C181      1.0  0.18755  0.09430  0.29409  1.0000
  S   S33       1.0  0.27238  0.36276  0.31924  1.0000
  S   S34       1.0  0.29736  0.40733  0.30131  1.0000
  Fe  Fe17      1.0  0.09895  0.21784  0.32855  1.0000
  S   S35       1.0  0.07959  0.24749  0.31549  1.0000
  S   S36       1.0  0.10223  0.20721  0.36304  1.0000
  Fe  Fe18      1.0  0.12364  0.21112  0.28673  1.0000
  S   S37       1.0  0.10556  0.23980  0.27072  1.0000
  S   S38       1.0  0.15528  0.19336  0.27582  1.0000
  Fe  Fe19      1.0  0.11195  0.25849  0.30000  1.0000
  S   S39       1.0  0.12375  0.29487  0.29994  1.0000
  Fe  Fe20      1.0  0.07456  0.22674  0.28701  1.0000
  S   S40       1.0  0.04005  0.21928  0.27311  1.0000
  S   S41       1.0  0.13125  0.23057  0.31499  1.0000
  S   S42       1.0  0.09264  0.19645  0.30112  1.0000
  H   H151      1.0  0.42313  0.44172  0.45433  1.0000
  H   H152      1.0  0.31298  0.46506  0.42265  1.0000
  H   H153      1.0  0.33036  0.47550  0.45568  1.0000
  C   C182      1.0  0.15847  0.17607  0.25424  1.0000
  C   C183      1.0  0.28198  0.49273  0.31373  1.0000
  H   H154      1.0  0.42601  0.48260  0.39895  1.0000
  C   C184      1.0  0.36894  0.26938  0.27556  1.0000
  C   C185      1.0  0.49413  0.34751  0.43613  1.0000
  H   H155      1.0  0.33087  0.47543  0.38895  1.0000
  C   C186      1.0  0.45870  0.40825  0.35067  1.0000
  C   C187      1.0  0.26301  0.47052  0.24858  1.0000
  C   C188      1.0  0.19294  0.32851  0.29823  1.0000
  C   C189      1.0  0.17322  0.34113  0.29973  1.0000
  C   C190      1.0  0.15233  0.33053  0.30039  1.0000
  C   C191      1.0  0.15075  0.30717  0.29967  1.0000
  C   C192      1.0  0.17051  0.29451  0.29856  1.0000
  C   C193      1.0  0.19138  0.30511  0.29781  1.0000
  H   H156      1.0  0.17399  0.35909  0.30004  1.0000
  H   H157      1.0  0.13725  0.34056  0.30127  1.0000
  H   H158      1.0  0.16970  0.27653  0.29824  1.0000
  H   H159      1.0  0.20643  0.29508  0.29691  1.0000
  C   C194      1.0  0.16964  0.10348  0.26137  1.0000
  C   C195      1.0  0.05895  0.23728  0.38807  1.0000
  H   H160      1.0  0.39886  0.46393  0.43084  1.0000
  H   H161      1.0  0.36589  0.49635  0.38801  1.0000
  C   C196      1.0  0.26518  0.30539  0.25717  1.0000
  C   C197      1.0  0.32494  0.40717  0.41566  1.0000
  C   C198      1.0  0.30424  0.41801  0.41770  1.0000
  C   C199      1.0  0.28943  0.41934  0.40076  1.0000
  C   C200      1.0  0.29493  0.40984  0.38151  1.0000
  C   C201      1.0  0.31568  0.39909  0.37943  1.0000
  C   C202      1.0  0.33053  0.39782  0.39635  1.0000
  H   H162      1.0  0.29946  0.42504  0.43244  1.0000
  H   H163      1.0  0.27344  0.42763  0.40268  1.0000
  H   H164      1.0  0.32025  0.39165  0.36482  1.0000
  H   H165      1.0  0.34637  0.38924  0.39453  1.0000
  H   H166      1.0  0.05529  0.25053  0.43900  1.0000
  H   H167      1.0  0.25394  0.24207  0.26223  1.0000
  H   H168      1.0  0.48511  0.35321  0.38403  1.0000
  C   C203      1.0  0.20833  0.09157  0.26173  1.0000
  C   C204      1.0  0.47994  0.40964  0.38236  1.0000
  C   C205      1.0  0.11731  0.03532  0.47325  1.0000
  H   H169      1.0  0.32951  0.39617  0.26692  1.0000
  H   H170      1.0  0.18696  0.09232  0.31087  1.0000
  C   C206      1.0  0.14881  0.24611  0.36539  1.0000
  H   H171      1.0  0.04303  0.34590  0.36484  1.0000
  C   C207      1.0  0.06499  0.16402  0.41286  1.0000
  C   C208      1.0  0.08329  0.17680  0.41804  1.0000
  C   C209      1.0  0.09446  0.18976  0.40258  1.0000
  C   C210      1.0  0.08752  0.19024  0.38174  1.0000
  C   C211      1.0  0.06915  0.17757  0.37656  1.0000
  C   C212      1.0  0.05803  0.16457  0.39201  1.0000
  H   H172      1.0  0.08887  0.17664  0.43395  1.0000
  H   H173      1.0  0.10855  0.19955  0.40685  1.0000
  H   H174      1.0  0.06349  0.17777  0.36068  1.0000
  H   H175      1.0  0.04389  0.15480  0.38778  1.0000
  C   C213      1.0  0.16280  0.25964  0.35317  1.0000
  H   H176      1.0  0.15537  0.10897  0.25242  1.0000
  H   H177      1.0  0.45581  0.41389  0.33479  1.0000
  C   C214      1.0  0.34847  0.32568  0.25527  1.0000
  C   C215      1.0  0.42533  0.45957  0.45259  1.0000
  C   C216      1.0  0.48864  0.40209  0.43140  1.0000
  C   C217      1.0  0.44133  0.46994  0.46430  1.0000
  C   C218      1.0  0.09961  0.13025  0.25333  1.0000
  H   H178      1.0  0.31170  0.16584  0.25605  1.0000
  H   H179      1.0  0.45570  0.50113  0.47218  1.0000
  C   C219      1.0  0.33812  0.48013  0.44089  1.0000
  C   C220      1.0  0.32832  0.47431  0.42230  1.0000
  H   H180      1.0  0.17674  0.13916  0.30419  1.0000
  H   H181      1.0  0.12157  0.06570  0.36311  1.0000
  H   H182      1.0  0.48736  0.44237  0.46779  1.0000
  H   H183      1.0  0.15191  0.05801  0.29149  1.0000
  C   C221      1.0  0.47987  0.41710  0.44587  1.0000
  C   C222      1.0  0.29057  0.31159  0.33700  1.0000
  C   C223      1.0  0.27889  0.30254  0.32072  1.0000
  C   C224      1.0  0.25576  0.30097  0.32206  1.0000
  C   C225      1.0  0.24422  0.30889  0.33945  1.0000
  C   C226      1.0  0.25572  0.31872  0.35564  1.0000
  C   C227      1.0  0.27909  0.31968  0.35438  1.0000
  P   P7        1.0  0.24030  0.33139  0.37683  1.0000
  C   C228      1.0  0.21775  0.31327  0.38447  1.0000
  C   C229      1.0  0.25825  0.33517  0.39881  1.0000
  C   C230      1.0  0.25574  0.32210  0.41713  1.0000
  C   C231      1.0  0.26939  0.32548  0.43417  1.0000
  C   C232      1.0  0.28563  0.34188  0.43308  1.0000
  C   C233      1.0  0.28830  0.35483  0.41493  1.0000
  C   C234      1.0  0.27473  0.35155  0.39785  1.0000
  C   C235      1.0  0.19707  0.32225  0.39074  1.0000
  C   C236      1.0  0.17976  0.30817  0.39694  1.0000
  C   C237      1.0  0.18300  0.28507  0.39712  1.0000
  C   C238      1.0  0.20354  0.27601  0.39095  1.0000
  C   C239      1.0  0.22089  0.29004  0.38467  1.0000
  C   C240      1.0  0.22836  0.35778  0.36788  1.0000
  C   C241      1.0  0.22979  0.37705  0.37973  1.0000
  C   C242      1.0  0.22035  0.39721  0.37256  1.0000
  C   C243      1.0  0.20894  0.39824  0.35380  1.0000
  C   C244      1.0  0.20672  0.37902  0.34231  1.0000
  C   C245      1.0  0.21630  0.35891  0.34935  1.0000
  H   H184      1.0  0.30848  0.31331  0.33570  1.0000
  H   H185      1.0  0.28769  0.29739  0.30683  1.0000
  H   H186      1.0  0.24664  0.29451  0.30920  1.0000
  H   H187      1.0  0.22625  0.30794  0.33984  1.0000
  H   H188      1.0  0.28859  0.32724  0.36634  1.0000
  H   H189      1.0  0.24322  0.30940  0.41845  1.0000
  C   C246      1.0  0.10419  0.05249  0.48187  1.0000
  C   C247      1.0  0.41329  0.49562  0.43823  1.0000
  H   H190      1.0  0.30081  0.36758  0.41417  1.0000
  H   H191      1.0  0.27694  0.36200  0.38397  1.0000
  H   H192      1.0  0.19428  0.34011  0.39087  1.0000
  H   H193      1.0  0.16378  0.31519  0.40148  1.0000
  H   H194      1.0  0.16949  0.27419  0.40179  1.0000
  H   H195      1.0  0.20599  0.25809  0.39098  1.0000
  H   H196      1.0  0.23679  0.28280  0.38007  1.0000
  H   H197      1.0  0.23835  0.37685  0.39437  1.0000
  H   H198      1.0  0.22250  0.41219  0.38128  1.0000
  H   H199      1.0  0.20214  0.41399  0.34801  1.0000
  H   H200      1.0  0.19803  0.37975  0.32766  1.0000
  H   H201      1.0  0.21424  0.34433  0.34022  1.0000
  C   C248      1.0  0.28555  0.19727  0.29257  1.0000
  C   C249      1.0  0.29397  0.17832  0.28282  1.0000
  C   C250      1.0  0.30461  0.18040  0.26343  1.0000
  C   C251      1.0  0.30657  0.20136  0.25366  1.0000
  C   C252      1.0  0.29735  0.22037  0.26297  1.0000
  C   C253      1.0  0.28750  0.21828  0.28282  1.0000
  P   P8        1.0  0.30124  0.24752  0.25088  1.0000
  C   C254      1.0  0.27889  0.26711  0.25621  1.0000
  C   C255      1.0  0.32766  0.25674  0.26013  1.0000
  C   C256      1.0  0.32866  0.27162  0.27655  1.0000
  H   H202      1.0  0.11363  0.07232  0.27821  1.0000
  C   C257      1.0  0.08923  0.11122  0.24642  1.0000
  C   C258      1.0  0.36807  0.25407  0.25964  1.0000
  C   C259      1.0  0.35833  0.49208  0.40289  1.0000
  C   C260      1.0  0.25737  0.25967  0.26116  1.0000
  C   C261      1.0  0.23994  0.27503  0.26430  1.0000
  C   C262      1.0  0.23080  0.01110  0.25494  1.0000
  C   C263      1.0  0.18946  0.09847  0.25075  1.0000
  C   C264      1.0  0.16849  0.10124  0.28315  1.0000
  C   C265      1.0  0.49092  0.34634  0.39871  1.0000
  C   C266      1.0  0.05268  0.23588  0.40903  1.0000
  H   H203      1.0  0.17578  0.17395  0.32352  1.0000
  H   H204      1.0  0.10757  0.12887  0.32037  1.0000
  H   H205      1.0  0.48680  0.42947  0.35467  1.0000
  H   H206      1.0  0.29612  0.34469  0.44630  1.0000
  H   H207      1.0  0.27786  0.19573  0.30786  1.0000
  H   H208      1.0  0.29268  0.16209  0.29047  1.0000
  H   H209      1.0  0.21885  0.22192  0.25137  1.0000
  H   H210      1.0  0.12455  0.17916  0.24428  1.0000
  H   H211      1.0  0.28161  0.23289  0.29088  1.0000
  H   H212      1.0  0.31366  0.27839  0.28354  1.0000
  H   H213      1.0  0.12585  0.09902  0.34072  1.0000
  H   H214      1.0  0.05449  0.17130  0.27543  1.0000
  C   C267      1.0  0.01951  0.22649  0.25388  1.0000
  C   C268      1.0  0.05180  0.16517  0.25997  1.0000
  H   H215      1.0  0.22331  0.26929  0.26809  1.0000
  H   H216      1.0  0.15211  0.22834  0.36690  1.0000
  H   H217      1.0  0.29908  0.35171  0.24496  1.0000
  H   H218      1.0  0.45137  0.46009  0.47506  1.0000
  C   C269      1.0  0.11900  0.01430  0.48328  1.0000
  H   H219      1.0  0.12340  0.14342  0.27408  1.0000
  H   H220      1.0  0.22236  0.02210  0.26563  1.0000
  H   H221      1.0  0.27176  0.47833  0.31121  1.0000
  H   H222      1.0  0.15404  0.24017  0.26476  1.0000
  C   C270      1.0  0.41143  0.47230  0.43951  1.0000
  C   C271      1.0  0.07488  0.31627  0.33095  1.0000
  C   C272      1.0  0.05896  0.33161  0.33802  1.0000
  C   C273      1.0  0.05566  0.33430  0.35937  1.0000
  C   C274      1.0  0.06849  0.32187  0.37363  1.0000
  C   C275      1.0  0.08502  0.30697  0.36660  1.0000
  C   C276      1.0  0.08765  0.30379  0.34517  1.0000
  P   P9        1.0  0.10077  0.29027  0.38508  1.0000
  C   C277      1.0  0.12490  0.27806  0.37255  1.0000
  C   C278      1.0  0.11235  0.30659  0.40532  1.0000
  C   C279      1.0  0.11346  0.32990  0.40324  1.0000
  C   C280      1.0  0.12332  0.34222  0.41870  1.0000
  C   C281      1.0  0.13244  0.33135  0.43615  1.0000
  C   C282      1.0  0.13197  0.30812  0.43803  1.0000
  C   C283      1.0  0.12217  0.29576  0.42257  1.0000
  C   C284      1.0  0.13007  0.25532  0.37526  1.0000
  C   C285      1.0  0.13928  0.29165  0.36062  1.0000
  C   C286      1.0  0.08190  0.26919  0.39479  1.0000
  C   C287      1.0  0.07470  0.26835  0.41567  1.0000
  H   H223      1.0  0.07736  0.31388  0.31442  1.0000
  H   H224      1.0  0.04905  0.34120  0.32694  1.0000
  C   C288      1.0  0.47613  0.41702  0.36188  1.0000
  H   H225      1.0  0.06549  0.32380  0.39012  1.0000
  H   H226      1.0  0.09940  0.29156  0.33929  1.0000
  H   H227      1.0  0.10705  0.33862  0.38960  1.0000
  H   H228      1.0  0.15110  0.28127  0.26122  1.0000
  H   H229      1.0  0.14005  0.34093  0.44813  1.0000
  H   H230      1.0  0.13928  0.29967  0.45144  1.0000
  H   H231      1.0  0.12229  0.27773  0.42404  1.0000
  H   H232      1.0  0.11955  0.24453  0.38473  1.0000
  H   H233      1.0  0.13575  0.30930  0.35847  1.0000
  H   H234      1.0  0.08002  0.28054  0.42653  1.0000
  H   H235      1.0  0.07867  0.25423  0.36475  1.0000
  C   C289      1.0  0.29764  0.49214  0.32958  1.0000
  H   H236      1.0  0.17900  0.00911  0.43219  1.0000
  H   H237      1.0  0.04198  0.22254  0.41458  1.0000
  H   H238      1.0  0.22202  0.08389  0.29182  1.0000
  C   C290      1.0  0.46627  0.39338  0.39174  1.0000
  H   H239      1.0  0.26731  0.31549  0.44831  1.0000
  H   H240      1.0  0.14776  0.02479  0.31445  1.0000
  C   C291      1.0  0.44503  0.39209  0.35992  1.0000
  H   H241      1.0  0.49087  0.35564  0.45069  1.0000
  H   H242      1.0  0.03423  0.13616  0.27100  1.0000
  H   H243      1.0  0.34989  0.29012  0.29630  1.0000
  H   H244      1.0  0.12401  0.36021  0.41709  1.0000
  H   H245      1.0  0.22368  0.08770  0.25345  1.0000
  C   C292      1.0  0.32885  0.33814  0.25890  1.0000
  C   C293      1.0  0.49406  0.43113  0.45635  1.0000
  C   C294      1.0  0.48583  0.35681  0.41752  1.0000
  H   H246      1.0  0.38491  0.27457  0.28119  1.0000
  P   P10       1.0  0.47096  0.38324  0.41802  1.0000
  C   C295      1.0  0.44391  0.38111  0.43057  1.0000
  H   H247      1.0  0.10739  0.16338  0.34046  1.0000
  C   C296      1.0  0.44369  0.49302  0.46272  1.0000
  C   C297      1.0  0.34923  0.27807  0.28408  1.0000
  H   H248      1.0  0.36720  0.38094  0.25976  1.0000
  C   C298      1.0  0.23984  0.19280  0.25119  1.0000
  C   C299      1.0  0.33537  0.39481  0.25101  1.0000
  C   C300      1.0  0.42822  0.39855  0.42793  1.0000
  C   C301      1.0  0.40688  0.39683  0.43672  1.0000
  C   C302      1.0  0.40099  0.37770  0.44815  1.0000
  C   C303      1.0  0.41648  0.36030  0.45092  1.0000
  C   C304      1.0  0.43789  0.36196  0.44220  1.0000
  H   H249      1.0  0.23939  0.47652  0.27329  1.0000
  C   C305      1.0  0.04028  0.14543  0.25745  1.0000
  H   H250      1.0  0.05306  0.22511  0.37738  1.0000
  H   H251      1.0  0.24122  0.19192  0.26795  1.0000
  C   C306      1.0  0.44880  0.38464  0.38036  1.0000
  H   H252      1.0  0.43152  0.38522  0.35124  1.0000
  C   C307      1.0  0.16394  0.24893  0.25308  1.0000
  C   C308      1.0  0.09417  0.09043  0.25564  1.0000
  C   C309      1.0  0.15817  0.28245  0.35101  1.0000
  H   H253      1.0  0.46225  0.41768  0.44957  1.0000
  H   H254      1.0  0.14134  0.18589  0.34210  1.0000
  H   H255      1.0  0.10343  0.06877  0.47427  1.0000
  H   H256      1.0  0.29941  0.47729  0.33945  1.0000
  H   H257      1.0  0.49355  0.41663  0.39070  1.0000
  H   H258      1.0  0.43243  0.41345  0.41897  1.0000
  H   H259      1.0  0.39470  0.41021  0.43457  1.0000
  H   H260      1.0  0.38435  0.37640  0.45478  1.0000
  H   H261      1.0  0.41193  0.34555  0.45993  1.0000
  H   H262      1.0  0.44954  0.34827  0.44459  1.0000
  H   H263      1.0  0.43814  0.37197  0.38726  1.0000
  H   H264      1.0  0.16906  0.29303  0.34170  1.0000
  H   H265      1.0  0.06790  0.19292  0.24502  1.0000
  C   C310      1.0  0.24727  0.48339  0.25939  1.0000
  C   C311      1.0  0.11508  0.12852  0.26931  1.0000
  H   H266      1.0  0.36005  0.32275  0.26779  1.0000
  C   C312      1.0  0.06038  0.25155  0.42279  1.0000
  C   C313      1.0  0.10970  0.08862  0.27161  1.0000
  C   C314      1.0  0.12022  0.10769  0.27861  1.0000
  C   C315      1.0  0.24388  0.29787  0.26233  1.0000
  P   P11       1.0  0.14251  0.10538  0.29708  1.0000
  C   C316      1.0  0.14249  0.13075  0.31162  1.0000
  C   C317      1.0  0.13883  0.08115  0.31411  1.0000
  C   C318      1.0  0.13043  0.08305  0.33450  1.0000
  C   C319      1.0  0.12808  0.06409  0.34740  1.0000
  C   C320      1.0  0.13423  0.04311  0.34017  1.0000
  C   C321      1.0  0.14279  0.04105  0.32000  1.0000
  C   C322      1.0  0.14510  0.05996  0.30704  1.0000
  C   C323      1.0  0.16162  0.14381  0.31241  1.0000
  C   C324      1.0  0.16119  0.16361  0.32341  1.0000
  C   C325      1.0  0.14173  0.17049  0.33367  1.0000
  C   C326      1.0  0.12254  0.15779  0.33268  1.0000
  C   C327      1.0  0.12278  0.13820  0.32141  1.0000
  H   H267      1.0  0.01314  0.01863  0.48541  1.0000
  C   C328      1.0  0.28256  0.29008  0.25380  1.0000
  S   S43       1.0  0.08057  0.13494  0.48829  1.0000
  H   H268      1.0  0.26824  0.32314  0.25581  1.0000
  C   C329      1.0  0.17949  0.16647  0.25007  1.0000
  C   C330      1.0  0.16246  0.27211  0.25122  1.0000
  H   H269      1.0  0.13250  0.02845  0.35024  1.0000
  H   H270      1.0  0.26052  0.16364  0.24643  1.0000
  H   H271      1.0  0.09599  0.14638  0.24615  1.0000
  S   S44       1.0  0.02955  0.15719  0.48991  1.0000
  H   H272      1.0  0.44069  0.48409  0.36304  1.0000
  H   H273      1.0  0.44598  0.34612  0.49243  1.0000
  H   H274      1.0  0.20772  0.01939  0.48088  1.0000
  H   H275      1.0  0.29887  0.29622  0.24934  1.0000
  C   C331      1.0  0.33842  0.48026  0.40331  1.0000
  C   C332      1.0  0.35813  0.49168  0.44053  1.0000
  H   H276      1.0  0.38338  0.24724  0.25314  1.0000
  H   H277      1.0  0.36575  0.49568  0.45508  1.0000
  H   H278      1.0  0.21881  0.01604  0.42346  1.0000
  C   C333      1.0  0.42937  0.49706  0.36829  1.0000
  C   C334      1.0  0.36837  0.49782  0.42157  1.0000
  C   C335      1.0  0.42102  0.49629  0.38870  1.0000
  S   S45       1.0  0.49377  0.34377  0.49342  1.0000
  S   S46       1.0  0.32385  0.43434  0.49214  1.0000
  C   C336      1.0  0.33607  0.39520  0.69670  1.0000
  S   S47       1.0  0.04480  0.11952  0.52418  1.0000
  H   H279      1.0  0.34300  0.40996  0.63799  1.0000
  Fe  Fe21      1.0  0.05824  0.15174  0.51203  1.0000
  S   S48       1.0  0.07408  0.17768  0.53279  1.0000
  Fe  Fe22      1.0  0.24273  0.42187  0.70325  1.0000
  S   S49       1.0  0.27849  0.41473  0.69526  1.0000
  S   S50       1.0  0.22855  0.45238  0.72083  1.0000
  Fe  Fe23      1.0  0.22842  0.37485  0.68776  1.0000
  S   S51       1.0  0.26383  0.36522  0.67881  1.0000
  S   S52       1.0  0.19626  0.35372  0.68808  1.0000
  Fe  Fe24      1.0  0.27338  0.38038  0.70900  1.0000
  C   C337      1.0  0.15416  0.02518  0.64526  1.0000
  Fe  Fe25      1.0  0.26666  0.40038  0.66521  1.0000
  S   S53       1.0  0.28709  0.41319  0.63655  1.0000
  S   S54       1.0  0.23814  0.38812  0.71870  1.0000
  S   S55       1.0  0.23060  0.40941  0.67249  1.0000
  Fe  Fe26      1.0  0.07503  0.22328  0.70295  1.0000
  S   S56       1.0  0.07589  0.18996  0.68802  1.0000
  S   S57       1.0  0.04756  0.23406  0.72654  1.0000
  Fe  Fe27      1.0  0.12105  0.23620  0.68316  1.0000
  S   S58       1.0  0.12365  0.20327  0.66667  1.0000
  S   S59       1.0  0.15394  0.25610  0.67998  1.0000
  Fe  Fe28      1.0  0.08755  0.20770  0.65867  1.0000
  S   S60       1.0  0.06876  0.19403  0.63078  1.0000
  Fe  Fe29      1.0  0.11184  0.18781  0.69685  1.0000
  S   S61       1.0  0.12695  0.15422  0.70638  1.0000
  S   S62       1.0  0.08513  0.24183  0.67314  1.0000
  S   S63       1.0  0.11082  0.21992  0.71387  1.0000
  Fe  Fe30      1.0  0.34129  0.41471  0.51792  1.0000
  S   S64       1.0  0.32300  0.39422  0.54368  1.0000
  S   S65       1.0  0.36682  0.44090  0.52336  1.0000
  C   C338      1.0  0.29634  0.40777  0.61050  1.0000
  C   C339      1.0  0.29118  0.38823  0.60033  1.0000
  C   C340      1.0  0.29947  0.38444  0.58000  1.0000
  C   C341      1.0  0.31260  0.40034  0.56922  1.0000
  C   C342      1.0  0.31752  0.42005  0.57926  1.0000
  C   C343      1.0  0.30960  0.42361  0.59977  1.0000
  H   H280      1.0  0.28061  0.37615  0.60806  1.0000
  H   H281      1.0  0.29539  0.36919  0.57247  1.0000
  H   H282      1.0  0.32752  0.43252  0.57130  1.0000
  H   H283      1.0  0.31364  0.43887  0.60733  1.0000
  C   C344      1.0  0.23934  0.47711  0.73186  1.0000
  C   C345      1.0  0.06928  0.05925  0.60106  1.0000
  H   H284      1.0  0.17249  0.01727  0.59744  1.0000
  H   H285      1.0  0.07883  0.11960  0.55440  1.0000
  H   H286      1.0  0.47294  0.42285  0.50014  1.0000
  C   C346      1.0  0.18497  0.32638  0.68552  1.0000
  C   C347      1.0  0.19780  0.30800  0.67920  1.0000
  C   C348      1.0  0.18796  0.28684  0.67737  1.0000
  C   C349      1.0  0.16516  0.28355  0.68191  1.0000
  C   C350      1.0  0.15234  0.30191  0.68819  1.0000
  C   C351      1.0  0.16215  0.32308  0.68992  1.0000
  H   H287      1.0  0.21529  0.31018  0.67566  1.0000
  H   H288      1.0  0.19813  0.27288  0.67246  1.0000
  H   H289      1.0  0.13485  0.29984  0.69180  1.0000
  H   H290      1.0  0.15197  0.33707  0.69479  1.0000
  C   C352      1.0  0.15112  0.04525  0.52917  1.0000
  H   H291      1.0  0.04957  0.17895  0.72352  1.0000
  H   H292      1.0  0.32778  0.42996  0.69999  1.0000
  H   H293      1.0  0.04343  0.03845  0.50218  1.0000
  H   H294      1.0  0.41878  0.37756  0.49580  1.0000
  C   C353      1.0  0.45062  0.40025  0.54930  1.0000
  H   H295      1.0  0.17458  0.05523  0.57592  1.0000
  S   S66       1.0  0.29586  0.36723  0.73493  1.0000
  C   C354      1.0  0.05177  0.11155  0.59283  1.0000
  C   C355      1.0  0.33300  0.31363  0.71686  1.0000
  C   C356      1.0  0.31844  0.33223  0.71640  1.0000
  C   C357      1.0  0.14305  0.03911  0.63090  1.0000
  H   H296      1.0  0.33706  0.30526  0.70261  1.0000
  H   H297      1.0  0.31151  0.33829  0.70189  1.0000
  H   H298      1.0  0.45401  0.33989  0.63701  1.0000
  C   C358      1.0  0.44412  0.33857  0.60499  1.0000
  C   C359      1.0  0.20534  0.21967  0.70419  1.0000
  H   H299      1.0  0.03349  0.21516  0.54906  1.0000
  C   C360      1.0  0.04938  0.25366  0.59409  1.0000
  H   H300      1.0  0.40781  0.33793  0.69833  1.0000
  C   C361      1.0  0.03917  0.34244  0.59041  1.0000
  C   C362      1.0  0.07357  0.17937  0.56048  1.0000
  C   C363      1.0  0.09163  0.18900  0.57050  1.0000
  C   C364      1.0  0.09091  0.19292  0.59208  1.0000
  C   C365      1.0  0.07172  0.18802  0.60381  1.0000
  C   C366      1.0  0.05381  0.17817  0.59382  1.0000
  C   C367      1.0  0.05484  0.17345  0.57243  1.0000
  H   H301      1.0  0.10618  0.19371  0.56145  1.0000
  H   H302      1.0  0.10499  0.20019  0.59947  1.0000
  H   H303      1.0  0.03879  0.17458  0.60263  1.0000
  H   H304      1.0  0.04071  0.16625  0.56501  1.0000
  H   H305      1.0  0.49391  0.30498  0.56534  1.0000
  H   H306      1.0  0.08781  0.17524  0.73752  1.0000
  H   H307      1.0  0.05038  0.09224  0.56485  1.0000
  H   H308      1.0  0.42285  0.31670  0.65029  1.0000
  C   C368      1.0  0.14440  0.08332  0.53935  1.0000
  H   H309      1.0  0.19122  0.03487  0.51267  1.0000
  C   C369      1.0  0.38168  0.34319  0.52091  1.0000
  C   C370      1.0  0.36374  0.35094  0.53289  1.0000
  C   C371      1.0  0.36625  0.35386  0.55417  1.0000
  C   C372      1.0  0.38668  0.34901  0.56352  1.0000
  C   C373      1.0  0.40467  0.34071  0.55170  1.0000
  C   C374      1.0  0.40211  0.33818  0.53024  1.0000
  P   P12       1.0  0.43164  0.33622  0.56331  1.0000
  C   C375      1.0  0.42870  0.33040  0.59098  1.0000
  C   C376      1.0  0.44500  0.31252  0.55124  1.0000
  C   C377      1.0  0.44218  0.29082  0.55947  1.0000
  C   C378      1.0  0.45233  0.27261  0.54977  1.0000
  C   C379      1.0  0.46528  0.27591  0.53177  1.0000
  C   C380      1.0  0.46809  0.29741  0.52346  1.0000
  C   C381      1.0  0.45801  0.31561  0.53313  1.0000
  H   H310      1.0  0.01533  0.24923  0.60477  1.0000
  H   H311      1.0  0.02025  0.22173  0.66693  1.0000
  P   P13       1.0  0.25302  0.18055  0.73310  1.0000
  C   C382      1.0  0.40898  0.31242  0.61999  1.0000
  C   C383      1.0  0.41114  0.31719  0.59868  1.0000
  C   C384      1.0  0.44809  0.36085  0.55853  1.0000
  H   H312      1.0  0.45790  0.34865  0.59960  1.0000
  H   H313      1.0  0.41992  0.38277  0.55152  1.0000
  H   H314      1.0  0.14896  0.03242  0.51784  1.0000
  C   C385      1.0  0.15463  0.12956  0.73180  1.0000
  C   C386      1.0  0.47142  0.35960  0.55971  1.0000
  C   C387      1.0  0.10706  0.01037  0.50177  1.0000
  H   H315      1.0  0.34800  0.35528  0.52563  1.0000
  H   H316      1.0  0.35245  0.36052  0.56326  1.0000
  H   H317      1.0  0.38843  0.35218  0.57985  1.0000
  H   H318      1.0  0.41596  0.33281  0.52057  1.0000
  H   H319      1.0  0.43215  0.28779  0.57328  1.0000
  H   H320      1.0  0.45014  0.25592  0.55621  1.0000
  H   H321      1.0  0.47324  0.26186  0.52430  1.0000
  H   H322      1.0  0.21053  0.15895  0.72577  1.0000
  H   H323      1.0  0.46045  0.33210  0.52642  1.0000
  H   H324      1.0  0.14168  0.01274  0.73141  1.0000
  H   H325      1.0  0.17244  0.21062  0.69488  1.0000
  H   H326      1.0  0.20102  0.01385  0.67705  1.0000
  H   H327      1.0  0.39547  0.30217  0.62583  1.0000
  H   H328      1.0  0.39919  0.31045  0.58818  1.0000
  C   C388      1.0  0.22755  0.19035  0.72099  1.0000
  H   H329      1.0  0.05799  0.06411  0.61348  1.0000
  H   H330      1.0  0.47978  0.34397  0.56355  1.0000
  C   C389      1.0  0.09734  0.24873  0.61873  1.0000
  C   C390      1.0  0.44195  0.33368  0.62629  1.0000
  H   H331      1.0  0.44258  0.41587  0.54466  1.0000
  H   H332      1.0  0.33318  0.39106  0.71301  1.0000
  C   C391      1.0  0.19648  0.01454  0.57228  1.0000
  S   S67       1.0  0.34526  0.49673  0.49595  1.0000
  C   C392      1.0  0.48421  0.37847  0.55548  1.0000
  H   H333      1.0  0.33093  0.20315  0.74198  1.0000
  H   H334      1.0  0.03818  0.23034  0.63308  1.0000
  H   H335      1.0  0.20325  0.23672  0.69853  1.0000
  C   C393      1.0  0.18264  0.26120  0.73293  1.0000
  H   H336      1.0  0.04669  0.13249  0.61958  1.0000
  H   H337      1.0  0.00554  0.22443  0.57641  1.0000
  P   P14       1.0  0.05685  0.27163  0.61489  1.0000
  C   C394      1.0  0.03942  0.12556  0.60599  1.0000
  C   C395      1.0  0.14236  0.14955  0.72933  1.0000
  C   C396      1.0  0.21927  0.01364  0.56715  1.0000
  C   C397      1.0  0.05199  0.17498  0.73982  1.0000
  H   H338      1.0  0.17467  0.03648  0.73510  1.0000
  H   H339      1.0  0.14414  0.05705  0.63196  1.0000
  C   C398      1.0  0.37415  0.30331  0.67270  1.0000
  H   H340      1.0  0.00701  0.33719  0.60480  1.0000
  H   H341      1.0  0.48371  0.41333  0.54659  1.0000
  H   H342      1.0  0.24090  0.01614  0.61567  1.0000
  C   C399      1.0  0.06926  0.03727  0.59433  1.0000
  C   C400      1.0  0.29705  0.19317  0.73771  1.0000
  C   C401      1.0  0.33554  0.42224  0.66818  1.0000
  C   C402      1.0  0.02343  0.33014  0.60183  1.0000
  C   C403      1.0  0.05016  0.29957  0.60585  1.0000
  H   H343      1.0  0.08872  0.23442  0.61324  1.0000
  H   H344      1.0  0.39043  0.36546  0.67414  1.0000
  C   C404      1.0  0.34176  0.40560  0.65436  1.0000
  C   C405      1.0  0.13097  0.26462  0.63181  1.0000
  H   H345      1.0  0.13709  0.09964  0.53611  1.0000
  H   H346      1.0  0.31719  0.32006  0.59008  1.0000
  H   H347      1.0  0.27152  0.09021  0.71329  1.0000
  C   C406      1.0  0.25210  0.27594  0.67612  1.0000
  H   H348      1.0  0.20077  0.01861  0.62488  1.0000
  P   P15       1.0  0.08058  0.10408  0.59802  1.0000
  C   C407      1.0  0.08720  0.10879  0.62493  1.0000
  C   C408      1.0  0.08314  0.07508  0.59126  1.0000
  C   C409      1.0  0.09667  0.06861  0.57440  1.0000
  C   C410      1.0  0.09642  0.04673  0.56756  1.0000
  C   C411      1.0  0.03996  0.28179  0.65409  1.0000
  H   H349      1.0  0.27552  0.34096  0.64089  1.0000
  P   P16       1.0  0.17564  0.01352  0.55231  1.0000
  C   C412      1.0  0.09256  0.09105  0.63875  1.0000
  C   C413      1.0  0.09846  0.09529  0.65924  1.0000
  C   C414      1.0  0.09925  0.11719  0.66601  1.0000
  C   C415      1.0  0.09422  0.13490  0.65230  1.0000
  C   C416      1.0  0.08835  0.13076  0.63186  1.0000
  C   C417      1.0  0.09926  0.12051  0.58172  1.0000
  C   C418      1.0  0.11970  0.12764  0.58941  1.0000
  C   C419      1.0  0.13437  0.13975  0.57656  1.0000
  C   C420      1.0  0.12907  0.14431  0.55581  1.0000
  C   C421      1.0  0.10918  0.13665  0.54789  1.0000
  C   C422      1.0  0.09422  0.12505  0.56082  1.0000
  H   H350      1.0  0.02819  0.28937  0.68499  1.0000
  Fe  Fe31      1.0  0.01774  0.12314  0.50065  1.0000
  H   H351      1.0  0.10675  0.08053  0.56587  1.0000
  H   H352      1.0  0.10630  0.04225  0.55404  1.0000
  C   C423      1.0  0.02244  0.05122  0.52659  1.0000
  H   H353      1.0  0.15453  0.11743  0.71967  1.0000
  H   H354      1.0  0.09248  0.07401  0.63383  1.0000
  H   H355      1.0  0.10252  0.08163  0.66992  1.0000
  H   H356      1.0  0.10390  0.12054  0.68185  1.0000
  H   H357      1.0  0.09498  0.15193  0.65750  1.0000
  H   H358      1.0  0.47824  0.30009  0.50956  1.0000
  H   H359      1.0  0.12438  0.12405  0.60532  1.0000
  H   H360      1.0  0.14973  0.14582  0.58275  1.0000
  H   H361      1.0  0.14018  0.15399  0.54587  1.0000
  H   H362      1.0  0.10496  0.14026  0.53182  1.0000
  H   H363      1.0  0.08133  0.25584  0.57813  1.0000
  H   H364      1.0  0.25165  0.11513  0.68804  1.0000
  C   C424      1.0  0.16543  0.05794  0.56173  1.0000
  H   H365      1.0  0.28018  0.32158  0.60762  1.0000
  H   H366      1.0  0.08568  0.02470  0.52525  1.0000
  C   C425      1.0  0.15456  0.01281  0.71946  1.0000
  H   H367      1.0  0.34957  0.33744  0.60595  1.0000
  C   C426      1.0  0.48244  0.38842  0.49627  1.0000
  H   H368      1.0  0.33194  0.43898  0.66232  1.0000
  H   H369      1.0  0.34407  0.36160  0.68897  1.0000
  C   C427      1.0  0.26807  0.10745  0.71693  1.0000
  C   C428      1.0  0.29923  0.21740  0.70008  1.0000
  C   C429      1.0  0.11982  0.24657  0.62382  1.0000
  H   H370      1.0  0.44714  0.47059  0.51423  1.0000
  H   H371      1.0  0.01631  0.29922  0.61790  1.0000
  H   H372      1.0  0.08484  0.14479  0.62139  1.0000
  C   C430      1.0  0.02203  0.23140  0.57686  1.0000
  C   C431      1.0  0.42441  0.32061  0.63379  1.0000
  C   C432      1.0  0.18801  0.01317  0.68884  1.0000
  C   C433      1.0  0.03540  0.24360  0.64391  1.0000
  H   H373      1.0  0.35140  0.31311  0.64878  1.0000
  H   H374      1.0  0.30755  0.35897  0.65677  1.0000
  C   C434      1.0  0.43779  0.38133  0.55319  1.0000
  C   C435      1.0  0.00722  0.12295  0.58396  1.0000
  H   H375      1.0  0.27092  0.47667  0.71574  1.0000
  C   C436      1.0  0.01922  0.10879  0.57093  1.0000
  C   C437      1.0  0.33303  0.41712  0.68937  1.0000
  C   C438      1.0  0.37300  0.39701  0.59122  1.0000
  C   C439      1.0  0.39617  0.39753  0.59246  1.0000
  C   C440      1.0  0.40697  0.38647  0.60893  1.0000
  C   C441      1.0  0.39458  0.37518  0.62439  1.0000
  C   C442      1.0  0.37126  0.37477  0.62337  1.0000
  C   C443      1.0  0.36060  0.38573  0.60660  1.0000
  P   P17       1.0  0.35464  0.36220  0.64410  1.0000
  C   C444      1.0  0.37004  0.34135  0.65914  1.0000
  C   C445      1.0  0.34553  0.38364  0.66167  1.0000
  C   C446      1.0  0.34216  0.37850  0.68292  1.0000
  C   C447      1.0  0.36419  0.31878  0.65894  1.0000
  C   C448      1.0  0.13045  0.02994  0.61530  1.0000
  C   C449      1.0  0.04246  0.26533  0.63909  1.0000
  C   C450      1.0  0.39601  0.33254  0.68698  1.0000
  C   C451      1.0  0.38620  0.34805  0.67317  1.0000
  C   C452      1.0  0.33097  0.34937  0.63262  1.0000
  C   C453      1.0  0.33354  0.33816  0.61382  1.0000
  C   C454      1.0  0.31529  0.32811  0.60487  1.0000
  C   C455      1.0  0.29445  0.32891  0.61476  1.0000
  C   C456      1.0  0.29184  0.33979  0.63359  1.0000
  C   C457      1.0  0.31000  0.35009  0.64248  1.0000
  H   H376      1.0  0.36455  0.40551  0.57841  1.0000
  H   H377      1.0  0.40566  0.40664  0.58069  1.0000
  H   H378      1.0  0.42495  0.38693  0.60987  1.0000
  H   H379      1.0  0.40326  0.36709  0.63716  1.0000
  H   H380      1.0  0.34260  0.38598  0.60561  1.0000
  C   C458      1.0  0.27816  0.19476  0.72505  1.0000
  H   H381      1.0  0.12188  0.04077  0.60423  1.0000
  C   C459      1.0  0.38984  0.31022  0.68687  1.0000
  C   C460      1.0  0.00959  0.02743  0.49958  1.0000
  H   H382      1.0  0.16369  0.03273  0.65726  1.0000
  H   H383      1.0  0.26590  0.20662  0.69517  1.0000
  C   C461      1.0  0.02985  0.27675  0.67331  1.0000
  C   C462      1.0  0.02680  0.03875  0.50895  1.0000
  C   C463      1.0  0.08597  0.26909  0.62117  1.0000
  H   H384      1.0  0.39673  0.29837  0.69820  1.0000
  C   C464      1.0  0.04135  0.10306  0.57535  1.0000
  H   H385      1.0  0.01492  0.25130  0.69282  1.0000
  C   C465      1.0  0.09708  0.28693  0.62990  1.0000
  C   C466      1.0  0.14197  0.06644  0.52513  1.0000
  C   C467      1.0  0.18779  0.20496  0.70217  1.0000
  H   H386      1.0  0.08837  0.30244  0.63296  1.0000
  C   C468      1.0  0.09440  0.02769  0.51066  1.0000
  H   H387      1.0  0.20434  0.03663  0.70819  1.0000
  C   C469      1.0  0.15603  0.07907  0.55769  1.0000
  H   H388      1.0  0.12810  0.29833  0.64211  1.0000
  C   C470      1.0  0.25683  0.12147  0.70278  1.0000
  H   H389      1.0  0.29008  0.26752  0.72493  1.0000
  C   C471      1.0  0.31327  0.34326  0.73473  1.0000
  H   H390      1.0  0.14833  0.26286  0.63604  1.0000
  H   H391      1.0  0.36903  0.28607  0.67309  1.0000
  H   H392      1.0  0.28568  0.32065  0.67944  1.0000
  H   H393      1.0  0.08189  0.30464  0.59018  1.0000
  C   C472      1.0  0.25229  0.14367  0.70763  1.0000
  H   H394      1.0  0.23806  0.22437  0.71623  1.0000
  C   C473      1.0  0.25855  0.15185  0.72691  1.0000
  C   C474      1.0  0.18978  0.02647  0.70624  1.0000
  C   C475      1.0  0.05895  0.23528  0.56188  1.0000
  C   C476      1.0  0.11956  0.28469  0.63511  1.0000
  H   H395      1.0  0.22881  0.49325  0.68720  1.0000
  H   H396      1.0  0.37984  0.34157  0.50430  1.0000
  C   C477      1.0  0.25320  0.28858  0.71168  1.0000
  H   H397      1.0  0.03569  0.06054  0.53340  1.0000
  C   C478      1.0  0.08273  0.03105  0.57750  1.0000
  H   H398      1.0  0.27154  0.29471  0.65360  1.0000
  H   H399      1.0  0.17610  0.17181  0.70852  1.0000
  H   H400      1.0  0.22485  0.01230  0.55116  1.0000
  C   C479      1.0  0.31660  0.20413  0.73188  1.0000
  H   H401      1.0  0.27373  0.31734  0.71618  1.0000
  C   C480      1.0  0.16315  0.04082  0.54745  1.0000
  H   H402      1.0  0.24389  0.15439  0.69635  1.0000
  C   C481      1.0  0.18985  0.18311  0.70991  1.0000
  H   H403      1.0  0.20794  0.31750  0.73806  1.0000
  C   C482      1.0  0.06476  0.24904  0.57807  1.0000
  C   C483      1.0  0.47381  0.39881  0.55033  1.0000
  C   C484      1.0  0.34256  0.30600  0.73561  1.0000
  H   H404      1.0  0.01155  0.10273  0.55704  1.0000
  C   C485      1.0  0.26027  0.48563  0.72644  1.0000
  H   H405      1.0  0.12845  0.23075  0.62204  1.0000
  C   C486      1.0  0.09314  0.04889  0.50090  1.0000
  C   C487      1.0  0.23521  0.01416  0.58278  1.0000
  H   H406      1.0  0.05827  0.02523  0.60174  1.0000
  H   H407      1.0  0.25277  0.01311  0.57876  1.0000
  C   C488      1.0  0.26656  0.29286  0.66978  1.0000
  H   H408      1.0  0.23441  0.26056  0.70156  1.0000
  C   C489      1.0  0.06022  0.33318  0.58629  1.0000
  C   C490      1.0  0.02531  0.23861  0.66315  1.0000
  C   C491      1.0  0.45191  0.36287  0.49408  1.0000
  C   C492      1.0  0.47493  0.36667  0.49446  1.0000
  H   H409      1.0  0.50012  0.39154  0.49658  1.0000
  H   H410      1.0  0.20182  0.28775  0.71953  1.0000
  C   C493      1.0  0.17303  0.02638  0.72148  1.0000
  C   C494      1.0  0.26763  0.30562  0.70516  1.0000
  C   C495      1.0  0.12903  0.00683  0.61393  1.0000
  C   C496      1.0  0.20951  0.17586  0.71950  1.0000
  H   H411      1.0  0.39236  0.48616  0.49988  1.0000
  C   C497      1.0  0.44638  0.49158  0.54081  1.0000
  C   C498      1.0  0.22502  0.21254  0.71393  1.0000
  H   H412      1.0  0.01382  0.20594  0.70723  1.0000
  C   C499      1.0  0.27443  0.30758  0.68432  1.0000
  H   H413      1.0  0.07107  0.23108  0.54990  1.0000
  H   H414      1.0  0.03500  0.35907  0.58461  1.0000
  Fe  Fe32      1.0  0.06512  0.10270  0.49954  1.0000
  H   H415      1.0  0.30021  0.22663  0.68542  1.0000
  C   C500      1.0  0.06563  0.31173  0.59378  1.0000
  C   C501      1.0  0.20188  0.27388  0.73059  1.0000
  C   C502      1.0  0.03768  0.22631  0.56136  1.0000
  S   S68       1.0  0.08009  0.07097  0.51432  1.0000
  C   C503      1.0  0.01884  0.22812  0.73237  1.0000
  H   H416      1.0  0.24572  0.26470  0.66482  1.0000
  C   C504      1.0  0.02881  0.30868  0.60936  1.0000
  C   C505      1.0  0.24557  0.27371  0.69701  1.0000
  C   C506      1.0  0.27966  0.20632  0.70584  1.0000
  Fe  Fe33      1.0  0.35109  0.45932  0.49639  1.0000
  C   C507      1.0  0.46701  0.40614  0.49817  1.0000
  H   H417      1.0  0.16795  0.26561  0.72402  1.0000
  C   C508      1.0  0.02242  0.25522  0.67779  1.0000
  C   C509      1.0  0.22853  0.01592  0.60357  1.0000
  C   C510      1.0  0.43647  0.38064  0.49586  1.0000
  H   H418      1.0  0.15784  0.09223  0.56871  1.0000
  H   H419      1.0  0.07234  0.34261  0.57723  1.0000
  C   C511      1.0  0.02775  0.24525  0.59304  1.0000
  C   C512      1.0  0.20591  0.01727  0.60875  1.0000
  C   C513      1.0  0.19439  0.01713  0.51214  1.0000
  C   C514      1.0  0.18994  0.01647  0.59320  1.0000
  C   C515      1.0  0.01727  0.13120  0.60154  1.0000
  C   C516      1.0  0.45573  0.48336  0.52250  1.0000
  H   H420      1.0  0.43056  0.48528  0.54655  1.0000
  C   C517      1.0  0.47577  0.49193  0.51467  1.0000
  P   P18       1.0  0.24593  0.28508  0.73890  1.0000
  Fe  Fe34      1.0  0.38773  0.42405  0.49886  1.0000
  H   H421      1.0  0.13290  0.06984  0.51094  1.0000
  S   S69       1.0  0.36156  0.28322  0.73531  1.0000
  C   C518      1.0  0.00616  0.21399  0.72041  1.0000
  H   H422      1.0  0.48550  0.20436  0.73526  1.0000
  C   C519      1.0  0.44401  0.40234  0.49798  1.0000
  C   C520      1.0  0.31763  0.21643  0.71316  1.0000
  H   H423      1.0  0.33277  0.22509  0.70880  1.0000
  H   H424      1.0  0.00804  0.14237  0.61157  1.0000
  S   S70       1.0  0.42550  0.42514  0.50141  1.0000
  C   C521      1.0  0.22106  0.26835  0.74200  1.0000
  H   H425      1.0  0.08215  0.01424  0.57183  1.0000
  H   H426      1.0  0.49733  0.26718  0.58149  1.0000
  S   S71       1.0  0.36361  0.39627  0.49505  1.0000
  H   H427      1.0  0.04621  0.29840  0.65114  1.0000
  C   C522      1.0  0.27495  0.11569  0.73584  1.0000
  H   H428      1.0  0.12860  0.00848  0.54118  1.0000
  C   C523      1.0  0.49029  0.22145  0.73726  1.0000
  H   H429      1.0  0.48270  0.48557  0.50034  1.0000
  C   C524      1.0  0.27026  0.13781  0.74083  1.0000
  C   C525      1.0  0.18865  0.00287  0.52899  1.0000
  C   C526      1.0  0.28855  0.26526  0.74161  1.0000
  H   H430      1.0  0.13344  0.18072  0.74322  1.0000
  C   C527      1.0  0.20420  0.00849  0.49415  1.0000
  H   H431      1.0  0.47337  0.21168  0.89026  1.0000
  Fe  Fe35      1.0  0.14593  0.05868  0.96921  1.0000
  H   H432      1.0  0.47273  0.32090  0.81955  1.0000
  S   S72       1.0  0.16016  0.07849  0.94091  1.0000
  H   H433      1.0  0.41999  0.43218  0.91693  1.0000
  S   S73       1.0  0.11839  0.03420  0.96601  1.0000
  C   C528      1.0  0.01548  0.11762  0.98438  1.0000
  C   C529      1.0  0.49549  0.30202  0.90823  1.0000
  Fe  Fe36      1.0  0.42253  0.38426  0.97034  1.0000
  Fe  Fe37      1.0  0.41913  0.33645  0.95416  1.0000
  H   H434      1.0  0.35021  0.46950  0.83727  1.0000
  S   S74       1.0  0.40170  0.31456  0.93043  1.0000
  Fe  Fe38      1.0  0.46219  0.35247  0.97407  1.0000
  C   C530      1.0  0.03621  0.16772  0.77420  1.0000
  S   S75       1.0  0.44213  0.36472  0.94672  1.0000
  Fe  Fe39      1.0  0.39775  0.26919  0.80857  1.0000
  S   S76       1.0  0.40587  0.23231  0.80804  1.0000
  S   S77       1.0  0.41080  0.29317  0.83314  1.0000
  Fe  Fe40      1.0  0.37735  0.26820  0.76459  1.0000
  S   S78       1.0  0.38480  0.23160  0.76167  1.0000
  H   H435      1.0  0.16002  0.48570  0.91090  1.0000
  Fe  Fe41      1.0  0.37135  0.22799  0.79439  1.0000
  S   S79       1.0  0.34157  0.20587  0.80528  1.0000
  Fe  Fe42      1.0  0.41850  0.23921  0.77499  1.0000
  H   H436      1.0  0.06962  0.01770  0.90907  1.0000
  S   S80       1.0  0.36279  0.26479  0.79687  1.0000
  S   S81       1.0  0.41153  0.27594  0.77600  1.0000
  Fe  Fe43      1.0  0.20568  0.10590  0.79257  1.0000
  S   S82       1.0  0.23160  0.09528  0.76918  1.0000
  S   S83       1.0  0.18134  0.13507  0.78916  1.0000
  Fe  Fe44      1.0  0.22273  0.07389  0.82665  1.0000
  S   S84       1.0  0.25071  0.06145  0.80572  1.0000
  S   S85       1.0  0.21735  0.05682  0.85874  1.0000
  Fe  Fe45      1.0  0.25554  0.09783  0.79589  1.0000
  S   S86       1.0  0.28995  0.11408  0.78985  1.0000
  Fe  Fe46      1.0  0.22507  0.05975  0.78052  1.0000
  C   C531      1.0  0.00274  0.19193  0.79900  1.0000
  S   S87       1.0  0.22969  0.10992  0.81873  1.0000
  S   S88       1.0  0.19699  0.07078  0.80200  1.0000
  C   C532      1.0  0.41460  0.22491  0.86856  1.0000
  H   H437      1.0  0.36409  0.31013  0.84547  1.0000
  S   S89       1.0  0.44061  0.32230  0.98013  1.0000
  C   C533      1.0  0.16702  0.14056  0.76574  1.0000
  H   H438      1.0  0.44471  0.29202  0.93019  1.0000
  H   H439      1.0  0.15701  0.13558  0.94980  1.0000
  C   C534      1.0  0.47072  0.26934  0.84302  1.0000
  C   C535      1.0  0.05081  0.00264  0.93441  1.0000
  C   C536      1.0  0.00830  0.23834  0.74946  1.0000
  S   S90       1.0  0.45119  0.22463  0.76068  1.0000
  C   C537      1.0  0.06221  0.16083  0.85425  1.0000
  C   C538      1.0  0.30311  0.14045  0.79342  1.0000
  C   C539      1.0  0.29459  0.15656  0.80689  1.0000
  C   C540      1.0  0.30641  0.17644  0.81007  1.0000
  C   C541      1.0  0.32683  0.18082  0.79968  1.0000
  C   C542      1.0  0.33500  0.16498  0.78579  1.0000
  C   C543      1.0  0.32335  0.14497  0.78284  1.0000
  H   H440      1.0  0.27918  0.15345  0.81527  1.0000
  H   H441      1.0  0.29980  0.18843  0.82086  1.0000
  H   H442      1.0  0.35062  0.16787  0.77766  1.0000
  H   H443      1.0  0.33024  0.13275  0.77240  1.0000
  H   H444      1.0  0.35567  0.37846  0.95997  1.0000
  C   C544      1.0  0.45770  0.27630  0.90273  1.0000
  C   C545      1.0  0.01020  0.23093  0.80488  1.0000
  C   C546      1.0  0.40529  0.30828  0.90350  1.0000
  C   C547      1.0  0.42112  0.31875  0.89056  1.0000
  C   C548      1.0  0.42294  0.31341  0.86930  1.0000
  C   C549      1.0  0.40891  0.29769  0.86053  1.0000
  C   C550      1.0  0.39342  0.28686  0.87357  1.0000
  C   C551      1.0  0.39159  0.29221  0.89481  1.0000
  H   H445      1.0  0.43195  0.33095  0.89694  1.0000
  H   H446      1.0  0.43517  0.32168  0.85951  1.0000
  H   H447      1.0  0.38252  0.27469  0.86720  1.0000
  H   H448      1.0  0.37934  0.28388  0.90460  1.0000
  S   S91       1.0  0.06219  0.05626  0.98666  1.0000
  C   C552      1.0  0.39866  0.43983  0.97204  1.0000
  C   C553      1.0  0.32262  0.33548  0.75350  1.0000
  C   C554      1.0  0.47065  0.30307  0.82128  1.0000
  H   H449      1.0  0.31875  0.34402  0.76772  1.0000
  H   H450      1.0  0.36664  0.41464  0.94388  1.0000
  C   C555      1.0  0.17404  0.07127  0.91718  1.0000
  C   C556      1.0  0.18307  0.05002  0.91390  1.0000
  C   C557      1.0  0.19565  0.04578  0.89564  1.0000
  C   C558      1.0  0.19913  0.06255  0.88024  1.0000
  C   C559      1.0  0.18917  0.08351  0.88307  1.0000
  C   C560      1.0  0.17685  0.08783  0.90146  1.0000
  H   H451      1.0  0.18108  0.03707  0.92575  1.0000
  H   H452      1.0  0.20322  0.02950  0.89368  1.0000
  H   H453      1.0  0.19153  0.09655  0.87137  1.0000
  H   H454      1.0  0.16973  0.10423  0.90366  1.0000
  H   H455      1.0  0.42496  0.45582  0.85349  1.0000
  H   H456      1.0  0.20154  0.22173  0.76745  1.0000
  C   C561      1.0  0.26918  0.27197  0.75241  1.0000
  H   H457      1.0  0.28383  0.10488  0.74677  1.0000
  H   H458      1.0  0.42831  0.25518  0.85612  1.0000
  H   H459      1.0  0.05321  0.08631  0.93757  1.0000
  C   C562      1.0  0.33715  0.31687  0.75398  1.0000
  S   S92       1.0  0.49992  0.35107  0.96991  1.0000
  C   C563      1.0  0.43984  0.20050  0.88772  1.0000
  H   H460      1.0  0.20332  0.35513  0.75097  1.0000
  H   H461      1.0  0.38028  0.41531  0.98986  1.0000
  H   H462      1.0  0.38654  0.49576  0.97070  1.0000
  C   C564      1.0  0.28634  0.25970  0.78489  1.0000
  C   C565      1.0  0.14270  0.16521  0.74502  1.0000
  C   C566      1.0  0.45713  0.21551  0.88397  1.0000
  C   C567      1.0  0.30539  0.25284  0.77399  1.0000
  C   C568      1.0  0.35531  0.45373  0.84448  1.0000
  H   H463      1.0  0.31585  0.10747  0.83149  1.0000
  H   H464      1.0  0.32186  0.25157  0.74418  1.0000
  C   C569      1.0  0.42420  0.44208  0.88471  1.0000
  H   H465      1.0  0.45504  0.25860  0.79360  1.0000
  H   H466      1.0  0.02140  0.24489  0.80381  1.0000
  C   C570      1.0  0.26842  0.26950  0.77420  1.0000
  H   H467      1.0  0.38212  0.33725  0.86769  1.0000
  C   C571      1.0  0.39171  0.47510  0.89276  1.0000
  C   C572      1.0  0.32320  0.47047  0.94957  1.0000
  C   C573      1.0  0.12936  0.08879  0.84150  1.0000
  C   C574      1.0  0.14621  0.10198  0.83282  1.0000
  C   C575      1.0  0.15106  0.12233  0.84154  1.0000
  C   C576      1.0  0.13928  0.12941  0.85915  1.0000
  C   C577      1.0  0.12266  0.11604  0.86830  1.0000
  C   C578      1.0  0.11740  0.09590  0.85899  1.0000
  P   P19       1.0  0.10680  0.12566  0.89056  1.0000
  C   C579      1.0  0.09653  0.10207  0.90578  1.0000
  C   C580      1.0  0.12470  0.14153  0.90681  1.0000
  C   C581      1.0  0.12839  0.16421  0.90222  1.0000
  H   H468      1.0  0.20950  0.48302  0.74999  1.0000
  C   C582      1.0  0.22575  0.48930  0.74570  1.0000
  C   C583      1.0  0.14904  0.14372  0.93654  1.0000
  C   C584      1.0  0.13504  0.13148  0.92417  1.0000
  C   C585      1.0  0.07581  0.10306  0.91619  1.0000
  C   C586      1.0  0.06883  0.08521  0.92898  1.0000
  C   C587      1.0  0.08234  0.06619  0.93132  1.0000
  C   C588      1.0  0.10284  0.06498  0.92086  1.0000
  C   C589      1.0  0.11000  0.08287  0.90832  1.0000
  C   C590      1.0  0.08439  0.14396  0.88195  1.0000
  C   C591      1.0  0.07874  0.14568  0.86085  1.0000
  C   C592      1.0  0.16705  0.12513  0.74986  1.0000
  C   C593      1.0  0.48254  0.25786  0.75077  1.0000
  C   C594      1.0  0.05096  0.17409  0.86864  1.0000
  C   C595      1.0  0.07321  0.15757  0.89628  1.0000
  H   H469      1.0  0.12566  0.07300  0.83465  1.0000
  H   H470      1.0  0.15548  0.09657  0.81921  1.0000
  H   H471      1.0  0.16397  0.13256  0.83447  1.0000
  H   H472      1.0  0.14307  0.14534  0.86547  1.0000
  H   H473      1.0  0.10417  0.08559  0.86526  1.0000
  H   H474      1.0  0.12058  0.17240  0.88895  1.0000
  H   H475      1.0  0.25395  0.27525  0.78289  1.0000
  C   C596      1.0  0.43181  0.23993  0.86485  1.0000
  H   H476      1.0  0.07125  0.10445  0.98466  1.0000
  H   H477      1.0  0.13241  0.11418  0.92833  1.0000
  H   H478      1.0  0.06514  0.11765  0.91494  1.0000
  H   H479      1.0  0.47813  0.31488  0.93505  1.0000
  C   C597      1.0  0.15486  0.16063  0.76323  1.0000
  H   H480      1.0  0.11366  0.05052  0.92302  1.0000
  H   H481      1.0  0.12644  0.08194  0.90120  1.0000
  H   H482      1.0  0.08719  0.13557  0.84941  1.0000
  H   H483      1.0  0.03519  0.00960  0.92897  1.0000
  C   C598      1.0  0.02624  0.11826  0.84784  1.0000
  H   H484      1.0  0.21604  0.49037  0.86901  1.0000
  H   H485      1.0  0.07754  0.15676  0.91259  1.0000
  C   C599      1.0  0.20474  0.49827  0.87992  1.0000
  Fe  Fe47      1.0  0.09985  0.05324  0.99050  1.0000
  C   C600      1.0  0.01789  0.14675  0.81336  1.0000
  P   P20       1.0  0.01199  0.16460  0.79094  1.0000
  H   H486      1.0  0.35168  0.45270  0.90701  1.0000
  C   C601      1.0  0.49468  0.28747  0.89162  1.0000
  C   C602      1.0  0.36803  0.34257  0.85842  1.0000
  C   C603      1.0  0.47753  0.30359  0.92216  1.0000
  C   C604      1.0  0.01132  0.13622  0.84967  1.0000
  C   C605      1.0  0.47400  0.29237  0.84059  1.0000
  C   C606      1.0  0.39866  0.46009  0.90861  1.0000
  H   H487      1.0  0.39587  0.41396  0.84073  1.0000
  C   C607      1.0  0.34541  0.46406  0.91853  1.0000
  C   C608      1.0  0.25914  0.32309  0.75937  1.0000
  C   C609      1.0  0.14227  0.17650  0.91474  1.0000
  C   C610      1.0  0.40031  0.46261  0.96673  1.0000
  H   H488      1.0  0.46095  0.29921  0.78944  1.0000
  C   C611      1.0  0.40139  0.47344  0.87286  1.0000
  C   C612      1.0  0.35183  0.48647  0.91795  1.0000
  C   C613      1.0  0.03267  0.12849  0.81160  1.0000
  C   C614      1.0  0.34267  0.50104  0.93257  1.0000
  H   H489      1.0  0.01778  0.24937  0.75884  1.0000
  C   C615      1.0  0.36485  0.40025  0.93425  1.0000
  C   C616      1.0  0.49275  0.46071  0.97538  1.0000
  C   C617      1.0  0.36826  0.41260  0.86273  1.0000
  C   C618      1.0  0.34877  0.42363  0.86951  1.0000
  H   H490      1.0  0.01530  0.06110  0.98568  1.0000
  H   H491      1.0  0.23519  0.24413  0.76394  1.0000
  C   C619      1.0  0.38505  0.47827  0.97483  1.0000
  C   C620      1.0  0.36805  0.47126  0.98845  1.0000
  H   H492      1.0  0.02376  0.03173  0.96043  1.0000
  H   H493      1.0  0.47870  0.30223  0.85358  1.0000
  C   C621      1.0  0.05784  0.16654  0.78229  1.0000
  H   H494      1.0  0.29358  0.50041  0.90945  1.0000
  H   H495      1.0  0.31937  0.24538  0.78227  1.0000
  H   H496      1.0  0.32506  0.49034  0.88459  1.0000
  H   H497      1.0  0.32716  0.45234  0.86552  1.0000
  C   C622      1.0  0.38108  0.42230  0.84659  1.0000
  C   C623      1.0  0.24868  0.18319  0.76072  1.0000
  H   H498      1.0  0.05805  0.16228  0.83796  1.0000
  H   H499      1.0  0.32706  0.43859  0.93535  1.0000
  H   H500      1.0  0.03422  0.20808  0.79233  1.0000
  H   H501      1.0  0.04083  0.12502  0.79688  1.0000
  H   H502      1.0  0.29673  0.18351  0.75221  1.0000
  H   H503      1.0  0.04524  0.13726  0.98395  1.0000
  C   C624      1.0  0.38173  0.43281  0.98569  1.0000
  C   C625      1.0  0.34240  0.44413  0.86046  1.0000
  H   H504      1.0  0.07716  0.05264  0.94169  1.0000
  H   H505      1.0  0.23412  0.37301  0.76918  1.0000
  H   H506      1.0  0.38440  0.45006  0.82488  1.0000
  C   C626      1.0  0.47913  0.42932  0.95639  1.0000
  C   C627      1.0  0.18764  0.48576  0.88915  1.0000
  H   H507      1.0  0.06054  0.00891  0.99039  1.0000
  C   C628      1.0  0.46058  0.26802  0.80664  1.0000
  H   H508      1.0  0.41356  0.46820  0.95642  1.0000
  C   C629      1.0  0.07639  0.16900  0.76905  1.0000
  C   C630      1.0  0.00720  0.02492  0.95930  1.0000
  C   C631      1.0  0.15264  0.16624  0.93187  1.0000
  C   C632      1.0  0.47578  0.27445  0.88876  1.0000
  H   H509      1.0  0.04840  0.10041  0.82735  1.0000
  C   C633      1.0  0.47593  0.23578  0.74844  1.0000
  C   C634      1.0  0.01739  0.20995  0.79833  1.0000
  H   H510      1.0  0.45841  0.45650  0.96623  1.0000
  H   H511      1.0  0.16340  0.17570  0.94159  1.0000
  H   H512      1.0  0.26175  0.01357  0.75229  1.0000
  C   C635      1.0  0.25622  0.34459  0.76686  1.0000
  S   S93       1.0  0.41762  0.42080  0.96058  1.0000
  C   C636      1.0  0.05344  0.10204  0.98465  1.0000
  H   H513      1.0  0.33818  0.41609  0.88142  1.0000
  C   C637      1.0  0.07347  0.17313  0.74779  1.0000
  C   C638      1.0  0.46399  0.29089  0.80430  1.0000
  C   C639      1.0  0.30969  0.12293  0.86094  1.0000
  C   C640      1.0  0.28375  0.09898  0.84435  1.0000
  C   C641      1.0  0.26838  0.10216  0.86055  1.0000
  C   C642      1.0  0.27363  0.11566  0.87723  1.0000
  C   C643      1.0  0.29448  0.12599  0.87733  1.0000
  P   P21       1.0  0.25267  0.12172  0.89685  1.0000
  C   C644      1.0  0.26358  0.14147  0.91461  1.0000
  C   C645      1.0  0.22883  0.13455  0.88418  1.0000
  C   C646      1.0  0.20814  0.13580  0.89454  1.0000
  C   C647      1.0  0.19000  0.14658  0.88508  1.0000
  C   C648      1.0  0.19234  0.15629  0.86523  1.0000
  C   C649      1.0  0.21279  0.15508  0.85476  1.0000
  C   C650      1.0  0.23104  0.14448  0.86422  1.0000
  C   C651      1.0  0.27660  0.13394  0.93142  1.0000
  C   C652      1.0  0.28552  0.14917  0.94498  1.0000
  C   C653      1.0  0.28168  0.17201  0.94175  1.0000
  C   C654      1.0  0.26897  0.17964  0.92492  1.0000
  C   C655      1.0  0.25997  0.16446  0.91134  1.0000
  C   C656      1.0  0.24453  0.09720  0.91198  1.0000
  C   C657      1.0  0.24976  0.07563  0.90528  1.0000
  C   C658      1.0  0.24330  0.05697  0.91721  1.0000
  C   C659      1.0  0.23146  0.05961  0.93583  1.0000
  C   C660      1.0  0.22627  0.08095  0.94269  1.0000
  C   C661      1.0  0.23300  0.09966  0.93098  1.0000
  H   H514      1.0  0.27960  0.08877  0.83139  1.0000
  H   H515      1.0  0.25220  0.09447  0.85983  1.0000
  H   H516      1.0  0.29897  0.13681  0.88970  1.0000
  H   H517      1.0  0.20577  0.12832  0.90983  1.0000
  H   H518      1.0  0.17409  0.14709  0.89312  1.0000
  H   H519      1.0  0.17832  0.16462  0.85783  1.0000
  H   H520      1.0  0.21443  0.16219  0.83921  1.0000
  H   H521      1.0  0.24679  0.14409  0.85584  1.0000
  H   H522      1.0  0.27996  0.11630  0.93398  1.0000
  H   H523      1.0  0.29549  0.14325  0.95796  1.0000
  H   H524      1.0  0.28868  0.18380  0.95223  1.0000
  H   H525      1.0  0.26617  0.19737  0.92232  1.0000
  H   H526      1.0  0.25040  0.17073  0.89826  1.0000
  H   H527      1.0  0.25851  0.07291  0.89080  1.0000
  H   H528      1.0  0.24682  0.04041  0.91160  1.0000
  H   H529      1.0  0.22578  0.04513  0.94468  1.0000
  H   H530      1.0  0.21660  0.08294  0.95690  1.0000
  H   H531      1.0  0.22896  0.11603  0.93672  1.0000
  C   C662      1.0  0.44183  0.37779  0.88541  1.0000
  C   C663      1.0  0.45068  0.37077  0.86644  1.0000
  C   C664      1.0  0.43670  0.36826  0.84952  1.0000
  C   C665      1.0  0.41384  0.37259  0.85158  1.0000
  C   C666      1.0  0.40478  0.37952  0.87063  1.0000
  C   C667      1.0  0.41900  0.38220  0.88753  1.0000
  P   P22       1.0  0.37521  0.38514  0.87316  1.0000
  C   C668      1.0  0.36042  0.36478  0.85861  1.0000
  C   C669      1.0  0.33974  0.33365  0.83364  1.0000
  C   C670      1.0  0.33178  0.35562  0.83396  1.0000
  C   C671      1.0  0.34203  0.37114  0.84638  1.0000
  C   C672      1.0  0.36781  0.38309  0.90046  1.0000
  C   C673      1.0  0.36231  0.36249  0.90984  1.0000
  C   C674      1.0  0.35782  0.36091  0.93121  1.0000
  C   C675      1.0  0.35884  0.37981  0.94336  1.0000
  C   C676      1.0  0.36938  0.40187  0.91291  1.0000
  H   H532      1.0  0.45258  0.37936  0.89867  1.0000
  H   H533      1.0  0.04776  0.18276  0.90083  1.0000
  H   H534      1.0  0.44344  0.36239  0.83491  1.0000
  H   H535      1.0  0.40321  0.37016  0.83839  1.0000
  H   H536      1.0  0.41257  0.38726  0.90250  1.0000
  H   H537      1.0  0.33208  0.32170  0.82375  1.0000
  H   H538      1.0  0.31785  0.36069  0.82432  1.0000
  H   H539      1.0  0.33571  0.38809  0.84606  1.0000
  H   H540      1.0  0.36208  0.34747  0.90094  1.0000
  H   H541      1.0  0.35424  0.34482  0.93846  1.0000
  H   H542      1.0  0.37476  0.41763  0.90626  1.0000
  C   C677      1.0  0.23219  0.16964  0.79320  1.0000
  C   C678      1.0  0.24136  0.18739  0.80359  1.0000
  C   C679      1.0  0.25374  0.20335  0.79252  1.0000
  C   C680      1.0  0.41861  0.20516  0.87994  1.0000
  H   H543      1.0  0.26655  0.21419  0.76283  1.0000
  C   C681      1.0  0.23574  0.16756  0.77183  1.0000
  H   H544      1.0  0.28569  0.25770  0.80166  1.0000
  H   H545      1.0  0.09310  0.16795  0.77520  1.0000
  S   S94       1.0  0.21561  0.02932  0.76082  1.0000
  H   H546      1.0  0.47185  0.26925  0.75915  1.0000
  H   H547      1.0  0.15484  0.17268  0.77543  1.0000
  H   H548      1.0  0.44271  0.26685  0.90076  1.0000
  H   H549      1.0  0.02952  0.10736  0.86118  1.0000
  C   C682      1.0  0.00717  0.09604  0.98480  1.0000
  H   H550      1.0  0.46070  0.23960  0.82740  1.0000
  C   C683      1.0  0.35779  0.32713  0.84593  1.0000
  H   H551      1.0  0.32554  0.13131  0.86079  1.0000
  H   H552      1.0  0.06043  0.16393  0.79875  1.0000
  C   C684      1.0  0.37459  0.44278  0.83751  1.0000
  H   H553      1.0  0.03805  0.18572  0.86349  1.0000
  H   H554      1.0  0.27537  0.31516  0.76078  1.0000
  H   H555      1.0  0.43672  0.42934  0.88163  1.0000
  C   C685      1.0  0.30430  0.10948  0.84445  1.0000
  C   C686      1.0  0.47522  0.44972  0.96592  1.0000
  H   H556      1.0  0.14501  0.19398  0.91116  1.0000
  H   H557      1.0  0.22236  0.15734  0.80162  1.0000
  H   H558      1.0  0.23897  0.18877  0.82020  1.0000
  H   H559      1.0  0.26096  0.21705  0.80056  1.0000
  P   P23       1.0  0.47527  0.25505  0.86774  1.0000
  H   H560      1.0  0.22848  0.15366  0.76408  1.0000
  H   H561      1.0  0.39814  0.22865  0.86255  1.0000
  C   C687      1.0  0.25712  0.20147  0.77111  1.0000
  C   C688      1.0  0.33133  0.45605  0.93445  1.0000
  C   C689      1.0  0.03690  0.11440  0.82881  1.0000
  H   H562      1.0  0.34441  0.31113  0.76848  1.0000
  C   C690      1.0  0.41478  0.44366  0.90457  1.0000
  C   C691      1.0  0.41758  0.45701  0.86889  1.0000
  H   H563      1.0  0.40522  0.19353  0.88277  1.0000
  C   C692      1.0  0.32862  0.49300  0.94845  1.0000
  C   C693      1.0  0.03347  0.17235  0.75291  1.0000
  H   H564      1.0  0.39170  0.46105  0.92417  1.0000
  P   P24       1.0  0.48769  0.48597  0.98955  1.0000
  H   H565      1.0  0.27005  0.35285  0.77385  1.0000
  S   S95       1.0  0.39809  0.35678  0.97638  1.0000
  H   H566      1.0  0.46830  0.36695  0.86497  1.0000
  C   C694      1.0  0.46379  0.25730  0.82590  1.0000
  H   H567      1.0  0.31295  0.46422  0.96238  1.0000
  H   H568      1.0  0.49333  0.23643  0.79160  1.0000
  C   C695      1.0  0.45330  0.23521  0.87223  1.0000
  C   C696      1.0  0.22144  0.32435  0.74651  1.0000
  C   C697      1.0  0.05643  0.17242  0.88966  1.0000
  H   H569      1.0  0.18563  0.46851  0.88509  1.0000
  C   C698      1.0  0.03868  0.12058  0.98425  1.0000
  C   C699      1.0  0.20155  0.23653  0.75740  1.0000
  H   H570      1.0  0.27579  0.14390  0.75555  1.0000
  C   C700      1.0  0.45872  0.29067  0.91945  1.0000
  C   C701      1.0  0.04501  0.08045  0.98520  1.0000
  H   H571      1.0  0.44287  0.18526  0.89668  1.0000
  H   H572      1.0  0.46539  0.42043  0.94992  1.0000
  C   C702      1.0  0.23602  0.35600  0.76415  1.0000
  C   C703      1.0  0.18247  0.24251  0.74630  1.0000
  C   C704      1.0  0.02188  0.07764  0.98513  1.0000
  H   H573      1.0  0.16766  0.23245  0.74770  1.0000
  C   C705      1.0  0.17324  0.49542  0.90372  1.0000
  C   C706      1.0  0.24163  0.31257  0.74938  1.0000
  C   C707      1.0  0.22072  0.24939  0.75533  1.0000
  C   C708      1.0  0.30663  0.25598  0.75244  1.0000
  H   H574      1.0  0.01705  0.17436  0.74635  1.0000
  C   C709      1.0  0.21867  0.34591  0.75391  1.0000
  C   C710      1.0  0.22742  0.00532  0.74830  1.0000
  H   H575      1.0  0.17635  0.10964  0.75164  1.0000
  C   C711      1.0  0.07028  0.00708  0.92293  1.0000
  H   H576      1.0  0.39656  0.48471  0.86032  1.0000
  H   H577      1.0  0.00298  0.13919  0.86442  1.0000
  C   C712      1.0  0.33372  0.50025  0.87289  1.0000
  P   P25       1.0  0.37115  0.49665  0.89828  1.0000
  Fe  Fe48      1.0  0.13396  0.01508  0.99259  1.0000
  C   C713      1.0  0.50173  0.24019  0.86663  1.0000
  H   H578      1.0  0.40723  0.49944  0.92847  1.0000
  S   S96       1.0  0.12622  0.07905  0.99246  1.0000
  C   C714      1.0  0.00716  0.15042  0.83254  1.0000
  C   C715      1.0  0.50060  0.42005  0.95573  1.0000
  H   H579      1.0  0.00234  0.11791  0.78165  1.0000
  S   S97       1.0  0.03758  0.84958  0.02561  1.0000
  Fe  Fe49      1.0  0.06200  0.82126  0.02128  1.0000
  S   S98       1.0  0.07065  0.79393  0.04590  1.0000
  H   H580      1.0  0.39301  0.66159  0.01003  1.0000
  S   S99       1.0  0.37401  0.54665  0.01537  1.0000
  C   C716      1.0  0.31551  0.52272  0.23536  1.0000
  Fe  Fe50      1.0  0.34618  0.57219  0.01611  1.0000
  S   S100      1.0  0.33748  0.59209  0.04542  1.0000
  Fe  Fe51      1.0  0.27031  0.58147  0.15695  1.0000
  S   S101      1.0  0.23632  0.58031  0.17274  1.0000
  S   S102      1.0  0.27797  0.56502  0.12570  1.0000
  Fe  Fe52      1.0  0.29069  0.60431  0.19419  1.0000
  S   S103      1.0  0.25871  0.60439  0.21250  1.0000
  H   H581      1.0  0.08743  0.72653  0.02631  1.0000
  Fe  Fe53      1.0  0.25517  0.56892  0.20158  1.0000
  S   S104      1.0  0.24299  0.54207  0.22533  1.0000
  Fe  Fe54      1.0  0.24232  0.61571  0.18258  1.0000
  S   S105      1.0  0.22365  0.64972  0.17990  1.0000
  S   S106      1.0  0.28850  0.56839  0.18530  1.0000
  S   S107      1.0  0.27495  0.61714  0.16476  1.0000
  Fe  Fe55      1.0  0.09581  0.76941  0.16966  1.0000
  S   S108      1.0  0.07766  0.73696  0.17236  1.0000
  S   S109      1.0  0.09690  0.79496  0.14228  1.0000
  Fe  Fe56      1.0  0.11120  0.76520  0.21504  1.0000
  S   S110      1.0  0.09377  0.73256  0.22049  1.0000
  H   H582      1.0  0.27951  0.71185  0.18181  1.0000
  Fe  Fe57      1.0  0.10820  0.72349  0.18924  1.0000
  S   S111      1.0  0.12331  0.68820  0.18582  1.0000
  Fe  Fe58      1.0  0.06489  0.74864  0.20366  1.0000
  S   S112      1.0  0.02720  0.74886  0.21152  1.0000
  S   S113      1.0  0.12705  0.75526  0.18474  1.0000
  S   S114      1.0  0.08169  0.78186  0.20002  1.0000
  C   C717      1.0  0.35323  0.78975  0.21535  1.0000
  H   H583      1.0  0.16280  0.83322  0.02043  1.0000
  C   C718      1.0  0.45753  0.57209  0.03424  1.0000
  H   H584      1.0  0.48040  0.55718  0.01242  1.0000
  C   C719      1.0  0.45521  0.58430  0.05246  1.0000
  H   H585      1.0  0.38458  0.75874  0.16541  1.0000
  C   C720      1.0  0.03231  0.98728  0.99545  1.0000
  H   H586      1.0  0.26732  0.70556  0.23717  1.0000
  H   H587      1.0  0.40229  0.77520  0.13400  1.0000
  C   C721      1.0  0.03998  0.80009  0.23982  1.0000
  H   H588      1.0  0.12505  0.81862  0.21923  1.0000
  C   C722      1.0  0.47440  0.59231  0.06186  1.0000
  C   C723      1.0  0.16170  0.80147  0.17828  1.0000
  H   H589      1.0  0.33091  0.53714  0.20783  1.0000
  H   H590      1.0  0.40853  0.51154  0.06075  1.0000
  H   H591      1.0  0.43412  0.54286  0.05654  1.0000
  C   C724      1.0  0.39960  0.77767  0.22794  1.0000
  C   C725      1.0  0.19557  0.65991  0.18187  1.0000
  C   C726      1.0  0.17775  0.64623  0.18762  1.0000
  C   C727      1.0  0.15586  0.65520  0.18888  1.0000
  C   C728      1.0  0.15143  0.67798  0.18466  1.0000
  C   C729      1.0  0.16924  0.69162  0.17877  1.0000
  C   C730      1.0  0.19110  0.68265  0.17743  1.0000
  H   H592      1.0  0.18077  0.62870  0.19098  1.0000
  H   H593      1.0  0.14223  0.64437  0.19318  1.0000
  H   H594      1.0  0.16603  0.70892  0.17464  1.0000
  H   H595      1.0  0.20460  0.69335  0.17254  1.0000
  C   C731      1.0  0.38089  0.53185  0.07105  1.0000
  H   H596      1.0  0.35164  0.54490  0.13567  1.0000
  H   H597      1.0  0.16501  0.81772  0.14825  1.0000
  C   C732      1.0  0.44089  0.59694  0.12407  1.0000
  H   H598      1.0  0.44297  0.56698  0.02591  1.0000
  C   C733      1.0  0.32638  0.63533  0.22581  1.0000
  C   C734      1.0  0.42478  0.63227  0.11263  1.0000
  C   C735      1.0  0.32016  0.58447  0.06722  1.0000
  C   C736      1.0  0.31145  0.56309  0.06992  1.0000
  C   C737      1.0  0.29866  0.55753  0.08786  1.0000
  C   C738      1.0  0.29436  0.57316  0.10343  1.0000
  C   C739      1.0  0.30292  0.59461  0.10066  1.0000
  C   C740      1.0  0.31564  0.60020  0.08267  1.0000
  H   H599      1.0  0.31463  0.55079  0.05821  1.0000
  H   H600      1.0  0.29199  0.54095  0.08969  1.0000
  H   H601      1.0  0.29945  0.60693  0.11225  1.0000
  H   H602      1.0  0.32173  0.61693  0.08054  1.0000
  C   C741      1.0  0.17338  0.80787  0.16026  1.0000
  C   C742      1.0  0.24580  0.71283  0.19352  1.0000
  C   C743      1.0  0.17182  0.97217  0.14404  1.0000
  H   H603      1.0  0.27479  0.50848  0.20911  1.0000
  C   C744      1.0  0.10766  0.73588  0.05188  1.0000
  H   H604      1.0  0.30126  0.67211  0.18536  1.0000
  H   H605      1.0  0.41947  0.64914  0.11587  1.0000
  H   H606      1.0  0.03117  0.79679  0.20773  1.0000
  C   C745      1.0  0.07602  0.79493  0.07312  1.0000
  C   C746      1.0  0.08024  0.81486  0.08305  1.0000
  C   C747      1.0  0.08638  0.81454  0.10421  1.0000
  C   C748      1.0  0.08776  0.79443  0.11595  1.0000
  C   C749      1.0  0.08280  0.77460  0.10620  1.0000
  C   C750      1.0  0.07723  0.77483  0.08491  1.0000
  H   H607      1.0  0.07938  0.83048  0.07430  1.0000
  H   H608      1.0  0.09010  0.83003  0.11153  1.0000
  H   H609      1.0  0.08345  0.75911  0.11504  1.0000
  H   H610      1.0  0.07376  0.75932  0.07753  1.0000
  H   H611      1.0  0.35648  0.55619  0.08078  1.0000
  C   C751      1.0  0.43405  0.61872  0.12834  1.0000
  H   H612      1.0  0.44803  0.58639  0.13625  1.0000
  C   C752      1.0  0.10320  0.77678  0.00015  1.0000
  C   C753      1.0  0.34642  0.71939  0.19051  1.0000
  C   C754      1.0  0.35900  0.70207  0.19963  1.0000
  C   C755      1.0  0.37771  0.70686  0.21125  1.0000
  C   C756      1.0  0.38387  0.72896  0.21378  1.0000
  C   C757      1.0  0.37127  0.74651  0.20485  1.0000
  C   C758      1.0  0.35248  0.74155  0.19315  1.0000
  P   P26       1.0  0.37870  0.77527  0.20818  1.0000
  C   C759      1.0  0.39088  0.78703  0.18465  1.0000
  C   C760      1.0  0.40068  0.80808  0.18509  1.0000
  C   C761      1.0  0.41078  0.81727  0.16720  1.0000
  C   C762      1.0  0.41126  0.80546  0.14878  1.0000
  C   C763      1.0  0.40166  0.78444  0.14824  1.0000
  C   C764      1.0  0.39153  0.77519  0.16611  1.0000
  H   H613      1.0  0.33192  0.71561  0.18152  1.0000
  H   H614      1.0  0.35422  0.68493  0.19785  1.0000
  H   H615      1.0  0.38738  0.69351  0.21860  1.0000
  H   H616      1.0  0.16780  0.91810  0.23244  1.0000
  H   H617      1.0  0.34251  0.75485  0.18615  1.0000
  P   P27       1.0  0.18617  0.99349  0.17950  1.0000
  H   H618      1.0  0.40066  0.81731  0.19935  1.0000
  H   H619      1.0  0.41844  0.83347  0.16769  1.0000
  H   H620      1.0  0.41928  0.81252  0.13497  1.0000
  C   C765      1.0  0.09461  0.72121  0.04102  1.0000
  S   S115      1.0  0.32332  0.62011  0.20289  1.0000
  Fe  Fe59      1.0  0.06062  0.86983  0.00474  1.0000
  C   C766      1.0  0.41719  0.54624  0.06147  1.0000
  C   C767      1.0  0.34527  0.80825  0.20369  1.0000
  H   H621      1.0  0.20487  0.80687  0.14393  1.0000
  H   H622      1.0  0.44433  0.57197  0.10084  1.0000
  C   C768      1.0  0.40959  0.56806  0.06519  1.0000
  C   C769      1.0  0.14532  0.84239  0.23476  1.0000
  C   C770      1.0  0.36677  0.67992  0.08506  1.0000
  C   C771      1.0  0.36755  0.66487  0.06887  1.0000
  C   C772      1.0  0.36514  0.64215  0.07322  1.0000
  C   C773      1.0  0.36268  0.63433  0.09372  1.0000
  C   C774      1.0  0.36238  0.64924  0.11021  1.0000
  C   C775      1.0  0.36372  0.67219  0.10560  1.0000
  P   P28       1.0  0.35648  0.63953  0.13657  1.0000
  C   C776      1.0  0.32986  0.65179  0.14367  1.0000
  C   C777      1.0  0.35504  0.60947  0.13739  1.0000
  C   C778      1.0  0.33556  0.59858  0.14388  1.0000
  C   C779      1.0  0.33451  0.57535  0.14338  1.0000
  C   C780      1.0  0.35283  0.56284  0.13651  1.0000
  C   C781      1.0  0.37250  0.57350  0.13057  1.0000
  C   C782      1.0  0.37369  0.59671  0.13124  1.0000
  C   C783      1.0  0.32564  0.65904  0.16392  1.0000
  C   C784      1.0  0.30475  0.66789  0.16936  1.0000
  C   C785      1.0  0.28800  0.66989  0.15454  1.0000
  C   C786      1.0  0.29213  0.66289  0.13428  1.0000
  C   C787      1.0  0.31291  0.65375  0.12888  1.0000
  C   C788      1.0  0.37753  0.64659  0.15509  1.0000
  C   C789      1.0  0.39256  0.66394  0.15112  1.0000
  C   C790      1.0  0.40818  0.66938  0.16603  1.0000
  C   C791      1.0  0.37864  0.63465  0.17415  1.0000
  H   H623      1.0  0.36789  0.69762  0.08160  1.0000
  H   H624      1.0  0.36933  0.67081  0.05289  1.0000
  H   H625      1.0  0.36437  0.63053  0.06066  1.0000
  H   H626      1.0  0.35994  0.61673  0.09632  1.0000
  H   H627      1.0  0.36176  0.68417  0.11779  1.0000
  H   H628      1.0  0.32104  0.60787  0.14906  1.0000
  H   H629      1.0  0.31923  0.56706  0.14788  1.0000
  P   P29       1.0  0.14591  0.79480  0.99825  1.0000
  H   H630      1.0  0.38888  0.60478  0.12634  1.0000
  H   H631      1.0  0.33807  0.65703  0.17580  1.0000
  H   H632      1.0  0.27148  0.67576  0.15897  1.0000
  H   H633      1.0  0.27890  0.66368  0.12299  1.0000
  H   H634      1.0  0.31555  0.64774  0.11329  1.0000
  H   H635      1.0  0.39246  0.67335  0.13664  1.0000
  H   H636      1.0  0.41962  0.68290  0.16298  1.0000
  H   H637      1.0  0.36702  0.62140  0.17778  1.0000
  C   C792      1.0  0.20951  0.80823  0.23154  1.0000
  C   C793      1.0  0.08228  0.94771  0.01334  1.0000
  S   S116      1.0  0.48670  0.64603  0.99447  1.0000
  C   C794      1.0  0.15633  0.93872  0.20659  1.0000
  C   C795      1.0  0.16079  0.95720  0.19352  1.0000
  C   C796      1.0  0.18050  0.96913  0.19574  1.0000
  C   C797      1.0  0.19471  0.96336  0.21226  1.0000
  H   H638      1.0  0.21055  0.65105  0.22861  1.0000
  H   H639      1.0  0.45648  0.65364  0.24082  1.0000
  H   H640      1.0  0.16196  0.95590  0.11621  1.0000
  H   H641      1.0  0.47317  0.60286  0.07520  1.0000
  C   C798      1.0  0.42751  0.51092  0.00977  1.0000
  H   H642      1.0  0.20932  0.97306  0.21514  1.0000
  H   H643      1.0  0.03478  0.83700  0.19910  1.0000
  C   C799      1.0  0.31056  0.63461  0.24196  1.0000
  H   H644      1.0  0.04463  0.86326  0.22657  1.0000
  H   H645      1.0  0.09678  0.98049  0.01371  1.0000
  H   H646      1.0  0.14069  0.85612  0.22440  1.0000
  H   H647      1.0  0.19716  0.69014  0.23001  1.0000
  C   C800      1.0  0.15837  0.72358  0.22524  1.0000
  C   C801      1.0  0.21810  0.66237  0.23924  1.0000
  C   C802      1.0  0.47871  0.56666  0.02641  1.0000
  H   H648      1.0  0.14884  0.96215  0.18179  1.0000
  C   C803      1.0  0.16462  0.97171  0.12346  1.0000
  C   C804      1.0  0.42978  0.60245  0.08808  1.0000
  H   H649      1.0  0.41478  0.63487  0.08093  1.0000
  C   C805      1.0  0.25267  0.98032  0.17002  1.0000
  H   H650      1.0  0.42098  0.66190  0.19660  1.0000
  C   C806      1.0  0.17529  0.99262  0.15350  1.0000
  C   C807      1.0  0.25139  0.51455  0.23393  1.0000
  P   P30       1.0  0.42777  0.59171  0.06221  1.0000
  C   C808      1.0  0.08428  0.92579  0.00625  1.0000
  C   C809      1.0  0.09023  0.70002  0.04949  1.0000
  C   C810      1.0  0.11653  0.72931  0.07109  1.0000
  C   C811      1.0  0.11252  0.70792  0.07961  1.0000
  C   C812      1.0  0.09889  0.69350  0.06883  1.0000
  P   P31       1.0  0.12138  0.70049  0.10570  1.0000
  C   C813      1.0  0.09636  0.69810  0.12157  1.0000
  C   C814      1.0  0.13828  0.67525  0.10738  1.0000
  C   C815      1.0  0.14102  0.66116  0.09042  1.0000
  C   C816      1.0  0.15484  0.64220  0.09203  1.0000
  C   C817      1.0  0.16620  0.63731  0.11044  1.0000
  C   C818      1.0  0.16388  0.65144  0.12724  1.0000
  C   C819      1.0  0.15009  0.67036  0.12570  1.0000
  C   C820      1.0  0.09556  0.68361  0.13904  1.0000
  C   C821      1.0  0.07604  0.68178  0.15101  1.0000
  C   C822      1.0  0.05707  0.69423  0.14557  1.0000
  C   C823      1.0  0.05767  0.70868  0.12821  1.0000
  C   C824      1.0  0.07720  0.71063  0.11626  1.0000
  C   C825      1.0  0.13897  0.72225  0.11466  1.0000
  C   C826      1.0  0.13041  0.73938  0.12699  1.0000
  C   C827      1.0  0.14413  0.75678  0.13260  1.0000
  C   C828      1.0  0.16647  0.75696  0.12635  1.0000
  C   C829      1.0  0.17514  0.73990  0.11420  1.0000
  C   C830      1.0  0.16141  0.72270  0.10821  1.0000
  H   H651      1.0  0.07964  0.68887  0.04129  1.0000
  H   H652      1.0  0.12569  0.74137  0.07955  1.0000
  H   H653      1.0  0.09448  0.67744  0.07564  1.0000
  H   H654      1.0  0.13286  0.66475  0.07587  1.0000
  H   H655      1.0  0.15685  0.63131  0.07895  1.0000
  H   H656      1.0  0.17692  0.62264  0.11170  1.0000
  H   H657      1.0  0.17280  0.64777  0.14150  1.0000
  H   H658      1.0  0.14869  0.68123  0.13885  1.0000
  H   H659      1.0  0.10993  0.67385  0.14381  1.0000
  H   H660      1.0  0.07586  0.67106  0.16484  1.0000
  H   H661      1.0  0.04310  0.71871  0.12424  1.0000
  H   H662      1.0  0.07727  0.72205  0.10297  1.0000
  H   H663      1.0  0.11320  0.73948  0.13220  1.0000
  H   H664      1.0  0.11021  0.75268  0.04580  1.0000
  H   H665      1.0  0.17701  0.77036  0.13092  1.0000
  H   H666      1.0  0.19249  0.73998  0.10940  1.0000
  H   H667      1.0  0.16831  0.70972  0.09855  1.0000
  H   H668      1.0  0.17042  0.76230  0.02504  1.0000
  C   C831      1.0  0.17116  0.93247  0.22234  1.0000
  H   H669      1.0  0.10298  0.78031  0.01649  1.0000
  C   C832      1.0  0.32325  0.54035  0.22281  1.0000
  H   H670      1.0  0.01155  0.97242  0.04336  1.0000
  H   H671      1.0  0.12176  0.81529  0.03299  1.0000
  H   H672      1.0  0.14135  0.92925  0.20463  1.0000
  C   C833      1.0  0.14636  0.78959  0.02608  1.0000
  C   C834      1.0  0.42238  0.62412  0.09265  1.0000
  H   H673      1.0  0.42568  0.76198  0.20957  1.0000
  C   C835      1.0  0.09841  0.96377  0.00802  1.0000
  C   C836      1.0  0.43877  0.58882  0.10402  1.0000
  C   C837      1.0  0.40279  0.52826  0.06416  1.0000
  C   C838      1.0  0.03771  0.83091  0.21484  1.0000
  C   C839      1.0  0.16006  0.77270  0.03479  1.0000
  C   C840      1.0  0.16049  0.76905  0.05637  1.0000
  C   C841      1.0  0.14733  0.78226  0.06939  1.0000
  C   C842      1.0  0.13363  0.79899  0.06084  1.0000
  C   C843      1.0  0.13294  0.80253  0.03930  1.0000
  H   H674      1.0  0.31708  0.50575  0.23014  1.0000
  C   C844      1.0  0.19022  0.94493  0.22528  1.0000
  Fe  Fe60      1.0  0.02205  0.83925  0.99596  1.0000
  C   C845      1.0  0.23011  0.97793  0.17515  1.0000
  H   H675      1.0  0.49736  0.65866  0.23902  1.0000
  H   H676      1.0  0.26185  0.97156  0.21760  1.0000
  C   C846      1.0  0.44932  0.50917  0.00207  1.0000
  C   C847      1.0  0.22018  0.78743  0.22925  1.0000
  C   C848      1.0  0.47379  0.70995  0.22488  1.0000
  H   H677      1.0  0.06826  0.95225  0.02315  1.0000
  H   H678      1.0  0.16122  0.87371  0.01283  1.0000
  C   C849      1.0  0.17418  0.73679  0.21493  1.0000
  C   C850      1.0  0.26889  0.74528  0.18896  1.0000
  H   H679      1.0  0.41960  0.52718  0.01100  1.0000
  H   H680      1.0  0.46417  0.70268  0.21280  1.0000
  H   H681      1.0  0.17096  0.75593  0.06301  1.0000
  H   H682      1.0  0.14746  0.77943  0.08610  1.0000
  H   H683      1.0  0.12335  0.80914  0.07092  1.0000
  H   H684      1.0  0.36958  0.51801  0.07277  1.0000
  C   C851      1.0  0.49701  0.71258  0.22188  1.0000
  S   S117      1.0  0.08628  0.84212  0.00228  1.0000
  H   H685      1.0  0.31932  0.83335  0.20060  1.0000
  C   C852      1.0  0.25298  0.98249  0.22805  1.0000
  C   C853      1.0  0.23097  0.74943  0.20233  1.0000
  P   P32       1.0  0.20869  0.76706  0.21236  1.0000
  C   C854      1.0  0.49770  0.57441  0.03597  1.0000
  H   H686      1.0  0.04212  0.69314  0.15515  1.0000
  H   H687      1.0  0.22380  0.78441  0.17120  1.0000
  C   C855      1.0  0.03578  0.80821  0.21967  1.0000
  C   C856      1.0  0.17236  0.78886  0.19388  1.0000
  C   C857      1.0  0.18807  0.75056  0.22612  1.0000
  C   C858      1.0  0.41700  0.61311  0.04469  1.0000
  H   H688      1.0  0.17545  0.73647  0.19816  1.0000
  C   C859      1.0  0.38772  0.57140  0.07259  1.0000
  H   H689      1.0  0.35448  0.81469  0.19035  1.0000
  H   H690      1.0  0.39485  0.63089  0.20369  1.0000
  H   H691      1.0  0.39820  0.73214  0.22312  1.0000
  H   H692      1.0  0.35796  0.64846  0.21575  1.0000
  C   C860      1.0  0.42915  0.63269  0.04125  1.0000
  C   C861      1.0  0.42034  0.65027  0.02913  1.0000
  C   C862      1.0  0.39964  0.64817  0.01982  1.0000
  C   C863      1.0  0.38778  0.62848  0.02262  1.0000
  C   C864      1.0  0.39651  0.61087  0.03480  1.0000
  C   C865      1.0  0.49553  0.58734  0.05362  1.0000
  C   C866      1.0  0.40903  0.65750  0.18497  1.0000
  C   C867      1.0  0.32520  0.81880  0.20934  1.0000
  H   H693      1.0  0.13741  0.77019  0.14182  1.0000
  H   H694      1.0  0.00467  0.96708  0.00610  1.0000
  C   C868      1.0  0.37347  0.55338  0.07549  1.0000
  H   H695      1.0  0.38670  0.56381  0.12517  1.0000
  H   H696      1.0  0.38146  0.58800  0.07575  1.0000
  H   H697      1.0  0.30263  0.71275  0.21867  1.0000
  H   H698      1.0  0.16306  0.78446  0.20789  1.0000
  H   H699      1.0  0.44544  0.63442  0.04800  1.0000
  H   H700      1.0  0.42997  0.66520  0.02637  1.0000
  C   C869      1.0  0.13646  0.82117  0.23178  1.0000
  H   H701      1.0  0.37174  0.62681  0.01537  1.0000
  H   H702      1.0  0.38709  0.59571  0.03642  1.0000
  C   C870      1.0  0.03945  0.99398  0.03783  1.0000
  H   H703      1.0  0.28463  0.75264  0.18441  1.0000
  C   C871      1.0  0.20646  0.78887  0.17335  1.0000
  C   C872      1.0  0.19578  0.80166  0.15783  1.0000
  C   C873      1.0  0.19480  0.78232  0.19152  1.0000
  H   H704      1.0  0.25393  0.77656  0.19725  1.0000
  C   C874      1.0  0.00929  0.74645  0.23399  1.0000
  C   C875      1.0  0.39435  0.64005  0.18895  1.0000
  H   H705      1.0  0.14433  0.80635  0.18024  1.0000
  C   C876      1.0  0.26605  0.72232  0.18754  1.0000
  H   H706      1.0  0.21294  0.71841  0.20529  1.0000
  C   C877      1.0  0.25143  0.75879  0.19625  1.0000
  C   C878      1.0  0.04333  0.84563  0.23031  1.0000
  C   C879      1.0  0.22835  0.72630  0.20086  1.0000
  H   H707      1.0  0.19373  0.81202  0.22423  1.0000
  C   C880      1.0  0.01825  0.97748  0.01061  1.0000
  C   C881      1.0  0.34564  0.64795  0.22808  1.0000
  C   C882      1.0  0.02199  0.98062  0.03173  1.0000
  H   H708      1.0  0.33338  0.73120  0.23631  1.0000
  H   H709      1.0  0.17517  0.95658  0.15230  1.0000
  H   H710      1.0  0.43586  0.62508  0.14383  1.0000
  H   H711      1.0  0.24352  0.69498  0.19243  1.0000
  H   H712      1.0  0.07006  0.76373  0.00156  1.0000
  S   S118      1.0  0.06368  0.90621  0.01383  1.0000
  H   H713      1.0  0.04254  0.99625  0.05417  1.0000
  C   C883      1.0  0.31283  0.81080  0.22645  1.0000
  H   H714      1.0  0.26376  0.96592  0.17063  1.0000
  H   H715      1.0  0.22401  0.96148  0.17913  1.0000
  C   C884      1.0  0.32065  0.56221  0.22939  1.0000
  H   H716      1.0  0.14752  0.71318  0.21649  1.0000
  H   H717      1.0  0.45803  0.52431  0.99785  1.0000
  C   C885      1.0  0.15475  0.83933  0.00642  1.0000
  Fe  Fe61      1.0  0.35233  0.52773  0.99413  1.0000
  C   C886      1.0  0.42137  0.76976  0.22410  1.0000
  C   C887      1.0  0.34064  0.78181  0.23243  1.0000
  C   C888      1.0  0.21568  0.99659  0.17487  1.0000
  C   C889      1.0  0.16134  0.99160  0.11205  1.0000
  C   C890      1.0  0.30031  0.71823  0.23444  1.0000
  H   H718      1.0  0.32647  0.57590  0.21958  1.0000
  C   C891      1.0  0.24015  0.78292  0.23983  1.0000
  H   H719      1.0  0.29753  0.81923  0.23111  1.0000
  C   C892      1.0  0.11678  0.95803  0.99557  1.0000
  C   C893      1.0  0.32048  0.79219  0.23787  1.0000
  C   C894      1.0  0.15409  0.86229  0.00209  1.0000
  C   C895      1.0  0.43768  0.77122  0.23927  1.0000
  H   H720      1.0  0.20155  0.94035  0.23774  1.0000
  C   C896      1.0  0.21065  0.68450  0.23996  1.0000
  H   H721      1.0  0.29569  0.62491  0.24043  1.0000
  H   H722      1.0  0.24829  0.76674  0.23905  1.0000
  H   H723      1.0  0.03838  0.78243  0.24321  1.0000
  C   C897      1.0  0.04964  0.00087  0.00172  1.0000
  S   S119      1.0  0.32334  0.55199  0.99682  1.0000
  S   S120      1.0  0.13076  0.77673  0.24268  1.0000
  H   H724      1.0  0.45427  0.76452  0.23641  1.0000
  H   H725      1.0  0.15608  0.99126  0.09601  1.0000
  H   H726      1.0  0.34680  0.76798  0.24197  1.0000
  C   C898      1.0  0.21915  0.82456  0.24341  1.0000
  C   C899      1.0  0.26083  0.00118  0.16391  1.0000
  C   C900      1.0  0.46300  0.71637  0.24344  1.0000
  C   C901      1.0  0.10248  0.92012  0.99357  1.0000
  H   H727      1.0  0.16131  0.79329  0.27203  1.0000
  S   S121      1.0  0.11957  0.93202  0.46836  1.0000
  P   P33       1.0  0.29027  0.55453  0.28653  1.0000
  Fe  Fe62      1.0  0.15208  0.91301  0.46743  1.0000
  S   S122      1.0  0.16427  0.89298  0.43926  1.0000
  C   C902      1.0  0.49887  0.72878  0.25568  1.0000
  H   H728      1.0  0.16472  0.93562  0.41566  1.0000
  S   S123      1.0  0.45338  0.61075  0.46449  1.0000
  C   C903      1.0  0.29314  0.53033  0.30369  1.0000
  Fe  Fe63      1.0  0.42662  0.63755  0.46352  1.0000
  S   S124      1.0  0.40986  0.64502  0.43198  1.0000
  Fe  Fe64      1.0  0.21076  0.90270  0.31738  1.0000
  S   S125      1.0  0.24721  0.90443  0.30776  1.0000
  S   S126      1.0  0.19516  0.91965  0.34605  1.0000
  Fe  Fe65      1.0  0.19825  0.88186  0.27600  1.0000
  S   S127      1.0  0.23347  0.88223  0.26397  1.0000
  C   C904      1.0  0.32694  0.58100  0.29403  1.0000
  Fe  Fe66      1.0  0.24306  0.86932  0.29595  1.0000
  S   S128      1.0  0.26252  0.83618  0.30305  1.0000
  Fe  Fe67      1.0  0.23480  0.91728  0.27626  1.0000
  C   C905      1.0  0.19981  0.95652  0.43931  1.0000
  S   S129      1.0  0.20711  0.86729  0.30734  1.0000
  S   S130      1.0  0.19901  0.91721  0.28657  1.0000
  Fe  Fe68      1.0  0.36572  0.69674  0.29036  1.0000
  S   S131      1.0  0.37324  0.72336  0.26640  1.0000
  C   C906      1.0  0.47573  0.72594  0.25879  1.0000
  Fe  Fe69      1.0  0.39885  0.71429  0.32120  1.0000
  S   S132      1.0  0.40821  0.74283  0.29903  1.0000
  S   S133      1.0  0.41867  0.71058  0.35155  1.0000
  Fe  Fe70      1.0  0.37120  0.74704  0.29300  1.0000
  S   S134      1.0  0.35445  0.78162  0.28687  1.0000
  Fe  Fe71      1.0  0.40943  0.71717  0.27415  1.0000
  C   C907      1.0  0.40626  0.51299  0.39560  1.0000
  S   S135      1.0  0.36195  0.72051  0.31685  1.0000
  S   S136      1.0  0.40175  0.68856  0.29643  1.0000
  C   C908      1.0  0.04740  0.75977  0.29493  1.0000
  C   C909      1.0  0.25362  0.57300  0.26575  1.0000
  C   C910      1.0  0.48820  0.66234  0.25317  1.0000
  C   C911      1.0  0.28812  0.82122  0.29794  1.0000
  C   C912      1.0  0.30575  0.83047  0.28634  1.0000
  C   C913      1.0  0.32579  0.81814  0.28326  1.0000
  C   C914      1.0  0.32857  0.79626  0.29147  1.0000
  C   C915      1.0  0.31076  0.78681  0.30267  1.0000
  C   C916      1.0  0.29080  0.79923  0.30594  1.0000
  H   H729      1.0  0.30413  0.84729  0.28005  1.0000
  H   H730      1.0  0.33932  0.82569  0.27450  1.0000
  H   H731      1.0  0.31252  0.77011  0.30922  1.0000
  H   H732      1.0  0.27746  0.79184  0.31508  1.0000
  C   C917      1.0  0.24574  0.55618  0.29961  1.0000
  C   C918      1.0  0.08565  0.74778  0.27240  1.0000
  H   H733      1.0  0.17722  0.83073  0.27703  1.0000
  C   C919      1.0  0.10645  0.97340  0.42781  1.0000
  C   C920      1.0  0.31019  0.56651  0.24843  1.0000
  C   C921      1.0  0.22089  0.69935  0.25310  1.0000
  H   H734      1.0  0.40321  0.54448  0.35079  1.0000
  C   C922      1.0  0.24151  0.50517  0.25208  1.0000
  C   C923      1.0  0.29150  0.59502  0.30708  1.0000
  C   C924      1.0  0.02183  0.82400  0.39126  1.0000
  H   H735      1.0  0.14323  0.71457  0.25466  1.0000
  C   C925      1.0  0.24797  0.90020  0.37673  1.0000
  H   H736      1.0  0.00690  0.94462  0.49107  1.0000
  C   C926      1.0  0.01644  0.73731  0.25305  1.0000
  S   S137      1.0  0.24850  0.94435  0.25309  1.0000
  C   C927      1.0  0.23304  0.91998  0.45967  1.0000
  H   H737      1.0  0.24640  0.98515  0.42526  1.0000
  C   C928      1.0  0.12034  0.96284  0.41341  1.0000
  C   C929      1.0  0.40884  0.55549  0.42677  1.0000
  C   C930      1.0  0.41298  0.66335  0.40972  1.0000
  C   C931      1.0  0.39859  0.66110  0.39281  1.0000
  C   C932      1.0  0.40008  0.67526  0.37493  1.0000
  C   C933      1.0  0.41601  0.69202  0.37368  1.0000
  C   C934      1.0  0.43049  0.69421  0.39054  1.0000
  C   C935      1.0  0.42907  0.67998  0.40839  1.0000
  H   H738      1.0  0.38604  0.64838  0.39361  1.0000
  H   H739      1.0  0.38878  0.67331  0.36220  1.0000
  H   H740      1.0  0.44278  0.70718  0.38985  1.0000
  H   H741      1.0  0.44021  0.68207  0.42122  1.0000
  H   H742      1.0  0.29232  0.62697  0.32150  1.0000
  H   H743      1.0  0.29909  0.51290  0.26364  1.0000
  C   C936      1.0  0.02801  0.83346  0.37189  1.0000
  S   S138      1.0  0.44291  0.65847  0.48777  1.0000
  H   H744      1.0  0.10069  0.74331  0.26390  1.0000
  C   C937      1.0  0.10473  0.87146  0.46109  1.0000
  C   C938      1.0  0.17367  0.90097  0.41372  1.0000
  C   C939      1.0  0.18267  0.88458  0.40063  1.0000
  C   C940      1.0  0.18965  0.88994  0.38004  1.0000
  C   C941      1.0  0.18761  0.91184  0.37219  1.0000
  C   C942      1.0  0.17872  0.92824  0.38535  1.0000
  C   C943      1.0  0.17184  0.92288  0.40594  1.0000
  H   H745      1.0  0.18418  0.86756  0.40642  1.0000
  H   H746      1.0  0.19648  0.87712  0.37021  1.0000
  H   H747      1.0  0.17701  0.94522  0.37950  1.0000
  H   H748      1.0  0.22534  0.58664  0.24936  1.0000
  C   C944      1.0  0.26108  0.56141  0.28360  1.0000
  C   C945      1.0  0.03699  0.82412  0.40768  1.0000
  H   H749      1.0  0.41957  0.58945  0.42988  1.0000
  C   C946      1.0  0.19114  0.99556  0.43281  1.0000
  C   C947      1.0  0.40823  0.53104  0.36137  1.0000
  C   C948      1.0  0.31433  0.64598  0.26042  1.0000
  C   C949      1.0  0.25037  0.90022  0.41428  1.0000
  C   C950      1.0  0.48088  0.67323  0.37007  1.0000
  C   C951      1.0  0.46521  0.65949  0.25417  1.0000
  C   C952      1.0  0.46374  0.74396  0.32210  1.0000
  C   C953      1.0  0.01742  0.82496  0.30788  1.0000
  C   C954      1.0  0.03200  0.90359  0.47206  1.0000
  C   C955      1.0  0.07740  0.76965  0.27107  1.0000
  C   C956      1.0  0.39981  0.53029  0.38174  1.0000
  H   H750      1.0  0.10143  0.87426  0.47745  1.0000
  H   H751      1.0  0.00690  0.72717  0.28440  1.0000
  H   H752      1.0  0.45470  0.67788  0.30274  1.0000
  C   C957      1.0  0.31208  0.96483  0.45245  1.0000
  H   H753      1.0  0.43107  0.52379  0.44982  1.0000
  C   C958      1.0  0.31765  0.72867  0.24437  1.0000
  C   C959      1.0  0.38633  0.58495  0.44173  1.0000
  H   H754      1.0  0.24909  0.89145  0.36221  1.0000
  C   C960      1.0  0.49934  0.67077  0.27011  1.0000
  H   H755      1.0  0.03029  0.83623  0.31226  1.0000
  C   C961      1.0  0.15687  0.80697  0.26156  1.0000
  H   H756      1.0  0.24161  0.63791  0.25100  1.0000
  C   C962      1.0  0.02193  0.80813  0.29358  1.0000
  C   C963      1.0  0.49965  0.53331  0.44463  1.0000
  S   S139      1.0  0.43364  0.71237  0.24639  1.0000
  H   H757      1.0  0.43546  0.66312  0.27272  1.0000
  H   H758      1.0  0.28779  0.92553  0.42379  1.0000
  C   C964      1.0  0.24563  0.66969  0.26526  1.0000
  C   C965      1.0  0.23283  0.98807  0.26019  1.0000
  C   C966      1.0  0.28031  0.71409  0.24511  1.0000
  C   C967      1.0  0.47874  0.76130  0.31913  1.0000
  C   C968      1.0  0.10861  0.83668  0.31365  1.0000
  H   H759      1.0  0.08972  0.82626  0.26552  1.0000
  S   S140      1.0  0.33847  0.67141  0.28654  1.0000
  C   C969      1.0  0.46437  0.67363  0.28906  1.0000
  C   C970      1.0  0.01619  0.88928  0.48137  1.0000
  C   C971      1.0  0.47570  0.64020  0.35010  1.0000
  H   H760      1.0  0.16668  0.73961  0.27457  1.0000
  H   H761      1.0  0.25042  0.93734  0.48359  1.0000
  C   C972      1.0  0.14210  0.80343  0.24526  1.0000
  H   H762      1.0  0.26500  0.57712  0.25312  1.0000
  C   C973      1.0  0.37163  0.54771  0.43972  1.0000
  H   H763      1.0  0.30232  0.64489  0.27306  1.0000
  H   H764      1.0  0.19405  0.93993  0.44318  1.0000
  C   C974      1.0  0.47061  0.72196  0.31894  1.0000
  C   C975      1.0  0.33372  0.65845  0.26271  1.0000
  H   H765      1.0  0.25684  0.87142  0.39563  1.0000
  H   H766      1.0  0.21562  0.71662  0.25273  1.0000
  C   C976      1.0  0.24989  0.79944  0.25146  1.0000
  H   H767      1.0  0.01625  0.83428  0.35930  1.0000
  C   C977      1.0  0.38589  0.55035  0.49194  1.0000
  C   C978      1.0  0.07292  0.81842  0.31604  1.0000
  H   H768      1.0  0.33682  0.56841  0.28624  1.0000
  H   H769      1.0  0.35803  0.53651  0.44289  1.0000
  C   C979      1.0  0.05841  0.83246  0.40440  1.0000
  C   C980      1.0  0.32482  0.61674  0.31059  1.0000
  H   H770      1.0  0.24692  0.83302  0.26222  1.0000
  C   C981      1.0  0.08724  0.96288  0.43519  1.0000
  H   H771      1.0  0.16684  0.97099  0.44170  1.0000
  C   C982      1.0  0.21356  0.99945  0.42809  1.0000
  H   H772      1.0  0.42433  0.55022  0.41952  1.0000
  C   C983      1.0  0.28895  0.93912  0.43442  1.0000
  H   H773      1.0  0.02837  0.91191  0.45737  1.0000
  C   C984      1.0  0.23559  0.65498  0.25188  1.0000
  H   H774      1.0  0.31117  0.78620  0.25139  1.0000
  H   H775      1.0  0.33286  0.63178  0.31542  1.0000
  C   C985      1.0  0.45335  0.66493  0.27216  1.0000
  C   C986      1.0  0.49012  0.68407  0.35257  1.0000
  C   C987      1.0  0.30256  0.54887  0.26130  1.0000
  C   C988      1.0  0.27205  0.96596  0.45753  1.0000
  S   S141      1.0  0.17007  0.87313  0.25452  1.0000
  C   C989      1.0  0.07453  0.73177  0.28457  1.0000
  H   H776      1.0  0.48625  0.64216  0.31811  1.0000
  H   H777      1.0  0.38815  0.54315  0.38664  1.0000
  H   H778      1.0  0.36423  0.66912  0.24802  1.0000
  C   C990      1.0  0.30386  0.57849  0.29676  1.0000
  C   C991      1.0  0.00785  0.77955  0.42258  1.0000
  C   C992      1.0  0.18426  0.97407  0.43820  1.0000
  C   C993      1.0  0.04932  0.84212  0.36874  1.0000
  C   C994      1.0  0.06458  0.84145  0.38496  1.0000
  C   C995      1.0  0.05543  0.73777  0.29586  1.0000
  H   H779      1.0  0.12149  0.84285  0.28262  1.0000
  H   H780      1.0  0.25112  0.54772  0.31377  1.0000
  H   H781      1.0  0.32841  0.97115  0.45580  1.0000
  H   H782      1.0  0.46551  0.64340  0.38222  1.0000
  H   H783      1.0  0.19831  0.57682  0.27746  1.0000
  C   C996      1.0  0.36905  0.56998  0.44532  1.0000
  H   H784      1.0  0.44492  0.78119  0.27031  1.0000
  H   H785      1.0  0.09238  0.82717  0.34247  1.0000
  C   C997      1.0  0.30998  0.94735  0.43875  1.0000
  H   H786      1.0  0.03281  0.76405  0.30405  1.0000
  H   H787      1.0  0.35053  0.54427  0.49149  1.0000
  H   H788      1.0  0.19538  0.76250  0.25672  1.0000
  H   H789      1.0  0.06415  0.91897  0.47485  1.0000
  H   H790      1.0  0.32469  0.94011  0.43147  1.0000
  C   C998      1.0  0.22319  0.56180  0.29744  1.0000
  H   H791      1.0  0.44676  0.74746  0.32713  1.0000
  S   S142      1.0  0.40494  0.61986  0.48771  1.0000
  C   C999      1.0  0.04602  0.81469  0.25534  1.0000
  C   C1000     1.0  0.20951  0.88999  0.47277  1.0000
  H   H792      1.0  0.05395  0.84952  0.35380  1.0000
  H   H793      1.0  0.25957  0.66375  0.27445  1.0000
  C   C1001     1.0  0.02509  0.88546  0.42029  1.0000
  H   H794      1.0  0.08618  0.78180  0.26141  1.0000
  C   C1002     1.0  0.02340  0.91835  0.39781  1.0000
  C   C1003     1.0  0.04664  0.91816  0.39615  1.0000
  C   C1004     1.0  0.05929  0.90161  0.40662  1.0000
  C   C1005     1.0  0.04831  0.88524  0.41871  1.0000
  P   P34       1.0  0.08935  0.90296  0.40584  1.0000
  C   C1006     1.0  0.09604  0.93075  0.41402  1.0000
  C   C1007     1.0  0.10075  0.88331  0.42487  1.0000
  C   C1008     1.0  0.09647  0.88651  0.44607  1.0000
  H   H795      1.0  0.25754  0.97329  0.46501  1.0000
  C   C1009     1.0  0.09126  0.82762  0.32568  1.0000
  C   C1010     1.0  0.12161  0.84947  0.43400  1.0000
  C   C1011     1.0  0.11310  0.86438  0.41891  1.0000
  C   C1012     1.0  0.08209  0.94164  0.42844  1.0000
  C   C1013     1.0  0.11513  0.94169  0.40645  1.0000
  C   C1014     1.0  0.10032  0.89756  0.37999  1.0000
  C   C1015     1.0  0.12343  0.89568  0.37653  1.0000
  C   C1016     1.0  0.13203  0.89224  0.35655  1.0000
  C   C1017     1.0  0.11769  0.89030  0.33986  1.0000
  C   C1018     1.0  0.09467  0.89150  0.34317  1.0000
  C   C1019     1.0  0.08599  0.89511  0.36313  1.0000
  H   H796      1.0  0.01678  0.87325  0.43026  1.0000
  H   H797      1.0  0.02209  0.77751  0.41227  1.0000
  H   H798      1.0  0.26541  0.79615  0.25948  1.0000
  H   H799      1.0  0.05481  0.93124  0.38714  1.0000
  H   H800      1.0  0.05748  0.87266  0.42751  1.0000
  H   H801      1.0  0.08669  0.90064  0.45107  1.0000
  C   C1020     1.0  0.30197  0.61408  0.31391  1.0000
  P   P35       1.0  0.39476  0.51190  0.42168  1.0000
  H   H802      1.0  0.13181  0.83536  0.42939  1.0000
  H   H803      1.0  0.11650  0.86110  0.40277  1.0000
  H   H804      1.0  0.06742  0.93362  0.43488  1.0000
  H   H805      1.0  0.12627  0.93403  0.39540  1.0000
  H   H806      1.0  0.13486  0.89695  0.38929  1.0000
  H   H807      1.0  0.14991  0.89135  0.35395  1.0000
  H   H808      1.0  0.12450  0.88800  0.32434  1.0000
  H   H809      1.0  0.08359  0.88994  0.33017  1.0000
  H   H810      1.0  0.06813  0.89604  0.36522  1.0000
  H   H811      1.0  0.46773  0.73128  0.27300  1.0000
  C   C1021     1.0  0.39156  0.54027  0.43033  1.0000
  C   C1022     1.0  0.30883  0.52965  0.31968  1.0000
  H   H812      1.0  0.01874  0.75335  0.44385  1.0000
  H   H813      1.0  0.03226  0.81810  0.42311  1.0000
  H   H814      1.0  0.21631  0.97892  0.47913  1.0000
  H   H815      1.0  0.21136  0.55733  0.30965  1.0000
  C   C1023     1.0  0.07162  0.81863  0.29426  1.0000
  C   C1024     1.0  0.16591  0.82815  0.26442  1.0000
  C   C1025     1.0  0.04713  0.83762  0.25058  1.0000
  H   H816      1.0  0.32834  0.74337  0.27272  1.0000
  H   H817      1.0  0.08071  0.71472  0.28518  1.0000
  H   H818      1.0  0.12440  0.84176  0.46680  1.0000
  H   H819      1.0  0.05096  0.84928  0.26251  1.0000
  C   C1026     1.0  0.00441  0.79490  0.28704  1.0000
  C   C1027     1.0  0.26978  0.94839  0.44375  1.0000
  H   H820      1.0  0.01374  0.93143  0.39009  1.0000
  H   H821      1.0  0.42943  0.51499  0.33882  1.0000
  H   H822      1.0  0.25407  0.89132  0.42870  1.0000
  C   C1028     1.0  0.23943  0.82026  0.25316  1.0000
  C   C1029     1.0  0.10772  0.83644  0.29199  1.0000
  C   C1030     1.0  0.05239  0.90747  0.48180  1.0000
  H   H823      1.0  0.00635  0.76484  0.33496  1.0000
  C   C1031     1.0  0.43243  0.78064  0.25836  1.0000
  H   H824      1.0  0.32309  0.51012  0.34494  1.0000
  H   H825      1.0  0.38438  0.60220  0.44615  1.0000
  Fe  Fe72      1.0  0.13823  0.95804  0.48525  1.0000
  C   C1032     1.0  0.25220  0.88893  0.39557  1.0000
  H   H826      1.0  0.38407  0.56818  0.48955  1.0000
  H   H827      1.0  0.11077  0.98956  0.43358  1.0000
  H   H828      1.0  0.12307  0.84336  0.32106  1.0000
  C   C1033     1.0  0.23820  0.69198  0.26615  1.0000
  H   H829      1.0  0.01886  0.78879  0.36305  1.0000
  P   P36       1.0  0.25344  0.71168  0.28103  1.0000
  C   C1034     1.0  0.26312  0.69793  0.30469  1.0000
  C   C1035     1.0  0.27770  0.72005  0.26600  1.0000
  H   H830      1.0  0.19755  0.87712  0.46993  1.0000
  H   H831      1.0  0.06010  0.81055  0.32554  1.0000
  H   H832      1.0  0.21085  0.84062  0.24505  1.0000
  C   C1036     1.0  0.21584  0.57290  0.27939  1.0000
  C   C1037     1.0  0.29517  0.73078  0.27576  1.0000
  C   C1038     1.0  0.25082  0.69920  0.32338  1.0000
  C   C1039     1.0  0.25910  0.68934  0.34171  1.0000
  C   C1040     1.0  0.27970  0.67822  0.34157  1.0000
  C   C1041     1.0  0.29190  0.67669  0.32303  1.0000
  C   C1042     1.0  0.28356  0.68628  0.30465  1.0000
  C   C1043     1.0  0.23630  0.73549  0.28815  1.0000
  C   C1044     1.0  0.24533  0.75692  0.28875  1.0000
  C   C1045     1.0  0.23236  0.77493  0.29558  1.0000
  C   C1046     1.0  0.21034  0.77173  0.30200  1.0000
  C   C1047     1.0  0.20128  0.75047  0.30172  1.0000
  C   C1048     1.0  0.21409  0.73245  0.29461  1.0000
  H   H833      1.0  0.35497  0.60245  0.29800  1.0000
  H   H834      1.0  0.04675  0.72533  0.30523  1.0000
  S   S143      1.0  0.17108  0.93972  0.48283  1.0000
  H   H835      1.0  0.08107  0.84820  0.38258  1.0000
  H   H836      1.0  0.03354  0.73169  0.25457  1.0000
  C   C1049     1.0  0.31492  0.73530  0.26490  1.0000
  C   C1050     1.0  0.41099  0.78911  0.26210  1.0000
  H   H837      1.0  0.29476  0.98764  0.47252  1.0000
  C   C1051     1.0  0.24420  0.97353  0.24690  1.0000
  H   H838      1.0  0.29384  0.73505  0.29200  1.0000
  H   H839      1.0  0.23501  0.70795  0.32405  1.0000
  H   H840      1.0  0.24968  0.69062  0.35613  1.0000
  H   H841      1.0  0.28634  0.67098  0.35584  1.0000
  H   H842      1.0  0.30808  0.66841  0.32288  1.0000
  H   H843      1.0  0.29333  0.68488  0.29047  1.0000
  H   H844      1.0  0.26240  0.75997  0.28420  1.0000
  H   H845      1.0  0.23944  0.79143  0.29613  1.0000
  H   H846      1.0  0.20042  0.78575  0.30735  1.0000
  H   H847      1.0  0.18432  0.74799  0.30712  1.0000
  H   H848      1.0  0.20682  0.71605  0.29461  1.0000
  H   H849      1.0  0.45866  0.70890  0.32174  1.0000
  C   C1052     1.0  0.39471  0.78787  0.24688  1.0000
  C   C1053     1.0  0.24204  0.92278  0.37658  1.0000
  C   C1054     1.0  0.23982  0.93403  0.39525  1.0000
  C   C1055     1.0  0.24375  0.92278  0.41428  1.0000
  H   H850      1.0  0.35375  0.57555  0.45278  1.0000
  P   P37       1.0  0.24253  0.93778  0.43827  1.0000
  H   H851      1.0  0.49658  0.53665  0.42830  1.0000
  C   C1056     1.0  0.11750  0.85306  0.45508  1.0000
  H   H852      1.0  0.31939  0.54371  0.32221  1.0000
  H   H853      1.0  0.46973  0.62335  0.34911  1.0000
  C   C1057     1.0  0.49179  0.67319  0.33353  1.0000
  C   C1058     1.0  0.40623  0.57770  0.43251  1.0000
  C   C1059     1.0  0.22246  0.96038  0.43546  1.0000
  H   H854      1.0  0.26739  0.51197  0.28874  1.0000
  H   H855      1.0  0.07672  0.97092  0.44668  1.0000
  H   H856      1.0  0.21252  0.89958  0.44060  1.0000
  C   C1060     1.0  0.47341  0.65142  0.36879  1.0000
  C   C1061     1.0  0.22918  0.98190  0.42927  1.0000
  C   C1062     1.0  0.08945  0.82724  0.28231  1.0000
  H   H857      1.0  0.40677  0.79633  0.27694  1.0000
  H   H858      1.0  0.23862  0.93143  0.36194  1.0000
  H   H859      1.0  0.23492  0.95144  0.39469  1.0000
  H   H860      1.0  0.27375  0.59348  0.30959  1.0000
  H   H861      1.0  0.22602  0.98166  0.27476  1.0000
  C   C1063     1.0  0.21811  0.90277  0.45614  1.0000
  H   H862      1.0  0.13538  0.97090  0.40787  1.0000
  H   H863      1.0  0.07007  0.83237  0.41713  1.0000
  P   P38       1.0  0.04919  0.80463  0.28179  1.0000
  H   H864      1.0  0.22922  0.51484  0.26055  1.0000
  C   C1064     1.0  0.23107  0.57861  0.26363  1.0000
  H   H865      1.0  0.46786  0.54672  0.45481  1.0000
  C   C1065     1.0  0.33731  0.60017  0.30074  1.0000
  C   C1066     1.0  0.16944  0.73829  0.25804  1.0000
  C   C1067     1.0  0.05819  0.77582  0.28227  1.0000
  C   C1068     1.0  0.23924  0.92409  0.48018  1.0000
  C   C1069     1.0  0.48352  0.53899  0.45948  1.0000
  C   C1070     1.0  0.48498  0.65097  0.33255  1.0000
  Fe  Fe73      1.0  0.43248  0.59435  0.48959  1.0000
  C   C1071     1.0  0.30518  0.52691  0.25449  1.0000
  C   C1072     1.0  0.29312  0.97413  0.46185  1.0000
  C   C1073     1.0  0.34922  0.65966  0.24635  1.0000
  H   H866      1.0  0.00725  0.78246  0.27534  1.0000
  C   C1074     1.0  0.48747  0.53474  0.48056  1.0000
  S   S144      1.0  0.13719  0.99389  0.47288  1.0000
  H   H867      1.0  0.30807  0.58365  0.25301  1.0000
  C   C1075     1.0  0.31100  0.51061  0.33260  1.0000
  H   H868      1.0  0.37840  0.79483  0.25017  1.0000
  C   C1076     1.0  0.49274  0.71696  0.31308  1.0000
  H   H869      1.0  0.47328  0.77835  0.32145  1.0000
  C   C1077     1.0  0.16006  0.84598  0.25106  1.0000
  C   C1078     1.0  0.15601  0.72429  0.24680  1.0000
  C   C1079     1.0  0.00594  0.76573  0.44036  1.0000
  C   C1080     1.0  0.18547  0.75142  0.24779  1.0000
  C   C1081     1.0  0.48751  0.67674  0.28823  1.0000
  Fe  Fe74      1.0  0.46805  0.63005  0.49022  1.0000
  C   C1082     1.0  0.01265  0.90208  0.40998  1.0000
  H   H870      1.0  0.49528  0.70118  0.35380  1.0000
  H   H871      1.0  0.47883  0.68199  0.38450  1.0000
  S   S145      1.0  0.43163  0.55655  0.49118  1.0000
  C   C1083     1.0  0.27960  0.51179  0.30096  1.0000
  C   C1084     1.0  0.20915  0.98574  0.49317  1.0000
  H   H872      1.0  0.47452  0.53871  0.49175  1.0000
  H   H873      1.0  0.50181  0.59468  0.47361  1.0000
  P   P39       1.0  0.50144  0.68809  0.31038  1.0000
  C   C1085     1.0  0.50081  0.75656  0.31350  1.0000
  C   C1086     1.0  0.42301  0.51444  0.35464  1.0000
  C   C1087     1.0  0.42961  0.50587  0.44991  1.0000
  C   C1088     1.0  0.36694  0.53679  0.49301  1.0000
  C   C1089     1.0  0.21561  0.89434  0.49309  1.0000
  Fe  Fe75      1.0  0.16219  0.92355  0.51392  1.0000
  S   S146      1.0  0.19043  0.92004  0.53783  1.0000
  H   H874      1.0  0.40298  0.75106  0.62404  1.0000
  C   C1090     1.0  0.49510  0.62521  0.58452  1.0000
  S   S147      1.0  0.13065  0.94401  0.51730  1.0000
  Fe  Fe76      1.0  0.22311  0.86611  0.70254  1.0000
  S   S148      1.0  0.25758  0.87881  0.70763  1.0000
  S   S149      1.0  0.21279  0.83834  0.72547  1.0000
  Fe  Fe77      1.0  0.21916  0.89223  0.66087  1.0000
  S   S150      1.0  0.25371  0.90599  0.66356  1.0000
  S   S151      1.0  0.19234  0.90097  0.63657  1.0000
  Fe  Fe78      1.0  0.26409  0.87103  0.67427  1.0000
  S   S152      1.0  0.29698  0.85449  0.66348  1.0000
  Fe  Fe79      1.0  0.24433  0.91255  0.69710  1.0000
  S   S153      1.0  0.25641  0.94382  0.71373  1.0000
  S   S154      1.0  0.23015  0.85699  0.66934  1.0000
  S   S155      1.0  0.20935  0.90026  0.69409  1.0000
  Fe  Fe80      1.0  0.42496  0.71897  0.69833  1.0000
  S   S156      1.0  0.42161  0.68877  0.67856  1.0000
  S   S157      1.0  0.45258  0.71657  0.72328  1.0000
  Fe  Fe81      1.0  0.38028  0.73989  0.68101  1.0000
  S   S158      1.0  0.37544  0.71088  0.65997  1.0000
  S   S159      1.0  0.34939  0.76288  0.68654  1.0000
  Fe  Fe82      1.0  0.38525  0.68943  0.68752  1.0000
  S   S160      1.0  0.36657  0.65747  0.69495  1.0000
  Fe  Fe83      1.0  0.41206  0.71251  0.65247  1.0000
  S   S161      1.0  0.42861  0.70904  0.62008  1.0000
  S   S162      1.0  0.38883  0.71785  0.70893  1.0000
  S   S163      1.0  0.41685  0.74334  0.67178  1.0000
  Fe  Fe84      1.0  0.42349  0.63863  0.51202  1.0000
  H   H875      1.0  0.05160  0.82222  0.71589  1.0000
  S   S164      1.0  0.40478  0.65031  0.54147  1.0000
  C   C1091     1.0  0.36976  0.76235  0.63181  1.0000
  H   H876      1.0  0.13821  0.98924  0.70088  1.0000
  C   C1092     1.0  0.45732  0.50801  0.55158  1.0000
  S   S165      1.0  0.44943  0.61147  0.51535  1.0000
  C   C1093     1.0  0.12256  0.92174  0.67317  1.0000
  H   H877      1.0  0.00886  0.86805  0.50795  1.0000
  H   H878      1.0  0.17674  0.93548  0.66663  1.0000
  C   C1094     1.0  0.39716  0.81830  0.69276  1.0000
  C   C1095     1.0  0.47749  0.51646  0.54391  1.0000
  H   H879      1.0  0.00772  0.77194  0.66889  1.0000
  C   C1096     1.0  0.42250  0.69171  0.59872  1.0000
  C   C1097     1.0  0.40495  0.67670  0.59947  1.0000
  C   C1098     1.0  0.40001  0.66404  0.58196  1.0000
  C   C1099     1.0  0.41283  0.66577  0.56351  1.0000
  C   C1100     1.0  0.43074  0.68043  0.56288  1.0000
  C   C1101     1.0  0.43545  0.69334  0.58033  1.0000
  H   H880      1.0  0.39525  0.67483  0.61364  1.0000
  H   H881      1.0  0.38613  0.65280  0.58271  1.0000
  H   H882      1.0  0.44062  0.68227  0.54879  1.0000
  H   H883      1.0  0.44912  0.70486  0.57948  1.0000
  C   C1102     1.0  0.31109  0.82888  0.67036  1.0000
  C   C1103     1.0  0.33281  0.82515  0.66257  1.0000
  C   C1104     1.0  0.34476  0.80526  0.66736  1.0000
  C   C1105     1.0  0.33518  0.78860  0.68006  1.0000
  C   C1106     1.0  0.31349  0.79240  0.68805  1.0000
  C   C1107     1.0  0.30149  0.81230  0.68317  1.0000
  H   H884      1.0  0.34052  0.83782  0.65275  1.0000
  H   H885      1.0  0.36151  0.80306  0.66141  1.0000
  H   H886      1.0  0.30584  0.77982  0.69801  1.0000
  H   H887      1.0  0.28477  0.81475  0.68919  1.0000
  H   H888      1.0  0.14213  0.94852  0.71440  1.0000
  H   H889      1.0  0.25745  0.57445  0.72287  1.0000
  C   C1108     1.0  0.04139  0.88272  0.51020  1.0000
  H   H890      1.0  0.47389  0.65672  0.53507  1.0000
  C   C1109     1.0  0.19286  0.97412  0.65316  1.0000
  C   C1110     1.0  0.33876  0.63574  0.72289  1.0000
  C   C1111     1.0  0.34715  0.65642  0.71596  1.0000
  H   H891      1.0  0.02207  0.79565  0.72601  1.0000
  C   C1112     1.0  0.47981  0.72355  0.73223  1.0000
  H   H892      1.0  0.48298  0.70197  0.68429  1.0000
  C   C1113     1.0  0.15284  0.94319  0.72702  1.0000
  C   C1114     1.0  0.26719  0.50617  0.73437  1.0000
  H   H893      1.0  0.34471  0.62065  0.71570  1.0000
  C   C1115     1.0  0.18653  0.83415  0.73780  1.0000
  C   C1116     1.0  0.24450  0.96711  0.72716  1.0000
  H   H894      1.0  0.38574  0.60242  0.55137  1.0000
  C   C1117     1.0  0.02089  0.87903  0.50059  1.0000
  H   H895      1.0  0.33321  0.68511  0.65199  1.0000
  H   H896      1.0  0.39697  0.69274  0.52004  1.0000
  H   H897      1.0  0.49364  0.57722  0.57509  1.0000
  H   H898      1.0  0.30982  0.92695  0.73660  1.0000
  C   C1118     1.0  0.36916  0.51355  0.49567  1.0000
  C   C1119     1.0  0.27956  0.82533  0.73405  1.0000
  H   H899      1.0  0.11818  0.97820  0.66936  1.0000
  C   C1120     1.0  0.24128  0.67116  0.73892  1.0000
  C   C1121     1.0  0.02074  0.80539  0.71160  1.0000
  H   H900      1.0  0.45462  0.57786  0.63191  1.0000
  C   C1122     1.0  0.19060  0.91399  0.56520  1.0000
  C   C1123     1.0  0.17107  0.91029  0.57679  1.0000
  C   C1124     1.0  0.17202  0.90622  0.59851  1.0000
  C   C1125     1.0  0.19248  0.90534  0.60897  1.0000
  C   C1126     1.0  0.21206  0.90872  0.59733  1.0000
  C   C1127     1.0  0.21108  0.91315  0.57565  1.0000
  H   H901      1.0  0.15521  0.91064  0.56902  1.0000
  H   H902      1.0  0.15675  0.90353  0.60727  1.0000
  H   H903      1.0  0.22794  0.90808  0.60506  1.0000
  H   H904      1.0  0.22634  0.91583  0.56689  1.0000
  H   H905      1.0  0.16657  0.91530  0.71061  1.0000
  C   C1128     1.0  0.31073  0.67888  0.67763  1.0000
  H   H906      1.0  0.25545  0.52259  0.67636  1.0000
  H   H907      1.0  0.36898  0.68833  0.54780  1.0000
  H   H908      1.0  0.31473  0.66121  0.67862  1.0000
  H   H909      1.0  0.10988  0.94983  0.57595  1.0000
  H   H910      1.0  0.37500  0.77142  0.64515  1.0000
  H   H911      1.0  0.48898  0.56376  0.51336  1.0000
  C   C1129     1.0  0.20211  0.75149  0.73413  1.0000
  H   H912      1.0  0.29093  0.59750  0.72302  1.0000
  H   H913      1.0  0.02932  0.73030  0.73817  1.0000
  C   C1130     1.0  0.15895  0.93804  0.66846  1.0000
  C   C1131     1.0  0.27993  0.74559  0.55229  1.0000
  H   H914      1.0  0.41021  0.81066  0.68343  1.0000
  H   H915      1.0  0.33505  0.77054  0.63615  1.0000
  C   C1132     1.0  0.32127  0.69239  0.66267  1.0000
  C   C1133     1.0  0.29952  0.75251  0.54228  1.0000
  C   C1134     1.0  0.31734  0.71538  0.66224  1.0000
  H   H916      1.0  0.13521  0.60067  0.68628  1.0000
  H   H917      1.0  0.17639  0.97371  0.58023  1.0000
  C   C1135     1.0  0.40714  0.57478  0.54329  1.0000
  H   H918      1.0  0.28892  0.67758  0.70403  1.0000
  C   C1136     1.0  0.21068  0.96961  0.66664  1.0000
  C   C1137     1.0  0.25643  0.76681  0.71485  1.0000
  C   C1138     1.0  0.32292  0.63443  0.73925  1.0000
  C   C1139     1.0  0.29832  0.83789  0.72900  1.0000
  H   H919      1.0  0.48747  0.74738  0.70776  1.0000
  C   C1140     1.0  0.29605  0.68830  0.69209  1.0000
  P   P40       1.0  0.45539  0.60227  0.59133  1.0000
  C   C1141     1.0  0.43991  0.61649  0.61148  1.0000
  C   C1142     1.0  0.44678  0.63724  0.61842  1.0000
  C   C1143     1.0  0.43491  0.64788  0.63427  1.0000
  C   C1144     1.0  0.41598  0.63806  0.64316  1.0000
  C   C1145     1.0  0.40892  0.61752  0.63622  1.0000
  C   C1146     1.0  0.42082  0.60675  0.62045  1.0000
  C   C1147     1.0  0.43632  0.59091  0.57296  1.0000
  C   C1148     1.0  0.14344  0.96071  0.58036  1.0000
  C   C1149     1.0  0.42757  0.56402  0.54673  1.0000
  C   C1150     1.0  0.44216  0.57206  0.56143  1.0000
  C   C1151     1.0  0.05734  0.89674  0.50078  1.0000
  H   H920      1.0  0.09487  0.94488  0.67439  1.0000
  H   H921      1.0  0.46111  0.64545  0.61156  1.0000
  H   H922      1.0  0.44012  0.66404  0.63936  1.0000
  H   H923      1.0  0.40669  0.64646  0.65533  1.0000
  H   H924      1.0  0.39419  0.61001  0.64312  1.0000
  H   H925      1.0  0.41514  0.59082  0.61526  1.0000
  H   H926      1.0  0.23049  0.80319  0.68136  1.0000
  H   H927      1.0  0.43225  0.54979  0.53752  1.0000
  H   H928      1.0  0.45803  0.56371  0.56334  1.0000
  C   C1152     1.0  0.23056  0.91129  0.49678  1.0000
  C   C1153     1.0  0.21536  0.96019  0.62447  1.0000
  C   C1154     1.0  0.29114  0.72981  0.73309  1.0000
  C   C1155     1.0  0.46803  0.57120  0.62244  1.0000
  C   C1156     1.0  0.47228  0.57980  0.60229  1.0000
  H   H929      1.0  0.40481  0.85176  0.68255  1.0000
  C   C1157     1.0  0.01761  0.83011  0.67423  1.0000
  H   H930      1.0  0.24445  0.95749  0.66949  1.0000
  C   C1158     1.0  0.36301  0.83784  0.71675  1.0000
  H   H931      1.0  0.23490  0.91480  0.51265  1.0000
  P   P41       1.0  0.27395  0.72380  0.71118  1.0000
  H   H932      1.0  0.11231  0.90710  0.67499  1.0000
  H   H933      1.0  0.19102  0.90278  0.73911  1.0000
  C   C1159     1.0  0.39406  0.84141  0.69225  1.0000
  H   H934      1.0  0.24859  0.94902  0.63206  1.0000
  H   H935      1.0  0.30312  0.92982  0.69884  1.0000
  H   H936      1.0  0.17080  0.75107  0.71815  1.0000
  H   H937      1.0  0.18702  0.61785  0.73181  1.0000
  P   P42       1.0  0.21191  0.58329  0.70940  1.0000
  C   C1160     1.0  0.21756  0.55478  0.70240  1.0000
  C   C1161     1.0  0.23656  0.60009  0.70859  1.0000
  C   C1162     1.0  0.25657  0.59134  0.71655  1.0000
  C   C1163     1.0  0.27559  0.60441  0.71671  1.0000
  H   H938      1.0  0.16302  0.58750  0.71174  1.0000
  C   C1164     1.0  0.31855  0.89802  0.69255  1.0000
  C   C1165     1.0  0.27473  0.62641  0.70912  1.0000
  C   C1166     1.0  0.20226  0.53813  0.70797  1.0000
  H   H939      1.0  0.30091  0.74286  0.67679  1.0000
  C   C1167     1.0  0.47342  0.62160  0.57756  1.0000
  C   C1168     1.0  0.24053  0.52703  0.68504  1.0000
  C   C1169     1.0  0.23651  0.54915  0.69051  1.0000
  H   H940      1.0  0.29868  0.76373  0.52884  1.0000
  H   H941      1.0  0.21185  0.75289  0.71993  1.0000
  H   H942      1.0  0.48565  0.52920  0.55246  1.0000
  H   H943      1.0  0.22634  0.72011  0.70093  1.0000
  C   C1170     1.0  0.19523  0.96893  0.63208  1.0000
  C   C1171     1.0  0.36616  0.81461  0.71702  1.0000
  C   C1172     1.0  0.31541  0.91356  0.72674  1.0000
  H   H944      1.0  0.49145  0.66659  0.70325  1.0000
  C   C1173     1.0  0.17894  0.75057  0.73307  1.0000
  H   H945      1.0  0.04496  0.87454  0.52498  1.0000
  C   C1174     1.0  0.21954  0.67397  0.73183  1.0000
  C   C1175     1.0  0.49005  0.57080  0.59063  1.0000
  C   C1176     1.0  0.31885  0.83278  0.73825  1.0000
  C   C1177     1.0  0.30279  0.72488  0.67675  1.0000
  C   C1178     1.0  0.32889  0.87893  0.70106  1.0000
  H   H946      1.0  0.14712  0.61316  0.65084  1.0000
  H   H947      1.0  0.18735  0.54212  0.71684  1.0000
  C   C1179     1.0  0.15278  0.99937  0.70215  1.0000
  C   C1180     1.0  0.17052  0.85121  0.73935  1.0000
  C   C1181     1.0  0.25447  0.75138  0.68056  1.0000
  H   H948      1.0  0.24828  0.56169  0.68550  1.0000
  H   H949      1.0  0.28948  0.63652  0.70942  1.0000
  C   C1182     1.0  0.14019  0.99282  0.62821  1.0000
  H   H950      1.0  0.26392  0.75148  0.54663  1.0000
  C   C1183     1.0  0.12606  0.96186  0.67005  1.0000
  C   C1184     1.0  0.25258  0.70425  0.71910  1.0000
  H   H951      1.0  0.41414  0.72935  0.51270  1.0000
  C   C1185     1.0  0.16670  0.92450  0.72483  1.0000
  H   H952      1.0  0.25754  0.73794  0.66994  1.0000
  C   C1186     1.0  0.31170  0.91528  0.70538  1.0000
  C   C1187     1.0  0.29174  0.71137  0.69163  1.0000
  C   C1188     1.0  0.25881  0.98283  0.73559  1.0000
  C   C1189     1.0  0.13294  0.99554  0.55240  1.0000
  C   C1190     1.0  0.38554  0.75080  0.61998  1.0000
  C   C1191     1.0  0.34724  0.76171  0.62675  1.0000
  C   C1192     1.0  0.34047  0.74938  0.60986  1.0000
  C   C1193     1.0  0.35629  0.73769  0.59791  1.0000
  C   C1194     1.0  0.37883  0.73830  0.60326  1.0000
  P   P43       1.0  0.34798  0.72060  0.57678  1.0000
  C   C1195     1.0  0.32144  0.73041  0.56698  1.0000
  C   C1196     1.0  0.36893  0.72309  0.55636  1.0000
  C   C1197     1.0  0.37566  0.70469  0.54467  1.0000
  C   C1198     1.0  0.49885  0.54494  0.61892  1.0000
  H   H953      1.0  0.40263  0.76209  0.53328  1.0000
  C   C1199     1.0  0.39497  0.74611  0.53636  1.0000
  C   C1200     1.0  0.37875  0.74385  0.55204  1.0000
  C   C1201     1.0  0.30165  0.72353  0.57695  1.0000
  H   H954      1.0  0.18718  0.61218  0.64088  1.0000
  H   H955      1.0  0.01695  0.83957  0.65972  1.0000
  P   P44       1.0  0.16628  0.98381  0.66320  1.0000
  C   C1202     1.0  0.32021  0.74498  0.54958  1.0000
  C   C1203     1.0  0.34463  0.69213  0.58600  1.0000
  C   C1204     1.0  0.35083  0.68549  0.60622  1.0000
  C   C1205     1.0  0.34805  0.66343  0.61321  1.0000
  C   C1206     1.0  0.33881  0.64792  0.60017  1.0000
  C   C1207     1.0  0.33221  0.65448  0.58017  1.0000
  C   C1208     1.0  0.33495  0.67653  0.57315  1.0000
  H   H956      1.0  0.32632  0.72598  0.65126  1.0000
  H   H957      1.0  0.32295  0.74895  0.60635  1.0000
  H   H958      1.0  0.39128  0.72894  0.59464  1.0000
  H   H959      1.0  0.20898  0.97208  0.68320  1.0000
  C   C1209     1.0  0.37720  0.85118  0.70433  1.0000
  H   H960      1.0  0.39609  0.56883  0.53156  1.0000
  C   C1210     1.0  0.31343  0.73590  0.72992  1.0000
  H   H961      1.0  0.37393  0.75830  0.56087  1.0000
  H   H962      1.0  0.30218  0.71240  0.59047  1.0000
  H   H963      1.0  0.11931  0.99974  0.60176  1.0000
  C   C1211     1.0  0.40146  0.72772  0.52476  1.0000
  H   H964      1.0  0.42556  0.51015  0.49884  1.0000
  H   H965      1.0  0.33510  0.75058  0.54154  1.0000
  H   H966      1.0  0.35833  0.69710  0.61652  1.0000
  H   H967      1.0  0.35351  0.65826  0.62862  1.0000
  H   H968      1.0  0.33696  0.63077  0.60551  1.0000
  H   H969      1.0  0.32520  0.64241  0.56999  1.0000
  H   H970      1.0  0.32978  0.68135  0.55758  1.0000
  C   C1212     1.0  0.23084  0.96106  0.65894  1.0000
  H   H971      1.0  0.35546  0.80376  0.72616  1.0000
  C   C1213     1.0  0.14929  0.95953  0.66792  1.0000
  H   H972      1.0  0.18145  0.97101  0.62157  1.0000
  C   C1214     1.0  0.47983  0.64797  0.54892  1.0000
  C   C1215     1.0  0.28100  0.73111  0.56962  1.0000
  C   C1216     1.0  0.23076  0.70669  0.71169  1.0000
  C   C1217     1.0  0.41574  0.60161  0.56931  1.0000
  C   C1218     1.0  0.46565  0.63374  0.56018  1.0000
  C   C1219     1.0  0.21311  0.98943  0.74005  1.0000
  H   H973      1.0  0.31519  0.89905  0.67603  1.0000
  C   C1220     1.0  0.39174  0.70708  0.52887  1.0000
  C   C1221     1.0  0.38331  0.80495  0.70523  1.0000
  C   C1222     1.0  0.03741  0.82037  0.70588  1.0000
  C   C1223     1.0  0.19411  0.98011  0.52799  1.0000
  S   S166      1.0  0.08295  0.90052  0.51350  1.0000
  C   C1224     1.0  0.18202  0.60720  0.65650  1.0000
  C   C1225     1.0  0.15968  0.97612  0.57440  1.0000
  Fe  Fe85      1.0  0.11437  0.91637  0.50010  1.0000
  C   C1226     1.0  0.12213  0.96239  0.57203  1.0000
  C   C1227     1.0  0.15274  0.60069  0.68206  1.0000
  C   C1228     1.0  0.15945  0.60768  0.66208  1.0000
  C   C1229     1.0  0.24517  0.78600  0.70767  1.0000
  C   C1230     1.0  0.32571  0.89444  0.73533  1.0000
  C   C1231     1.0  0.33255  0.87693  0.72252  1.0000
  H   H974      1.0  0.32068  0.73695  0.71445  1.0000
  H   H975      1.0  0.21693  0.95574  0.60829  1.0000
  H   H976      1.0  0.29666  0.85150  0.71777  1.0000
  H   H977      1.0  0.26110  0.76547  0.73097  1.0000
  H   H978      1.0  0.27663  0.98047  0.73389  1.0000
  C   C1232     1.0  0.24372  0.77086  0.67330  1.0000
  H   H979      1.0  0.21531  0.59925  0.66631  1.0000
  H   H980      1.0  0.34556  0.69185  0.72018  1.0000
  H   H981      1.0  0.25401  0.65262  0.69603  1.0000
  C   C1233     1.0  0.01344  0.73903  0.73769  1.0000
  C   C1234     1.0  0.40125  0.59358  0.55455  1.0000
  H   H982      1.0  0.04895  0.84414  0.68270  1.0000
  C   C1235     1.0  0.20453  0.97168  0.51025  1.0000
  C   C1236     1.0  0.26108  0.74930  0.70139  1.0000
  C   C1237     1.0  0.11688  0.97981  0.55806  1.0000
  C   C1238     1.0  0.19137  0.59367  0.69127  1.0000
  C   C1239     1.0  0.14560  0.91928  0.67089  1.0000
  H   H983      1.0  0.15325  0.90277  0.67067  1.0000
  H   H984      1.0  0.19029  0.96874  0.54084  1.0000
  C   C1240     1.0  0.49338  0.73913  0.72181  1.0000
  H   H985      1.0  0.20844  0.95403  0.50959  1.0000
  C   C1241     1.0  0.39042  0.50401  0.49772  1.0000
  C   C1242     1.0  0.23318  0.95633  0.63787  1.0000
  H   H986      1.0  0.23891  0.77257  0.65716  1.0000
  C   C1243     1.0  0.22547  0.51050  0.69102  1.0000
  H   H987      1.0  0.38559  0.78699  0.70548  1.0000
  C   C1244     1.0  0.25475  0.63542  0.70153  1.0000
  C   C1245     1.0  0.23901  0.78814  0.68687  1.0000
  H   H988      1.0  0.41112  0.61664  0.57734  1.0000
  H   H989      1.0  0.24092  0.79921  0.71820  1.0000
  H   H990      1.0  0.19735  0.69398  0.71284  1.0000
  H   H991      1.0  0.17355  0.86726  0.73198  1.0000
  C   C1246     1.0  0.20631  0.51606  0.70241  1.0000
  H   H992      1.0  0.19532  0.99156  0.74201  1.0000
  C   C1247     1.0  0.16861  0.59345  0.69655  1.0000
  C   C1248     1.0  0.19792  0.60001  0.67097  1.0000
  C   C1249     1.0  0.23563  0.62242  0.70151  1.0000
  H   H993      1.0  0.44866  0.63217  0.55518  1.0000
  H   H994      1.0  0.20838  0.88490  0.50605  1.0000
  C   C1250     1.0  0.11279  0.94303  0.67282  1.0000
  H   H995      1.0  0.33327  0.86538  0.69093  1.0000
  H   H996      1.0  0.22016  0.62992  0.69624  1.0000
  H   H997      1.0  0.14758  0.94703  0.59098  1.0000
  C   C1251     1.0  0.20190  0.58494  0.73588  1.0000
  H   H998      1.0  0.10059  0.98066  0.55101  1.0000
  H   H999      1.0  0.47793  0.54732  0.64627  1.0000
  H   H1000     1.0  0.49692  0.59960  0.52879  1.0000
  H   H1001     1.0  0.10803  0.99414  0.50943  1.0000
  H   H1002     1.0  0.26580  0.72577  0.57739  1.0000
  H   H1003     1.0  0.13896  0.97492  0.62687  1.0000
  C   C1252     1.0  0.03586  0.83271  0.68720  1.0000
  C   C1253     1.0  0.21426  0.69176  0.71825  1.0000
  P   P45       1.0  0.34246  0.85067  0.73365  1.0000
  C   C1254     1.0  0.33940  0.67581  0.72544  1.0000
  H   H1004     1.0  0.21016  0.95857  0.72353  1.0000
  C   C1255     1.0  0.22150  0.97051  0.72962  1.0000
  H   H1005     1.0  0.27434  0.68404  0.73869  1.0000
  H   H1006     1.0  0.50115  0.61682  0.59847  1.0000
  H   H1007     1.0  0.37542  0.86915  0.70409  1.0000
  H   H1008     1.0  0.44998  0.51437  0.56575  1.0000
  C   C1256     1.0  0.50017  0.69711  0.68718  1.0000
  C   C1257     1.0  0.32334  0.67451  0.74157  1.0000
  H   H1009     1.0  0.00347  0.73220  0.66242  1.0000
  S   S167      1.0  0.14565  0.89515  0.49831  1.0000
  H   H1010     1.0  0.19490  0.50306  0.70727  1.0000
  H   H1011     1.0  0.26375  0.82967  0.72695  1.0000
  C   C1258     1.0  0.48128  0.55384  0.63069  1.0000
  C   C1259     1.0  0.40925  0.51761  0.49698  1.0000
  C   C1260     1.0  0.15449  0.99388  0.56053  1.0000
  C   C1261     1.0  0.25765  0.68636  0.73280  1.0000
  C   C1262     1.0  0.16960  0.99925  0.68675  1.0000
  C   C1263     1.0  0.48671  0.50870  0.52522  1.0000
  H   H1012     1.0  0.28326  0.51265  0.72973  1.0000
  C   C1264     1.0  0.18052  0.91740  0.74108  1.0000
  H   H1013     1.0  0.20680  0.66233  0.73685  1.0000
  C   C1265     1.0  0.19030  0.60402  0.74252  1.0000
  C   C1266     1.0  0.40714  0.54071  0.49364  1.0000
  C   C1267     1.0  0.00250  0.80274  0.69870  1.0000
  C   C1268     1.0  0.50165  0.65080  0.55540  1.0000
  C   C1269     1.0  0.15272  0.00189  0.64412  1.0000
  C   C1270     1.0  0.23100  0.60417  0.86339  1.0000
  Fe  Fe86      1.0  0.06743  0.83186  0.97377  1.0000
  P   P46       1.0  0.22969  0.53678  0.87364  1.0000
  S   S168      1.0  0.08649  0.82602  0.94283  1.0000
  C   C1271     1.0  0.19268  0.59313  0.86017  1.0000
  H   H1014     1.0  0.31682  0.61842  0.74466  1.0000
  C   C1272     1.0  0.20869  0.60977  0.85996  1.0000
  S   S169      1.0  0.04338  0.86099  0.97531  1.0000
  S   S170      1.0  0.26317  0.54453  0.75736  1.0000
  H   H1015     1.0  0.41414  0.56983  0.93463  1.0000
  Fe  Fe87      1.0  0.33862  0.56940  0.96858  1.0000
  H   H1016     1.0  0.10160  0.76534  0.94116  1.0000
  S   S171      1.0  0.31638  0.58634  0.94375  1.0000
  H   H1017     1.0  0.14722  0.74346  0.86076  1.0000
  C   C1273     1.0  0.32691  0.74009  0.74685  1.0000
  S   S172      1.0  0.36574  0.54352  0.96469  1.0000
  Fe  Fe88      1.0  0.27555  0.59073  0.82095  1.0000
  S   S173      1.0  0.24280  0.57685  0.81065  1.0000
  S   S174      1.0  0.29692  0.57408  0.84686  1.0000
  Fe  Fe89      1.0  0.27783  0.62223  0.78204  1.0000
  S   S175      1.0  0.24592  0.60979  0.76901  1.0000
  S   S176      1.0  0.29405  0.65337  0.76819  1.0000
  Fe  Fe90      1.0  0.23284  0.61270  0.80186  1.0000
  S   S177      1.0  0.19945  0.62942  0.81165  1.0000
  Fe  Fe91      1.0  0.25832  0.57505  0.77852  1.0000
  H   H1018     1.0  0.21021  0.98937  0.83650  1.0000
  S   S178      1.0  0.26444  0.62629  0.81464  1.0000
  S   S179      1.0  0.29133  0.58789  0.78910  1.0000
  Fe  Fe92      1.0  0.10790  0.78984  0.78759  1.0000
  S   S180      1.0  0.09871  0.76221  0.76664  1.0000
  H   H1019     1.0  0.02626  0.90316  0.98493  1.0000
  Fe  Fe93      1.0  0.08764  0.76639  0.82657  1.0000
  S   S181      1.0  0.07736  0.73676  0.80778  1.0000
  S   S182      1.0  0.07688  0.76694  0.86135  1.0000
  Fe  Fe94      1.0  0.11159  0.73901  0.79250  1.0000
  S   S183      1.0  0.13693  0.71196  0.78151  1.0000
  Fe  Fe95      1.0  0.06524  0.76174  0.78317  1.0000
  S   S184      1.0  0.02988  0.76629  0.76890  1.0000
  S   S185      1.0  0.12243  0.76717  0.81257  1.0000
  S   S186      1.0  0.07392  0.79091  0.80289  1.0000
  H   H1020     1.0  0.23044  0.75209  0.75411  1.0000
  C   C1274     1.0  0.22114  0.56536  0.86887  1.0000
  H   H1021     1.0  0.38284  0.86487  0.81173  1.0000
  C   C1275     1.0  0.20729  0.52069  0.88495  1.0000
  C   C1276     1.0  0.48072  0.53612  0.94553  1.0000
  C   C1277     1.0  0.43170  0.60889  0.98595  1.0000
  H   H1022     1.0  0.25462  0.57782  0.86965  1.0000
  C   C1278     1.0  0.35203  0.86090  0.79556  1.0000
  C   C1279     1.0  0.18333  0.65346  0.80357  1.0000
  C   C1280     1.0  0.16459  0.65977  0.81560  1.0000
  C   C1281     1.0  0.15061  0.67790  0.80945  1.0000
  C   C1282     1.0  0.15496  0.68995  0.79096  1.0000
  C   C1283     1.0  0.17386  0.68380  0.77900  1.0000
  C   C1284     1.0  0.18806  0.66587  0.78533  1.0000
  H   H1023     1.0  0.16063  0.65034  0.82968  1.0000
  H   H1024     1.0  0.13608  0.68215  0.81873  1.0000
  H   H1025     1.0  0.17748  0.69295  0.76468  1.0000
  H   H1026     1.0  0.20240  0.66136  0.77595  1.0000
  H   H1027     1.0  0.03917  0.81478  0.88262  1.0000
  H   H1028     1.0  0.46539  0.61395  0.92944  1.0000
  C   C1285     1.0  0.20702  0.56788  0.75040  1.0000
  C   C1286     1.0  0.37517  0.86226  0.79686  1.0000
  H   H1029     1.0  0.40638  0.86127  0.77999  1.0000
  C   C1287     1.0  0.28230  0.72898  0.75341  1.0000
  H   H1030     1.0  0.32312  0.52886  0.82758  1.0000
  C   C1288     1.0  0.41290  0.53412  0.93254  1.0000
  H   H1031     1.0  0.21239  0.83281  0.78379  1.0000
  H   H1032     1.0  0.18892  0.81377  0.98500  1.0000
  C   C1289     1.0  0.34215  0.85744  0.77638  1.0000
  C   C1290     1.0  0.31220  0.58328  0.91656  1.0000
  C   C1291     1.0  0.32165  0.56565  0.90554  1.0000
  C   C1292     1.0  0.31694  0.56332  0.88427  1.0000
  C   C1293     1.0  0.30281  0.57856  0.87361  1.0000
  C   C1294     1.0  0.29362  0.59639  0.88457  1.0000
  C   C1295     1.0  0.29818  0.59862  0.90590  1.0000
  H   H1033     1.0  0.33212  0.55358  0.91359  1.0000
  H   H1034     1.0  0.32421  0.54954  0.87604  1.0000
  H   H1035     1.0  0.28294  0.60842  0.87667  1.0000
  H   H1036     1.0  0.29074  0.61232  0.91424  1.0000
  C   C1296     1.0  0.00365  0.81134  0.94275  1.0000
  H   H1037     1.0  0.24353  0.61694  0.86233  1.0000
  C   C1297     1.0  0.40650  0.55596  0.92714  1.0000
  C   C1298     1.0  0.19889  0.57093  0.86443  1.0000
  C   C1299     1.0  0.26166  0.91110  0.76313  1.0000
  C   C1300     1.0  0.09068  0.99796  0.92939  1.0000
  H   H1038     1.0  0.17558  0.59748  0.85653  1.0000
  C   C1301     1.0  0.35486  0.52702  0.84262  1.0000
  H   H1039     1.0  0.02380  0.91008  0.89368  1.0000
  C   C1302     1.0  0.02063  0.95506  0.96322  1.0000
  H   H1040     1.0  0.32787  0.89329  0.75196  1.0000
  C   C1303     1.0  0.50156  0.54617  0.94542  1.0000
  C   C1304     1.0  0.08257  0.81012  0.91999  1.0000
  C   C1305     1.0  0.06768  0.79246  0.91943  1.0000
  C   C1306     1.0  0.06629  0.77951  0.90143  1.0000
  C   C1307     1.0  0.07924  0.78431  0.88346  1.0000
  C   C1308     1.0  0.09375  0.80232  0.88386  1.0000
  C   C1309     1.0  0.09554  0.81492  0.90204  1.0000
  H   H1041     1.0  0.05761  0.78845  0.93303  1.0000
  H   H1042     1.0  0.05507  0.76561  0.90139  1.0000
  H   H1043     1.0  0.10385  0.80631  0.87027  1.0000
  H   H1044     1.0  0.10713  0.82851  0.90219  1.0000
  C   C1310     1.0  0.26320  0.88872  0.75786  1.0000
  C   C1311     1.0  0.00948  0.75685  0.75096  1.0000
  H   H1045     1.0  0.32419  0.85649  0.77562  1.0000
  H   H1046     1.0  0.24141  0.56526  0.90827  1.0000
  C   C1312     1.0  0.02153  0.91600  0.97367  1.0000
  C   C1313     1.0  0.15064  0.84753  0.75077  1.0000
  P   P47       1.0  0.02711  0.98362  0.96821  1.0000
  H   H1047     1.0  0.17431  0.62026  0.76846  1.0000
  C   C1314     1.0  0.05173  0.98931  0.95266  1.0000
  C   C1315     1.0  0.07215  0.97959  0.95859  1.0000
  C   C1316     1.0  0.19031  0.75103  0.97199  1.0000
  C   C1317     1.0  0.20772  0.97564  0.82618  1.0000
  C   C1318     1.0  0.09156  0.98407  0.94712  1.0000
  H   H1048     1.0  0.34176  0.86251  0.80943  1.0000
  C   C1319     1.0  0.08385  0.76304  0.97044  1.0000
  C   C1320     1.0  0.00553  0.80870  0.92119  1.0000
  H   H1049     1.0  0.13846  0.86089  0.75212  1.0000
  C   C1321     1.0  0.16618  0.74939  0.75132  1.0000
  H   H1050     1.0  0.00553  0.89352  0.95333  1.0000
  H   H1051     1.0  0.49295  0.59591  0.90637  1.0000
  C   C1322     1.0  0.25181  0.51448  0.80848  1.0000
  H   H1052     1.0  0.10736  0.97695  0.95218  1.0000
  H   H1053     1.0  0.16509  0.52496  0.92072  1.0000
  H   H1054     1.0  0.26662  0.79750  0.75180  1.0000
  C   C1323     1.0  0.24432  0.87544  0.75915  1.0000
  C   C1324     1.0  0.19984  0.56935  0.77106  1.0000
  H   H1055     1.0  0.32892  0.74096  0.78019  1.0000
  C   C1325     1.0  0.10221  0.76813  0.95773  1.0000
  H   H1056     1.0  0.04654  0.80376  0.84651  1.0000
  C   C1326     1.0  0.14644  0.82673  0.76052  1.0000
  H   H1057     1.0  0.07311  0.96866  0.97221  1.0000
  C   C1327     1.0  0.26602  0.51645  0.89351  1.0000
  H   H1058     1.0  0.19535  0.54713  0.90467  1.0000
  C   C1328     1.0  0.02728  0.93797  0.97713  1.0000
  C   C1329     1.0  0.25277  0.55110  0.90810  1.0000
  H   H1059     1.0  0.21702  0.55367  0.74587  1.0000
  C   C1330     1.0  0.26897  0.54917  0.92343  1.0000
  H   H1060     1.0  0.15888  0.71063  0.84049  1.0000
  C   C1331     1.0  0.49767  0.61057  0.91450  1.0000
  H   H1061     1.0  0.06617  0.86860  0.93205  1.0000
  H   H1062     1.0  0.12667  0.86235  0.95618  1.0000
  H   H1063     1.0  0.42532  0.53119  0.94439  1.0000
  H   H1064     1.0  0.27598  0.92172  0.76121  1.0000
  C   C1332     1.0  0.29586  0.73303  0.77035  1.0000
  H   H1065     1.0  0.12809  0.82212  0.96342  1.0000
  H   H1066     1.0  0.19543  0.79587  0.78764  1.0000
  C   C1333     1.0  0.28373  0.53098  0.92382  1.0000
  H   H1067     1.0  0.21728  0.50764  0.80362  1.0000
  C   C1334     1.0  0.18039  0.92884  0.75979  1.0000
  C   C1335     1.0  0.16599  0.94734  0.76207  1.0000
  P   P48       1.0  0.19620  0.91796  0.78156  1.0000
  C   C1336     1.0  0.18109  0.89533  0.79403  1.0000
  C   C1337     1.0  0.22245  0.90678  0.77196  1.0000
  C   C1338     1.0  0.22399  0.88445  0.76595  1.0000
  H   H1068     1.0  0.20416  0.55622  0.78222  1.0000
  C   C1339     1.0  0.23280  0.50964  0.75387  1.0000
  H   H1069     1.0  0.22331  0.75720  0.95984  1.0000
  C   C1340     1.0  0.24142  0.92012  0.77018  1.0000
  C   C1341     1.0  0.19214  0.88039  0.80772  1.0000
  C   C1342     1.0  0.18122  0.86163  0.81591  1.0000
  C   C1343     1.0  0.15919  0.85771  0.81057  1.0000
  C   C1344     1.0  0.14796  0.87272  0.79734  1.0000
  C   C1345     1.0  0.15882  0.89144  0.78905  1.0000
  C   C1346     1.0  0.20113  0.94024  0.79930  1.0000
  C   C1347     1.0  0.20790  0.96116  0.79146  1.0000
  H   H1070     1.0  0.27877  0.88191  0.75193  1.0000
  H   H1071     1.0  0.06905  0.75628  0.96374  1.0000
  C   C1348     1.0  0.20097  0.95490  0.83418  1.0000
  C   C1349     1.0  0.19763  0.93725  0.82081  1.0000
  C   C1350     1.0  0.01799  0.85542  0.90828  1.0000
  H   H1072     1.0  0.18768  0.71414  0.81301  1.0000
  C   C1351     1.0  0.01332  0.87615  0.89856  1.0000
  H   H1073     1.0  0.25279  0.83722  0.79015  1.0000
  H   H1074     1.0  0.16492  0.95601  0.77659  1.0000
  H   H1075     1.0  0.20944  0.87400  0.76612  1.0000
  H   H1076     1.0  0.38393  0.52367  0.86147  1.0000
  C   C1352     1.0  0.17605  0.51755  0.90921  1.0000
  S   S187      1.0  0.13779  0.97752  0.98886  1.0000
  H   H1077     1.0  0.20936  0.88301  0.81167  1.0000
  H   H1078     1.0  0.18989  0.84993  0.82614  1.0000
  H   H1079     1.0  0.15078  0.84289  0.81639  1.0000
  H   H1080     1.0  0.13097  0.86935  0.79299  1.0000
  H   H1081     1.0  0.14987  0.90244  0.77840  1.0000
  H   H1082     1.0  0.21053  0.96392  0.77496  1.0000
  H   H1083     1.0  0.16609  0.74898  0.78453  1.0000
  H   H1084     1.0  0.18638  0.55819  0.86398  1.0000
  H   H1085     1.0  0.19819  0.95258  0.85076  1.0000
  H   H1086     1.0  0.19215  0.92147  0.82735  1.0000
  C   C1353     1.0  0.23722  0.58202  0.86760  1.0000
  S   S188      1.0  0.12198  0.82326  0.77600  1.0000
  H   H1087     1.0  0.01720  0.80835  0.82001  1.0000
  H   H1088     1.0  0.01519  0.75255  0.92107  1.0000
  C   C1354     1.0  0.28124  0.80715  0.74794  1.0000
  H   H1089     1.0  0.31743  0.68957  0.74876  1.0000
  H   H1090     1.0  0.28456  0.52427  0.81714  1.0000
  H   H1091     1.0  0.13486  0.78193  0.95595  1.0000
  C   C1355     1.0  0.31496  0.65386  0.74849  1.0000
  C   C1356     1.0  0.47804  0.60246  0.98440  1.0000
  C   C1357     1.0  0.48804  0.71311  0.75054  1.0000
  H   H1092     1.0  0.36278  0.53797  0.83117  1.0000
  C   C1358     1.0  0.12166  0.78211  0.98749  1.0000
  C   C1359     1.0  0.21117  0.97875  0.80480  1.0000
  C   C1360     1.0  0.32194  0.50824  0.85556  1.0000
  H   H1093     1.0  0.46745  0.54323  0.93611  1.0000
  C   C1361     1.0  0.11870  0.93615  0.98836  1.0000
  H   H1094     1.0  0.01030  0.78447  0.89695  1.0000
  H   H1095     1.0  0.29647  0.52987  0.93558  1.0000
  C   C1362     1.0  0.05128  0.87078  0.92284  1.0000
  C   C1363     1.0  0.18907  0.79624  0.98148  1.0000
  H   H1096     1.0  0.15912  0.79357  0.76598  1.0000
  H   H1097     1.0  0.25985  0.76686  0.80168  1.0000
  H   H1098     1.0  0.01186  0.75756  0.95920  1.0000
  S   S189      1.0  0.42343  0.56427  0.97959  1.0000
  C   C1364     1.0  0.00500  0.82517  0.87715  1.0000
  C   C1365     1.0  0.03039  0.81076  0.85078  1.0000
  Fe  Fe96      1.0  0.38601  0.56405  0.98604  1.0000
  C   C1366     1.0  0.33246  0.52179  0.84053  1.0000
  C   C1367     1.0  0.48192  0.62075  0.92754  1.0000
  C   C1368     1.0  0.47672  0.51739  0.95838  1.0000
  C   C1369     1.0  0.20803  0.78694  0.97203  1.0000
  H   H1099     1.0  0.28918  0.73138  0.78602  1.0000
  H   H1100     1.0  0.19387  0.78384  0.82653  1.0000
  C   C1370     1.0  0.18309  0.60547  0.76322  1.0000
  H   H1101     1.0  0.47781  0.70106  0.75883  1.0000
  H   H1102     1.0  0.26484  0.50350  0.88223  1.0000
  C   C1371     1.0  0.00574  0.79291  0.95635  1.0000
  H   H1103     1.0  0.22188  0.70964  0.77437  1.0000
  C   C1372     1.0  0.24539  0.82091  0.79170  1.0000
  C   C1373     1.0  0.25041  0.00170  0.74608  1.0000
  C   C1374     1.0  0.02609  0.81688  0.87127  1.0000
  C   C1375     1.0  0.26089  0.52824  0.84231  1.0000
  C   C1376     1.0  0.14492  0.82453  0.99282  1.0000
  H   H1104     1.0  0.32248  0.50412  0.96033  1.0000
  H   H1105     1.0  0.04140  0.83682  0.92754  1.0000
  C   C1377     1.0  0.17133  0.76027  0.98145  1.0000
  C   C1378     1.0  0.49348  0.50879  0.97145  1.0000
  C   C1379     1.0  0.25140  0.53494  0.89279  1.0000
  H   H1106     1.0  0.22224  0.79729  0.96832  1.0000
  C   C1380     1.0  0.01195  0.76895  0.92716  1.0000
  C   C1381     1.0  0.35624  0.50555  0.87519  1.0000
  H   H1107     1.0  0.27041  0.56202  0.93487  1.0000
  C   C1382     1.0  0.16221  0.80956  0.75852  1.0000
  H   H1108     1.0  0.27311  0.53484  0.85258  1.0000
  H   H1109     1.0  0.18245  0.58939  0.79354  1.0000
  C   C1383     1.0  0.37905  0.54197  0.90382  1.0000
  C   C1384     1.0  0.38952  0.55987  0.91286  1.0000
  H   H1110     1.0  0.19076  0.73353  0.96824  1.0000
  C   C1385     1.0  0.15254  0.95466  0.74562  1.0000
  H   H1111     1.0  0.14165  0.96903  0.74745  1.0000
  H   H1112     1.0  0.47543  0.64736  0.94877  1.0000
  C   C1386     1.0  0.00940  0.78728  0.91347  1.0000
  H   H1113     1.0  0.10410  0.90336  0.98795  1.0000
  H   H1114     1.0  0.36549  0.54554  0.89332  1.0000
  H   H1115     1.0  0.38398  0.57680  0.90924  1.0000
  H   H1116     1.0  0.38926  0.85536  0.74616  1.0000
  H   H1117     1.0  0.14816  0.74878  0.75058  1.0000
  C   C1387     1.0  0.12104  0.77761  0.96618  1.0000
  H   H1118     1.0  0.26510  0.72466  0.75624  1.0000
  C   C1388     1.0  0.21251  0.75109  0.75346  1.0000
  H   H1119     1.0  0.22207  0.51858  0.76447  1.0000
  C   C1389     1.0  0.44052  0.58770  0.98216  1.0000
  C   C1390     1.0  0.18772  0.58806  0.77744  1.0000
  C   C1391     1.0  0.38560  0.51992  0.90889  1.0000
  C   C1392     1.0  0.19313  0.53011  0.89999  1.0000
  C   C1393     1.0  0.48753  0.63960  0.93848  1.0000
  C   C1394     1.0  0.02741  0.89415  0.90124  1.0000
  C   C1395     1.0  0.30175  0.80146  0.75674  1.0000
  H   H1120     1.0  0.24533  0.74125  0.82925  1.0000
  H   H1121     1.0  0.16493  0.77991  0.85376  1.0000
  C   C1396     1.0  0.40249  0.51616  0.92352  1.0000
  S   S190      1.0  0.35997  0.59122  0.98801  1.0000
  H   H1122     1.0  0.34667  0.51853  0.93201  1.0000
  C   C1397     1.0  0.46370  0.58477  0.98063  1.0000
  C   C1398     1.0  0.36674  0.51889  0.85982  1.0000
  C   C1399     1.0  0.31822  0.73842  0.76707  1.0000
  C   C1400     1.0  0.04635  0.89148  0.91347  1.0000
  C   C1401     1.0  0.03716  0.85278  0.92030  1.0000
  C   C1402     1.0  0.20864  0.76437  0.96725  1.0000
  H   H1123     1.0  0.20522  0.51933  0.83864  1.0000
  H   H1124     1.0  0.24076  0.93756  0.77382  1.0000
  H   H1125     1.0  0.27625  0.80413  0.79932  1.0000
  C   C1403     1.0  0.01012  0.77176  0.94859  1.0000
  C   C1404     1.0  0.46926  0.62353  0.98887  1.0000
  C   C1405     1.0  0.01385  0.81339  0.83585  1.0000
  C   C1406     1.0  0.24781  0.69244  0.79107  1.0000
  C   C1407     1.0  0.26199  0.69242  0.80805  1.0000
  C   C1408     1.0  0.26111  0.71010  0.82172  1.0000
  C   C1409     1.0  0.24634  0.72801  0.81815  1.0000
  C   C1410     1.0  0.23279  0.72868  0.80053  1.0000
  C   C1411     1.0  0.23314  0.71039  0.78731  1.0000
  P   P49       1.0  0.21325  0.75157  0.79666  1.0000
  C   C1412     1.0  0.22618  0.77860  0.79551  1.0000
  C   C1413     1.0  0.19974  0.74989  0.77188  1.0000
  H   H1126     1.0  0.20392  0.62691  0.85635  1.0000
  C   C1414     1.0  0.23852  0.52675  0.84863  1.0000
  H   H1127     1.0  0.05735  0.90534  0.91558  1.0000
  C   C1415     1.0  0.26747  0.52220  0.82229  1.0000
  C   C1416     1.0  0.17648  0.74928  0.77066  1.0000
  C   C1417     1.0  0.21310  0.79747  0.79029  1.0000
  C   C1418     1.0  0.22267  0.81849  0.78827  1.0000
  C   C1419     1.0  0.25859  0.80224  0.79686  1.0000
  C   C1420     1.0  0.24913  0.78109  0.79843  1.0000
  C   C1421     1.0  0.19296  0.74926  0.81758  1.0000
  C   C1422     1.0  0.18311  0.72859  0.82197  1.0000
  C   C1423     1.0  0.16682  0.72650  0.83759  1.0000
  C   C1424     1.0  0.16031  0.74498  0.84905  1.0000
  C   C1425     1.0  0.17027  0.76555  0.84503  1.0000
  C   C1426     1.0  0.18658  0.76772  0.82939  1.0000
  H   H1128     1.0  0.24806  0.67822  0.78108  1.0000
  H   H1129     1.0  0.27334  0.67843  0.81076  1.0000
  H   H1130     1.0  0.27164  0.70968  0.83525  1.0000
  H   H1131     1.0  0.24520  0.85836  0.75413  1.0000
  H   H1132     1.0  0.25697  0.51010  0.79288  1.0000
  H   H1133     1.0  0.43925  0.64330  0.99126  1.0000
  H   H1134     1.0  0.00367  0.79506  0.97293  1.0000
  C   C1427     1.0  0.13541  0.83303  0.97441  1.0000
  H   H1135     1.0  0.00483  0.96252  0.93376  1.0000
  C   C1428     1.0  0.38843  0.86026  0.77898  1.0000
  H   H1136     1.0  0.47065  0.56853  0.97728  1.0000
  H   H1137     1.0  0.41385  0.61147  0.98661  1.0000
  H   H1138     1.0  0.49362  0.56704  0.84719  1.0000
  C   C1429     1.0  0.44608  0.62682  0.98884  1.0000
  H   H1139     1.0  0.49586  0.59972  0.98409  1.0000
  C   C1430     1.0  0.22945  0.51316  0.81456  1.0000
  H   H1140     1.0  0.46038  0.51002  0.95852  1.0000
  C   C1431     1.0  0.00940  0.94964  0.94507  1.0000
  H   H1141     1.0  0.30446  0.50458  0.85407  1.0000
  C   C1432     1.0  0.00982  0.91069  0.95592  1.0000
  H   H1142     1.0  0.30316  0.78709  0.76719  1.0000
  C   C1433     1.0  0.22274  0.51957  0.83447  1.0000
  H   H1143     1.0  0.24556  0.65718  0.74920  1.0000
  C   C1434     1.0  0.13474  0.85598  0.97014  1.0000
  S   S191      1.0  0.04488  0.80930  0.99258  1.0000
  H   H1144     1.0  0.03697  0.94140  0.99071  1.0000
  C   C1435     1.0  0.17054  0.78298  0.98617  1.0000
  C   C1436     1.0  0.28221  0.51456  0.90894  1.0000
  H   H1145     1.0  0.13284  0.93160  0.97869  1.0000
  H   H1146     1.0  0.15726  0.74970  0.98504  1.0000
  H   H1147     1.0  0.14328  0.88843  0.98078  1.0000
  H   H1148     1.0  0.19442  0.79996  0.74613  1.0000
  H   H1149     1.0  0.33617  0.81001  0.75935  1.0000
  C   C1437     1.0  0.25352  0.51844  0.74808  1.0000
  C   C1438     1.0  0.18220  0.81329  0.74731  1.0000
  C   C1439     1.0  0.14400  0.87062  0.98401  1.0000
  C   C1440     1.0  0.32046  0.81436  0.75210  1.0000
  H   H1150     1.0  0.21629  0.99488  0.79851  1.0000
  C   C1441     1.0  0.37860  0.85687  0.75977  1.0000
  C   C1442     1.0  0.35537  0.85535  0.75833  1.0000
  C   C1443     1.0  0.08442  0.76722  0.99168  1.0000
  C   C1444     1.0  0.00386  0.92751  0.94154  1.0000
  H   H1151     1.0  0.10584  0.00160  0.92072  1.0000
  H   H1152     1.0  0.34429  0.74409  0.74418  1.0000
  C   C1445     1.0  0.00387  0.00194  0.96206  1.0000
  Fe  Fe97      1.0  0.91834  0.14036  0.01224  1.0000
  S   S192      1.0  0.90226  0.14854  0.04410  1.0000
  H   H1153     1.0  0.80994  0.34223  0.11270  1.0000
  S   S193      1.0  0.94482  0.11352  0.01059  1.0000
  C   C1446     1.0  0.98094  0.07221  0.09781  1.0000
  Fe  Fe98      1.0  0.65223  0.42150  0.01952  1.0000
  S   S194      1.0  0.67861  0.41602  0.04506  1.0000
  Fe  Fe99      1.0  0.87994  0.25105  0.18539  1.0000
  S   S195      1.0  0.87049  0.21794  0.17208  1.0000
  S   S196      1.0  0.85819  0.28270  0.19162  1.0000
  Fe  Fe100     1.0  0.92845  0.23369  0.19647  1.0000
  S   S197      1.0  0.92164  0.19983  0.18412  1.0000
  S   S198      1.0  0.96280  0.24572  0.20762  1.0000
  Fe  Fe101     1.0  0.90494  0.21721  0.15682  1.0000
  S   S199      1.0  0.91798  0.20944  0.12361  1.0000
  Fe  Fe102     1.0  0.88798  0.20279  0.20006  1.0000
  S   S200      1.0  0.87720  0.17549  0.22319  1.0000
  S   S201      1.0  0.91325  0.25138  0.16845  1.0000
  S   S202      1.0  0.89582  0.23563  0.21412  1.0000
  Fe  Fe103     1.0  0.70690  0.39968  0.16955  1.0000
  S   S203      1.0  0.74370  0.40645  0.16896  1.0000
  S   S204      1.0  0.67973  0.40509  0.14480  1.0000
  Fe  Fe104     1.0  0.70875  0.38301  0.21523  1.0000
  S   S205      1.0  0.74554  0.38875  0.21757  1.0000
  C   C1447     1.0  0.51929  0.27182  0.14442  1.0000
  Fe  Fe105     1.0  0.73795  0.42166  0.20076  1.0000
  S   S206      1.0  0.75203  0.45579  0.20994  1.0000
  Fe  Fe106     1.0  0.74836  0.37295  0.18614  1.0000
  S   S207      1.0  0.76859  0.34145  0.17614  1.0000
  S   S208      1.0  0.70122  0.41638  0.20029  1.0000
  S   S209      1.0  0.71162  0.36586  0.18493  1.0000
  C   C1448     1.0  0.83245  0.29795  0.18787  1.0000
  C   C1449     1.0  0.82844  0.31750  0.19911  1.0000
  C   C1450     1.0  0.80892  0.33068  0.19614  1.0000
  C   C1451     1.0  0.79310  0.32478  0.18156  1.0000
  C   C1452     1.0  0.79691  0.30503  0.17055  1.0000
  C   C1453     1.0  0.81630  0.29166  0.17374  1.0000
  H   H1154     1.0  0.84067  0.32261  0.21012  1.0000
  H   H1155     1.0  0.80631  0.34559  0.20496  1.0000
  H   H1156     1.0  0.78487  0.30016  0.15926  1.0000
  H   H1157     1.0  0.81901  0.27679  0.16488  1.0000
  C   C1454     1.0  0.81329  0.15648  0.21365  1.0000
  C   C1455     1.0  0.83398  0.16701  0.21114  1.0000
  C   C1456     1.0  0.85066  0.16321  0.22580  1.0000
  C   C1457     1.0  0.98469  0.23738  0.22516  1.0000
  H   H1158     1.0  0.83709  0.17787  0.19777  1.0000
  H   H1159     1.0  0.70748  0.46864  0.18901  1.0000
  C   C1458     1.0  0.00044  0.20606  0.18554  1.0000
  H   H1160     1.0  0.88326  0.41480  0.09600  1.0000
  C   C1459     1.0  0.65696  0.34856  0.22405  1.0000
  C   C1460     1.0  0.63930  0.33352  0.22333  1.0000
  C   C1461     1.0  0.89535  0.03650  0.05996  1.0000
  H   H1161     1.0  0.65985  0.36026  0.21126  1.0000
  H   H1162     1.0  0.62845  0.33389  0.21008  1.0000
  C   C1462     1.0  0.65463  0.45319  0.19833  1.0000
  H   H1163     1.0  0.52121  0.33452  0.10037  1.0000
  H   H1164     1.0  0.60120  0.23287  0.21304  1.0000
  H   H1165     1.0  0.68220  0.46162  0.02769  1.0000
  C   C1463     1.0  0.80027  0.00979  0.20122  1.0000
  C   C1464     1.0  0.68587  0.49309  0.01126  1.0000
  C   C1465     1.0  0.80456  0.38820  0.17160  1.0000
  H   H1166     1.0  0.53499  0.27372  0.13626  1.0000
  C   C1466     1.0  0.74234  0.47853  0.22568  1.0000
  H   H1167     1.0  0.88140  0.27671  0.02688  1.0000
  C   C1467     1.0  0.59839  0.47711  0.09230  1.0000
  H   H1168     1.0  0.89105  0.19658  0.03284  1.0000
  C   C1468     1.0  0.53844  0.23772  0.20000  1.0000
  C   C1469     1.0  0.97355  0.06060  0.11566  1.0000
  C   C1470     1.0  0.61541  0.47661  0.17110  1.0000
  C   C1471     1.0  0.59647  0.31030  0.13839  1.0000
  C   C1472     1.0  0.97098  0.20325  0.01834  1.0000
  H   H1169     1.0  0.66706  0.27781  0.23114  1.0000
  C   C1473     1.0  0.67839  0.41359  0.07287  1.0000
  C   C1474     1.0  0.69883  0.41136  0.08331  1.0000
  C   C1475     1.0  0.69961  0.40892  0.10522  1.0000
  C   C1476     1.0  0.67991  0.40851  0.11708  1.0000
  C   C1477     1.0  0.65949  0.41113  0.10669  1.0000
  C   C1478     1.0  0.65870  0.41367  0.08478  1.0000
  H   H1170     1.0  0.71419  0.41143  0.07434  1.0000
  H   H1171     1.0  0.71544  0.40737  0.11293  1.0000
  H   H1172     1.0  0.64413  0.41099  0.11564  1.0000
  H   H1173     1.0  0.64285  0.41542  0.07708  1.0000
  C   C1479     1.0  0.54838  0.30040  0.21925  1.0000
  H   H1174     1.0  0.76950  0.37511  0.14513  1.0000
  H   H1175     1.0  0.93315  0.24777  0.06008  1.0000
  H   H1176     1.0  0.73703  0.16501  0.19554  1.0000
  C   C1480     1.0  0.90726  0.16545  0.06613  1.0000
  C   C1481     1.0  0.92574  0.17925  0.06736  1.0000
  C   C1482     1.0  0.92873  0.19239  0.08503  1.0000
  C   C1483     1.0  0.91340  0.19196  0.10187  1.0000
  C   C1484     1.0  0.89495  0.17810  0.10065  1.0000
  C   C1485     1.0  0.89192  0.16504  0.08293  1.0000
  H   H1177     1.0  0.93773  0.17980  0.05471  1.0000
  H   H1178     1.0  0.94303  0.20304  0.08567  1.0000
  H   H1179     1.0  0.88293  0.17756  0.11331  1.0000
  H   H1180     1.0  0.87751  0.15454  0.08225  1.0000
  C   C1486     1.0  0.85680  0.34104  0.15358  1.0000
  C   C1487     1.0  0.84541  0.36104  0.14905  1.0000
  C   C1488     1.0  0.82831  0.36177  0.13434  1.0000
  P   P50       1.0  0.81334  0.38762  0.12889  1.0000
  C   C1489     1.0  0.69115  0.25533  0.21694  1.0000
  C   C1490     1.0  0.78744  0.38153  0.11637  1.0000
  C   C1491     1.0  0.76861  0.37600  0.12840  1.0000
  C   C1492     1.0  0.74846  0.37142  0.11893  1.0000
  C   C1493     1.0  0.74700  0.37213  0.09728  1.0000
  C   C1494     1.0  0.76582  0.37709  0.08510  1.0000
  C   C1495     1.0  0.78604  0.38158  0.09458  1.0000
  C   C1496     1.0  0.80690  0.40106  0.15318  1.0000
  C   C1497     1.0  0.79859  0.43435  0.17281  1.0000
  C   C1498     1.0  0.80372  0.42427  0.15392  1.0000
  H   H1181     1.0  0.86947  0.34032  0.16542  1.0000
  H   H1182     1.0  0.84966  0.37583  0.15731  1.0000
  H   H1183     1.0  0.73393  0.36743  0.12844  1.0000
  H   H1184     1.0  0.73127  0.36883  0.08997  1.0000
  H   H1185     1.0  0.76467  0.37746  0.06831  1.0000
  H   H1186     1.0  0.80051  0.38503  0.08489  1.0000
  H   H1187     1.0  0.80153  0.42651  0.10263  1.0000
  H   H1188     1.0  0.80631  0.37029  0.17139  1.0000
  H   H1189     1.0  0.80497  0.43468  0.14004  1.0000
  H   H1190     1.0  0.58681  0.26643  0.19468  1.0000
  C   C1499     1.0  0.64034  0.30018  0.17958  1.0000
  C   C1500     1.0  0.64567  0.32097  0.17075  1.0000
  C   C1501     1.0  0.66772  0.32800  0.17038  1.0000
  C   C1502     1.0  0.68443  0.31435  0.17907  1.0000
  C   C1503     1.0  0.67916  0.29375  0.18851  1.0000
  C   C1504     1.0  0.65706  0.28645  0.18815  1.0000
  P   P51       1.0  0.70131  0.27576  0.19810  1.0000
  C   C1505     1.0  0.72177  0.29171  0.21131  1.0000
  C   C1506     1.0  0.99632  0.03679  0.01665  1.0000
  C   C1507     1.0  0.76617  0.03215  0.20194  1.0000
  H   H1191     1.0  0.85306  0.23450  0.07436  1.0000
  H   H1192     1.0  0.83025  0.30718  0.12086  1.0000
  C   C1508     1.0  0.67392  0.26100  0.23093  1.0000
  H   H1193     1.0  0.90425  0.07947  0.02516  1.0000
  C   C1509     1.0  0.71522  0.31030  0.22278  1.0000
  H   H1194     1.0  0.98960  0.23285  0.16510  1.0000
  H   H1195     1.0  0.57554  0.20275  0.22419  1.0000
  C   C1510     1.0  0.90865  0.26558  0.00706  1.0000
  C   C1511     1.0  0.59136  0.47556  0.05543  1.0000
  C   C1512     1.0  0.71314  0.26356  0.17501  1.0000
  C   C1513     1.0  0.70490  0.24353  0.16763  1.0000
  C   C1514     1.0  0.71391  0.23436  0.14954  1.0000
  C   C1515     1.0  0.73081  0.24537  0.13844  1.0000
  C   C1516     1.0  0.73848  0.26574  0.14524  1.0000
  C   C1517     1.0  0.72951  0.27496  0.16329  1.0000
  H   H1196     1.0  0.62319  0.29483  0.18012  1.0000
  H   H1197     1.0  0.63271  0.33176  0.16440  1.0000
  H   H1198     1.0  0.67188  0.34409  0.16343  1.0000
  H   H1199     1.0  0.70152  0.31980  0.17835  1.0000
  H   H1200     1.0  0.65259  0.27026  0.19453  1.0000
  H   H1201     1.0  0.69140  0.45787  0.11460  1.0000
  H   H1202     1.0  0.58116  0.47576  0.16171  1.0000
  C   C1518     1.0  0.98691  0.14042  0.04244  1.0000
  C   C1519     1.0  0.59322  0.28730  0.13912  1.0000
  H   H1203     1.0  0.77794  0.29436  0.21802  1.0000
  H   H1204     1.0  0.69782  0.31512  0.22409  1.0000
  H   H1205     1.0  0.98220  0.14791  0.02762  1.0000
  H   H1206     1.0  0.63581  0.49989  0.21675  1.0000
  P   P52       1.0  0.54196  0.28011  0.18131  1.0000
  C   C1520     1.0  0.96201  0.05623  0.02516  1.0000
  H   H1207     1.0  0.69139  0.23509  0.17570  1.0000
  H   H1208     1.0  0.70765  0.21878  0.14404  1.0000
  H   H1209     1.0  0.73775  0.23827  0.12441  1.0000
  H   H1210     1.0  0.75128  0.27454  0.13644  1.0000
  H   H1211     1.0  0.73531  0.29107  0.16799  1.0000
  H   H1212     1.0  0.95872  0.06628  0.12385  1.0000
  H   H1213     1.0  0.90170  0.01635  0.16669  1.0000
  C   C1521     1.0  0.89218  0.28074  0.01375  1.0000
  H   H1214     1.0  0.76174  0.23873  0.21931  1.0000
  H   H1215     1.0  0.53543  0.20612  0.21635  1.0000
  C   C1522     1.0  0.65783  0.45215  0.21993  1.0000
  C   C1523     1.0  0.74951  0.18555  0.24286  1.0000
  C   C1524     1.0  0.94833  0.20896  0.01888  1.0000
  C   C1525     1.0  0.56937  0.21700  0.21518  1.0000
  C   C1526     1.0  0.67779  0.47921  0.02730  1.0000
  H   H1216     1.0  0.58065  0.38343  0.05505  1.0000
  C   C1527     1.0  0.88546  0.01039  0.17153  1.0000
  H   H1217     1.0  0.79764  0.38819  0.20452  1.0000
  S   S210      1.0  0.62275  0.44473  0.02223  1.0000
  C   C1528     1.0  0.55282  0.25484  0.19354  1.0000
  C   C1529     1.0  0.81936  0.42374  0.10128  1.0000
  C   C1530     1.0  0.85494  0.43489  0.08660  1.0000
  H   H1218     1.0  0.58579  0.34202  0.15020  1.0000
  H   H1219     1.0  0.62300  0.50023  0.10141  1.0000
  C   C1531     1.0  0.88940  0.30137  0.00342  1.0000
  H   H1220     1.0  0.59525  0.47105  0.10805  1.0000
  C   C1532     1.0  0.86636  0.02301  0.16679  1.0000
  C   C1533     1.0  0.52801  0.46883  0.03855  1.0000
  H   H1221     1.0  0.64052  0.39906  0.19147  1.0000
  C   C1534     1.0  0.79853  0.04445  0.22005  1.0000
  C   C1535     1.0  0.51149  0.32911  0.21528  1.0000
  C   C1536     1.0  0.58319  0.32419  0.15068  1.0000
  H   H1222     1.0  0.66386  0.46633  0.22806  1.0000
  H   H1223     1.0  0.64704  0.43394  0.17138  1.0000
  H   H1224     1.0  0.68027  0.49904  0.07931  1.0000
  C   C1537     1.0  0.95633  0.15592  0.24045  1.0000
  C   C1538     1.0  0.98696  0.21969  0.02018  1.0000
  C   C1539     1.0  0.84540  0.01546  0.17319  1.0000
  C   C1540     1.0  0.70388  0.46719  0.17264  1.0000
  H   H1225     1.0  0.82381  0.45178  0.08012  1.0000
  H   H1226     1.0  0.87862  0.24221  0.10321  1.0000
  H   H1227     1.0  0.71464  0.22926  0.20827  1.0000
  C   C1541     1.0  0.66364  0.48784  0.04260  1.0000
  C   C1542     1.0  0.90109  0.07095  0.03996  1.0000
  C   C1543     1.0  0.58703  0.46802  0.07579  1.0000
  S   S211      1.0  0.56794  0.41498  0.01378  1.0000
  C   C1544     1.0  0.83193  0.43810  0.08850  1.0000
  H   H1228     1.0  0.60933  0.31735  0.12834  1.0000
  H   H1229     1.0  0.95271  0.26497  0.02467  1.0000
  C   C1545     1.0  0.89987  0.04772  0.04098  1.0000
  C   C1546     1.0  0.85288  0.40285  0.11022  1.0000
  C   C1547     1.0  0.60728  0.49193  0.05153  1.0000
  H   H1230     1.0  0.91831  0.24937  0.09579  1.0000
  H   H1231     1.0  0.82360  0.01559  0.02102  1.0000
  C   C1548     1.0  0.77797  0.01324  0.19547  1.0000
  C   C1549     1.0  0.88474  0.24230  0.08727  1.0000
  C   C1550     1.0  0.83308  0.00505  0.03172  1.0000
  H   H1232     1.0  0.93619  0.19596  0.01792  1.0000
  H   H1233     1.0  0.52071  0.23908  0.19752  1.0000
  C   C1551     1.0  0.97290  0.06783  0.04042  1.0000
  C   C1552     1.0  0.89374  0.07222  0.07696  1.0000
  C   C1553     1.0  0.89234  0.04894  0.07800  1.0000
  C   C1554     1.0  0.56662  0.31512  0.16369  1.0000
  C   C1555     1.0  0.51675  0.31423  0.19952  1.0000
  C   C1556     1.0  0.79959  0.39831  0.19044  1.0000
  H   H1234     1.0  0.55656  0.32616  0.17313  1.0000
  H   H1235     1.0  0.61369  0.46209  0.18124  1.0000
  C   C1557     1.0  0.74443  0.28565  0.21022  1.0000
  C   C1558     1.0  0.57668  0.27817  0.15210  1.0000
  H   H1236     1.0  0.96528  0.03252  0.00083  1.0000
  H   H1237     1.0  0.94143  0.01415  0.05755  1.0000
  C   C1559     1.0  0.73685  0.16680  0.21224  1.0000
  C   C1560     1.0  0.86540  0.41727  0.09744  1.0000
  H   H1238     1.0  0.90220  0.03850  0.02687  1.0000
  H   H1239     1.0  0.74987  0.27136  0.20156  1.0000
  H   H1240     1.0  0.87196  0.16808  0.01330  1.0000
  S   S212      1.0  0.61274  0.29995  0.23839  1.0000
  H   H1241     1.0  0.89124  0.08185  0.09082  1.0000
  H   H1242     1.0  0.88883  0.04089  0.09286  1.0000
  H   H1243     1.0  0.74884  0.03447  0.19783  1.0000
  C   C1561     1.0  0.98518  0.04164  0.12284  1.0000
  C   C1562     1.0  0.81723  0.23628  0.20842  1.0000
  H   H1244     1.0  0.51219  0.32034  0.13570  1.0000
  H   H1245     1.0  0.54467  0.49054  0.05926  1.0000
  C   C1563     1.0  0.94148  0.23127  0.02065  1.0000
  C   C1564     1.0  0.51773  0.27388  0.16612  1.0000
  C   C1565     1.0  0.70052  0.23373  0.21800  1.0000
  C   C1566     1.0  0.79489  0.24289  0.20696  1.0000
  C   C1567     1.0  0.51129  0.38355  0.99786  1.0000
  C   C1568     1.0  0.88910  0.19905  0.01623  1.0000
  C   C1569     1.0  0.55136  0.38140  0.07481  1.0000
  C   C1570     1.0  0.56440  0.37608  0.05744  1.0000
  C   C1571     1.0  0.55624  0.36177  0.04271  1.0000
  C   C1572     1.0  0.53496  0.35290  0.04516  1.0000
  H   H1246     1.0  0.94451  0.05937  0.02247  1.0000
  S   S213      1.0  0.78306  0.12871  0.23284  1.0000
  C   C1573     1.0  0.50534  0.48720  0.01199  1.0000
  H   H1247     1.0  0.86468  0.44608  0.07675  1.0000
  H   H1248     1.0  0.99568  0.10917  0.02904  1.0000
  C   C1574     1.0  0.97376  0.04101  0.01302  1.0000
  H   H1249     1.0  0.78998  0.25514  0.19516  1.0000
  H   H1250     1.0  0.79581  0.45221  0.17339  1.0000
  C   C1575     1.0  0.99576  0.06433  0.04362  1.0000
  C   C1576     1.0  0.52665  0.39742  0.00740  1.0000
  H   H1251     1.0  0.97613  0.18606  0.01626  1.0000
  H   H1252     1.0  0.53505  0.45364  0.04541  1.0000
  H   H1253     1.0  0.99102  0.15271  0.09348  1.0000
  H   H1254     1.0  0.73760  0.45763  0.16499  1.0000
  C   C1577     1.0  0.72100  0.46075  0.15905  1.0000
  C   C1578     1.0  0.87866  0.23706  0.05062  1.0000
  C   C1579     1.0  0.59680  0.48442  0.16010  1.0000
  H   H1255     1.0  0.55765  0.39270  0.08608  1.0000
  H   H1256     1.0  0.97017  0.20670  0.23584  1.0000
  H   H1257     1.0  0.56616  0.35815  0.02896  1.0000
  H   H1258     1.0  0.52896  0.34239  0.03315  1.0000
  H   H1259     1.0  0.72966  0.45179  0.12774  1.0000
  H   H1260     1.0  0.85977  0.02804  0.03325  1.0000
  C   C1580     1.0  0.54325  0.31552  0.23482  1.0000
  C   C1581     1.0  0.76039  0.29858  0.21963  1.0000
  C   C1582     1.0  0.80909  0.14206  0.23078  1.0000
  P   P53       1.0  0.91224  0.23873  0.02008  1.0000
  C   C1583     1.0  0.50393  0.33346  0.10518  1.0000
  C   C1584     1.0  0.53350  0.48955  0.04628  1.0000
  H   H1261     1.0  0.57510  0.45492  0.07868  1.0000
  C   C1585     1.0  0.98028  0.24189  0.02258  1.0000
  H   H1262     1.0  0.69627  0.48620  0.99906  1.0000
  C   C1586     1.0  0.82312  0.34226  0.12398  1.0000
  H   H1263     1.0  0.80628  0.05646  0.22981  1.0000
  H   H1264     1.0  0.86345  0.00588  0.09665  1.0000
  H   H1265     1.0  0.87664  0.31298  0.00865  1.0000
  C   C1587     1.0  0.93718  0.00247  0.04575  1.0000
  H   H1266     1.0  0.56274  0.28947  0.22124  1.0000
  C   C1588     1.0  0.95762  0.24770  0.02280  1.0000
  H   H1267     1.0  0.97133  0.08648  0.09216  1.0000
  C   C1589     1.0  0.78545  0.21817  0.23623  1.0000
  C   C1590     1.0  0.52469  0.32969  0.23296  1.0000
  H   H1268     1.0  0.71616  0.13821  0.21808  1.0000
  H   H1269     1.0  0.86138  0.38937  0.11845  1.0000
  C   C1591     1.0  0.58378  0.23401  0.20895  1.0000
  H   H1270     1.0  0.83072  0.02542  0.16939  1.0000
  H   H1271     1.0  0.96316  0.14337  0.23029  1.0000
  C   C1592     1.0  0.79667  0.42138  0.19107  1.0000
  C   C1593     1.0  0.72513  0.15165  0.22490  1.0000
  C   C1594     1.0  0.89808  0.08321  0.05795  1.0000
  H   H1272     1.0  0.85999  0.30613  0.14720  1.0000
  H   H1273     1.0  0.96350  0.07978  0.04948  1.0000
  C   C1595     1.0  0.90721  0.24630  0.08307  1.0000
  C   C1596     1.0  0.57554  0.25297  0.19840  1.0000
  H   H1274     1.0  0.86732  0.23359  0.03823  1.0000
  C   C1597     1.0  0.53501  0.29945  0.20156  1.0000
  C   C1598     1.0  0.83465  0.32232  0.12848  1.0000
  H   H1275     1.0  0.52105  0.40816  0.01969  1.0000
  H   H1276     1.0  0.60355  0.27652  0.12963  1.0000
  H   H1277     1.0  0.98361  0.20205  0.19054  1.0000
  C   C1599     1.0  0.87044  0.23779  0.07104  1.0000
  H   H1278     1.0  0.50950  0.45137  0.01609  1.0000
  C   C1600     1.0  0.71656  0.45761  0.13809  1.0000
  H   H1279     1.0  0.58281  0.46833  0.04255  1.0000
  H   H1280     1.0  0.89894  0.10126  0.05710  1.0000
  C   C1601     1.0  0.65421  0.43224  0.23120  1.0000
  C   C1602     1.0  0.85146  0.32171  0.14327  1.0000
  C   C1603     1.0  0.77637  0.04765  0.21433  1.0000
  P   P54       1.0  0.89349  0.00644  0.06063  1.0000
  H   H1281     1.0  0.80052  0.15935  0.20215  1.0000
  H   H1282     1.0  0.76620  0.32793  0.23717  1.0000
  C   C1604     1.0  0.82973  0.40598  0.11226  1.0000
  C   C1605     1.0  0.75381  0.31750  0.23043  1.0000
  C   C1606     1.0  0.69502  0.46117  0.13067  1.0000
  H   H1283     1.0  0.58958  0.48873  0.99748  1.0000
  C   C1607     1.0  0.64841  0.43387  0.18816  1.0000
  C   C1608     1.0  0.56326  0.29202  0.16450  1.0000
  C   C1609     1.0  0.54674  0.21885  0.21067  1.0000
  H   H1284     1.0  0.50636  0.31417  0.18593  1.0000
  C   C1610     1.0  0.90141  0.24037  0.04636  1.0000
  H   H1285     1.0  0.86777  0.03876  0.15827  1.0000
  C   C1611     1.0  0.54918  0.39747  0.00112  1.0000
  C   C1612     1.0  0.93789  0.16875  0.23421  1.0000
  C   C1613     1.0  0.53003  0.37259  0.07733  1.0000
  H   H1286     1.0  0.57430  0.26030  0.15248  1.0000
  C   C1614     1.0  0.81049  0.02569  0.21343  1.0000
  C   C1615     1.0  0.91558  0.24521  0.06275  1.0000
  C   C1616     1.0  0.68231  0.47137  0.16523  1.0000
  C   C1617     1.0  0.89753  0.21806  0.00586  1.0000
  C   C1618     1.0  0.99197  0.14304  0.07951  1.0000
  H   H1287     1.0  0.82766  0.02351  0.21804  1.0000
  H   H1288     1.0  0.99268  0.25462  0.02416  1.0000
  C   C1619     1.0  0.74894  0.18375  0.22114  1.0000
  H   H1289     1.0  0.75823  0.19492  0.21100  1.0000
  H   H1290     1.0  0.70928  0.46644  0.23155  1.0000
  H   H1291     1.0  0.82956  0.24341  0.19784  1.0000
  C   C1620     1.0  0.61418  0.49367  0.08845  1.0000
  C   C1621     1.0  0.77903  0.23373  0.22070  1.0000
  H   H1292     1.0  0.76699  0.06199  0.21979  1.0000
  C   C1622     1.0  0.67791  0.46793  0.14417  1.0000
  H   H1293     1.0  0.79255  0.42920  0.20566  1.0000
  C   C1623     1.0  0.72074  0.47975  0.23419  1.0000
  H   H1294     1.0  0.64552  0.39765  0.22971  1.0000
  C   C1624     1.0  0.73471  0.00334  0.23392  1.0000
  C   C1625     1.0  0.99960  0.12089  0.08045  1.0000
  H   H1295     1.0  0.66123  0.46971  0.13821  1.0000
  C   C1626     1.0  0.64470  0.41404  0.19950  1.0000
  C   C1627     1.0  0.87838  0.18271  0.00517  1.0000
  Fe  Fe107     1.0  0.60413  0.42001  0.00342  1.0000
  H   H1296     1.0  0.65731  0.47663  0.05469  1.0000
  P   P55       1.0  0.66010  0.47837  0.18323  1.0000
  C   C1628     1.0  0.80784  0.21109  0.23713  1.0000
  H   H1297     1.0  0.93028  0.16610  0.21932  1.0000
  C   C1629     1.0  0.85373  0.01201  0.03866  1.0000
  H   H1298     1.0  0.97945  0.03267  0.13669  1.0000
  C   C1630     1.0  0.64757  0.41322  0.22102  1.0000
  S   S214      1.0  0.63304  0.39552  0.00254  1.0000
  C   C1631     1.0  0.52162  0.35827  0.06250  1.0000
  H   H1299     1.0  0.72522  0.01879  0.23334  1.0000
  C   C1632     1.0  0.98543  0.15274  0.06053  1.0000
  C   C1633     1.0  0.66689  0.50146  0.19939  1.0000
  H   H1300     1.0  0.84095  0.21482  0.22419  1.0000
  H   H1301     1.0  0.51985  0.37740  0.09054  1.0000
  C   C1634     1.0  0.82366  0.22029  0.22339  1.0000
  H   H1302     1.0  0.97935  0.16983  0.05982  1.0000
  C   C1635     1.0  0.69148  0.21755  0.23155  1.0000
  C   C1636     1.0  0.51371  0.46761  0.02167  1.0000
  C   C1637     1.0  0.99443  0.11828  0.04334  1.0000
  C   C1638     1.0  0.73123  0.32317  0.23223  1.0000
  C   C1639     1.0  0.63577  0.48772  0.16909  1.0000
  C   C1640     1.0  0.84635  0.14900  0.24307  1.0000
  H   H1303     1.0  0.69842  0.20076  0.23211  1.0000
  C   C1641     1.0  0.98407  0.21767  0.23727  1.0000
  H   H1304     1.0  0.61093  0.49717  0.03560  1.0000
  H   H1305     1.0  0.77355  0.49568  0.22300  1.0000
  C   C1642     1.0  0.63534  0.31827  0.23982  1.0000
  C   C1643     1.0  0.75682  0.49623  0.22942  1.0000
  C   C1644     1.0  0.67028  0.34897  0.24166  1.0000
  C   C1645     1.0  0.61881  0.50110  0.06799  1.0000
  H   H1306     1.0  0.91541  0.19551  0.24163  1.0000
  H   H1307     1.0  0.72618  0.33783  0.24063  1.0000
  C   C1646     1.0  0.00008  0.10811  0.06248  1.0000
  C   C1647     1.0  0.00034  0.06519  0.08726  1.0000
  H   H1308     1.0  0.93256  0.08276  0.43691  1.0000
  H   H1309     1.0  0.63489  0.30965  0.38028  1.0000
  S   S215      1.0  0.86101  0.05744  0.44676  1.0000
  C   C1648     1.0  0.80693  0.01252  0.33201  1.0000
  H   H1310     1.0  0.82412  0.02237  0.42640  1.0000
  Fe  Fe108     1.0  0.82460  0.06088  0.45378  1.0000
  S   S216      1.0  0.79706  0.06343  0.42932  1.0000
  C   C1649     1.0  0.94496  0.23351  0.27855  1.0000
  C   C1650     1.0  0.95423  0.26675  0.25809  1.0000
  H   H1311     1.0  0.62534  0.32057  0.41578  1.0000
  H   H1312     1.0  0.97039  0.08614  0.45140  1.0000
  C   C1651     1.0  0.93105  0.20896  0.34681  1.0000
  S   S217      1.0  0.54608  0.36219  0.45910  1.0000
  Fe  Fe109     1.0  0.57050  0.33358  0.46207  1.0000
  S   S218      1.0  0.58238  0.30891  0.43712  1.0000
  C   C1652     1.0  0.77481  0.10711  0.46468  1.0000
  S   S219      1.0  0.57350  0.41736  0.47031  1.0000
  S   S220      1.0  0.82459  0.03124  0.47612  1.0000
  Fe  Fe110     1.0  0.58535  0.27332  0.31161  1.0000
  S   S221      1.0  0.58080  0.23620  0.30857  1.0000
  S   S222      1.0  0.57445  0.29651  0.33832  1.0000
  Fe  Fe111     1.0  0.60255  0.27789  0.26605  1.0000
  S   S223      1.0  0.59922  0.24141  0.26046  1.0000
  H   H1313     1.0  0.81133  0.17074  0.32459  1.0000
  Fe  Fe112     1.0  0.56586  0.24499  0.27691  1.0000
  S   S224      1.0  0.53464  0.22984  0.26253  1.0000
  Fe  Fe113     1.0  0.61457  0.23567  0.29197  1.0000
  S   S225      1.0  0.64778  0.21626  0.29808  1.0000
  S   S226      1.0  0.56872  0.28172  0.28093  1.0000
  S   S227      1.0  0.61954  0.27257  0.29650  1.0000
  Fe  Fe114     1.0  0.77284  0.09099  0.30602  1.0000
  S   S228      1.0  0.74099  0.07194  0.30357  1.0000
  S   S229      1.0  0.79826  0.09174  0.33245  1.0000
  Fe  Fe115     1.0  0.77051  0.10767  0.26044  1.0000
  S   S230      1.0  0.73890  0.08913  0.25498  1.0000
  H   H1314     1.0  0.71665  0.14146  0.25625  1.0000
  Fe  Fe116     1.0  0.72777  0.10282  0.28596  1.0000
  S   S231      1.0  0.69228  0.11827  0.28851  1.0000
  Fe  Fe117     1.0  0.75452  0.05992  0.27258  1.0000
  S   S232      1.0  0.76039  0.02251  0.26494  1.0000
  S   S233      1.0  0.75882  0.12239  0.29053  1.0000
  S   S234      1.0  0.78692  0.07799  0.27590  1.0000
  H   H1315     1.0  0.92253  0.16593  0.30381  1.0000
  S   S235      1.0  0.82947  0.08548  0.47935  1.0000
  C   C1653     1.0  0.85138  0.01334  0.40615  1.0000
  H   H1316     1.0  0.52323  0.30321  0.41714  1.0000
  C   C1654     1.0  0.77106  0.01281  0.36366  1.0000
  H   H1317     1.0  0.62635  0.49748  0.37338  1.0000
  H   H1318     1.0  0.64681  0.30583  0.26943  1.0000
  C   C1655     1.0  0.65984  0.18894  0.29470  1.0000
  C   C1656     1.0  0.68259  0.18529  0.29910  1.0000
  C   C1657     1.0  0.69293  0.16409  0.29681  1.0000
  C   C1658     1.0  0.68061  0.14595  0.29036  1.0000
  C   C1659     1.0  0.65789  0.14963  0.28592  1.0000
  C   C1660     1.0  0.64763  0.17092  0.28788  1.0000
  H   H1319     1.0  0.69224  0.19890  0.30463  1.0000
  H   H1320     1.0  0.71027  0.16161  0.30064  1.0000
  H   H1321     1.0  0.64805  0.13582  0.28103  1.0000
  H   H1322     1.0  0.63016  0.17324  0.28445  1.0000
  C   C1661     1.0  0.61951  0.33920  0.32572  1.0000
  H   H1323     1.0  0.69890  0.27579  0.32603  1.0000
  H   H1324     1.0  0.81319  0.19835  0.24823  1.0000
  C   C1662     1.0  0.67539  0.46911  0.38063  1.0000
  C   C1663     1.0  0.78968  0.13476  0.38998  1.0000
  H   H1325     1.0  0.92562  0.24694  0.25279  1.0000
  C   C1664     1.0  0.57954  0.30582  0.40964  1.0000
  C   C1665     1.0  0.56856  0.32161  0.39688  1.0000
  C   C1666     1.0  0.56719  0.31843  0.37521  1.0000
  C   C1667     1.0  0.57673  0.29946  0.36588  1.0000
  C   C1668     1.0  0.58774  0.28371  0.37865  1.0000
  C   C1669     1.0  0.58915  0.28691  0.40029  1.0000
  H   H1326     1.0  0.56116  0.33629  0.40370  1.0000
  H   H1327     1.0  0.55865  0.33076  0.36557  1.0000
  H   H1328     1.0  0.59509  0.26899  0.37186  1.0000
  H   H1329     1.0  0.59773  0.27456  0.40989  1.0000
  H   H1330     1.0  0.51897  0.38958  0.41689  1.0000
  C   C1670     1.0  0.93436  0.03511  0.46663  1.0000
  C   C1671     1.0  0.59367  0.45768  0.47366  1.0000
  H   H1331     1.0  0.73242  0.05110  0.34667  1.0000
  H   H1332     1.0  0.58038  0.46405  0.46391  1.0000
  H   H1333     1.0  0.87510  0.00418  0.38245  1.0000
  C   C1672     1.0  0.82894  0.01710  0.41098  1.0000
  C   C1673     1.0  0.64930  0.31801  0.25701  1.0000
  H   H1334     1.0  0.69708  0.49898  0.25232  1.0000
  H   H1335     1.0  0.60874  0.28832  0.47200  1.0000
  C   C1674     1.0  0.68211  0.27987  0.33114  1.0000
  C   C1675     1.0  0.78626  0.13470  0.36854  1.0000
  C   C1676     1.0  0.79793  0.07095  0.40231  1.0000
  C   C1677     1.0  0.81776  0.07628  0.39180  1.0000
  C   C1678     1.0  0.81753  0.08232  0.37043  1.0000
  C   C1679     1.0  0.79754  0.08304  0.35922  1.0000
  C   C1680     1.0  0.77772  0.07785  0.36977  1.0000
  C   C1681     1.0  0.77794  0.07170  0.39111  1.0000
  H   H1336     1.0  0.83328  0.07575  0.40013  1.0000
  H   H1337     1.0  0.83298  0.08650  0.36253  1.0000
  H   H1338     1.0  0.76216  0.07896  0.36156  1.0000
  H   H1339     1.0  0.76248  0.06762  0.39901  1.0000
  C   C1682     1.0  0.74594  0.22928  0.26295  1.0000
  H   H1340     1.0  0.83118  0.05908  0.31109  1.0000
  H   H1341     1.0  0.98067  0.14996  0.26432  1.0000
  C   C1683     1.0  0.66784  0.47485  0.34398  1.0000
  H   H1342     1.0  0.60733  0.48804  0.43818  1.0000
  H   H1343     1.0  0.80029  0.13254  0.35797  1.0000
  C   C1684     1.0  0.81267  0.01423  0.39598  1.0000
  H   H1344     1.0  0.68608  0.46231  0.39273  1.0000
  H   H1345     1.0  0.90063  0.25108  0.28598  1.0000
  C   C1685     1.0  0.73542  0.19859  0.45530  1.0000
  C   C1686     1.0  0.67553  0.30216  0.33351  1.0000
  P   P56       1.0  0.64850  0.48484  0.41277  1.0000
  C   C1687     1.0  0.93924  0.06973  0.44711  1.0000
  C   C1688     1.0  0.58119  0.35157  0.32079  1.0000
  C   C1689     1.0  0.60069  0.33208  0.29342  1.0000
  C   C1690     1.0  0.63396  0.32717  0.38361  1.0000
  C   C1691     1.0  0.63771  0.34356  0.36803  1.0000
  C   C1692     1.0  0.75829  0.18129  0.42875  1.0000
  C   C1693     1.0  0.73987  0.03791  0.35620  1.0000
  C   C1694     1.0  0.73766  0.17022  0.25543  1.0000
  H   H1346     1.0  0.60919  0.48978  0.47611  1.0000
  H   H1347     1.0  0.81367  0.10747  0.42955  1.0000
  C   C1695     1.0  0.81277  0.16156  0.44437  1.0000
  C   C1696     1.0  0.52580  0.41531  0.43820  1.0000
  H   H1348     1.0  0.85338  0.11121  0.43785  1.0000
  C   C1697     1.0  0.96506  0.23528  0.28924  1.0000
  C   C1698     1.0  0.64797  0.48601  0.34900  1.0000
  C   C1699     1.0  0.63591  0.36615  0.37313  1.0000
  H   H1349     1.0  0.93085  0.13303  0.46053  1.0000
  H   H1350     1.0  0.68291  0.38186  0.28712  1.0000
  H   H1351     1.0  0.62192  0.36033  0.42447  1.0000
  C   C1700     1.0  0.76472  0.13627  0.36070  1.0000
  H   H1352     1.0  0.77691  0.22585  0.29485  1.0000
  H   H1353     1.0  0.62881  0.38964  0.39724  1.0000
  C   C1701     1.0  0.62852  0.33331  0.40389  1.0000
  H   H1354     1.0  0.63849  0.37907  0.36131  1.0000
  C   C1702     1.0  0.67013  0.49439  0.44926  1.0000
  H   H1355     1.0  0.65242  0.35867  0.30033  1.0000
  C   C1703     1.0  0.71021  0.24080  0.27782  1.0000
  C   C1704     1.0  0.74908  0.16069  0.46054  1.0000
  C   C1705     1.0  0.62658  0.35577  0.40879  1.0000
  C   C1706     1.0  0.81954  0.12323  0.43491  1.0000
  H   H1356     1.0  0.78526  0.16353  0.26356  1.0000
  C   C1707     1.0  0.51250  0.31792  0.41726  1.0000
  S   S236      1.0  0.59461  0.35314  0.48087  1.0000
  C   C1708     1.0  0.73702  0.26862  0.26726  1.0000
  H   H1357     1.0  0.80650  0.13288  0.39553  1.0000
  H   H1358     1.0  0.86735  0.14676  0.45068  1.0000
  C   C1709     1.0  0.68147  0.46629  0.35979  1.0000
  C   C1710     1.0  0.97933  0.25298  0.28472  1.0000
  H   H1359     1.0  0.73566  0.14083  0.40610  1.0000
  C   C1711     1.0  0.97382  0.26882  0.26928  1.0000
  H   H1360     1.0  0.69684  0.45756  0.35589  1.0000
  H   H1361     1.0  0.74492  0.21477  0.42632  1.0000
  H   H1362     1.0  0.68750  0.31504  0.33013  1.0000
  H   H1363     1.0  0.62134  0.29402  0.34756  1.0000
  P   P57       1.0  0.92740  0.20976  0.28330  1.0000
  C   C1712     1.0  0.89838  0.21617  0.27866  1.0000
  Fe  Fe118     1.0  0.56896  0.38086  0.47982  1.0000
  H   H1364     1.0  0.93319  0.22093  0.35890  1.0000
  H   H1365     1.0  0.52046  0.34099  0.24529  1.0000
  Fe  Fe119     1.0  0.86639  0.07957  0.47373  1.0000
  C   C1713     1.0  0.83530  0.16352  0.44917  1.0000
  H   H1366     1.0  0.92381  0.02132  0.47116  1.0000
  C   C1714     1.0  0.88373  0.19918  0.27365  1.0000
  C   C1715     1.0  0.86115  0.20399  0.27056  1.0000
  C   C1716     1.0  0.85295  0.22571  0.27272  1.0000
  C   C1717     1.0  0.86729  0.24261  0.27820  1.0000
  C   C1718     1.0  0.88987  0.23783  0.28140  1.0000
  C   C1719     1.0  0.92822  0.20061  0.31020  1.0000
  C   C1720     1.0  0.67173  0.49430  0.42750  1.0000
  C   C1721     1.0  0.81768  0.03311  0.33098  1.0000
  C   C1722     1.0  0.61001  0.47227  0.48046  1.0000
  H   H1367     1.0  0.83550  0.22945  0.27012  1.0000
  C   C1723     1.0  0.93064  0.21610  0.32595  1.0000
  C   C1724     1.0  0.71604  0.26313  0.27532  1.0000
  C   C1725     1.0  0.81893  0.03198  0.29340  1.0000
  C   C1726     1.0  0.68292  0.37590  0.30319  1.0000
  C   C1727     1.0  0.70042  0.38127  0.31611  1.0000
  H   H1368     1.0  0.67688  0.33365  0.27166  1.0000
  C   C1728     1.0  0.66645  0.33361  0.25811  1.0000
  C   C1729     1.0  0.61150  0.42693  0.49226  1.0000
  H   H1369     1.0  0.88971  0.18222  0.27184  1.0000
  C   C1730     1.0  0.75906  0.00385  0.38072  1.0000
  H   H1370     1.0  0.95061  0.27825  0.24527  1.0000
  C   C1731     1.0  0.95529  0.12228  0.48310  1.0000
  H   H1371     1.0  0.63327  0.25481  0.34400  1.0000
  H   H1372     1.0  0.71989  0.20685  0.27349  1.0000
  H   H1373     1.0  0.65243  0.41501  0.45557  1.0000
  H   H1374     1.0  0.71175  0.03562  0.37718  1.0000
  C   C1732     1.0  0.51173  0.40130  0.42768  1.0000
  H   H1375     1.0  0.93218  0.23369  0.32212  1.0000
  H   H1376     1.0  0.65549  0.48800  0.45727  1.0000
  H   H1377     1.0  0.71389  0.39146  0.31005  1.0000
  H   H1378     1.0  0.84147  0.17904  0.45485  1.0000
  C   C1733     1.0  0.79448  0.19978  0.31154  1.0000
  C   C1734     1.0  0.65357  0.30752  0.33966  1.0000
  H   H1379     1.0  0.71426  0.37738  0.34670  1.0000
  H   H1380     1.0  0.60084  0.32484  0.27816  1.0000
  C   C1735     1.0  0.76125  0.02986  0.35134  1.0000
  H   H1381     1.0  0.65147  0.24912  0.25510  1.0000
  C   C1736     1.0  0.74992  0.13901  0.39576  1.0000
  H   H1382     1.0  0.76216  0.13534  0.34409  1.0000
  H   H1383     1.0  0.68392  0.35355  0.36028  1.0000
  C   C1737     1.0  0.76788  0.08772  0.47524  1.0000
  C   C1738     1.0  0.92525  0.17805  0.31566  1.0000
  H   H1384     1.0  0.59922  0.35616  0.34874  1.0000
  C   C1739     1.0  0.76640  0.11281  0.44493  1.0000
  H   H1385     1.0  0.98505  0.05757  0.47561  1.0000
  C   C1740     1.0  0.77937  0.19579  0.27702  1.0000
  C   C1741     1.0  0.61952  0.33015  0.30586  1.0000
  C   C1742     1.0  0.80816  0.01153  0.29427  1.0000
  C   C1743     1.0  0.58147  0.34268  0.30093  1.0000
  C   C1744     1.0  0.73782  0.01216  0.38568  1.0000
  H   H1386     1.0  0.96509  0.17864  0.28739  1.0000
  H   H1387     1.0  0.85918  0.14593  0.25446  1.0000
  C   C1745     1.0  0.92622  0.05142  0.45272  1.0000
  C   C1746     1.0  0.74655  0.13848  0.37430  1.0000
  H   H1388     1.0  0.76657  0.18243  0.41370  1.0000
  C   C1747     1.0  0.96607  0.15953  0.25964  1.0000
  H   H1389     1.0  0.51377  0.32118  0.45050  1.0000
  H   H1390     1.0  0.80542  0.14781  0.29372  1.0000
  C   C1748     1.0  0.84992  0.14539  0.44679  1.0000
  H   H1391     1.0  0.82080  0.04211  0.34499  1.0000
  P   P58       1.0  0.77557  0.13800  0.43159  1.0000
  H   H1392     1.0  0.78696  0.11747  0.47185  1.0000
  C   C1749     1.0  0.70061  0.37332  0.33672  1.0000
  H   H1393     1.0  0.56602  0.35902  0.32689  1.0000
  H   H1394     1.0  0.67268  0.47278  0.32784  1.0000
  C   C1750     1.0  0.78297  0.20880  0.29444  1.0000
  H   H1395     1.0  0.86093  0.25946  0.27986  1.0000
  H   H1396     1.0  0.97006  0.22270  0.30067  1.0000
  H   H1397     1.0  0.80178  0.17577  0.44645  1.0000
  C   C1751     1.0  0.60013  0.34985  0.33319  1.0000
  H   H1398     1.0  0.74761  0.05857  0.47416  1.0000
  C   C1752     1.0  0.66559  0.36260  0.31081  1.0000
  C   C1753     1.0  0.64520  0.26800  0.34143  1.0000
  H   H1399     1.0  0.74447  0.10240  0.42066  1.0000
  C   C1754     1.0  0.63037  0.37221  0.39343  1.0000
  H   H1400     1.0  0.63412  0.32143  0.30010  1.0000
  C   C1755     1.0  0.80472  0.14133  0.43722  1.0000
  H   H1401     1.0  0.90961  0.05005  0.44665  1.0000
  C   C1756     1.0  0.92561  0.17096  0.33654  1.0000
  C   C1757     1.0  0.51124  0.24243  0.24933  1.0000
  C   C1758     1.0  0.93834  0.18839  0.26669  1.0000
  C   C1759     1.0  0.51701  0.43014  0.45262  1.0000
  C   C1760     1.0  0.94005  0.24895  0.26244  1.0000
  C   C1761     1.0  0.64190  0.48897  0.36983  1.0000
  H   H1402     1.0  0.72984  0.13958  0.36818  1.0000
  C   C1762     1.0  0.68335  0.35990  0.34438  1.0000
  C   C1763     1.0  0.73694  0.17913  0.46763  1.0000
  C   C1764     1.0  0.96052  0.07162  0.45529  1.0000
  C   C1765     1.0  0.92864  0.18639  0.35210  1.0000
  H   H1403     1.0  0.51954  0.27640  0.25489  1.0000
  C   C1766     1.0  0.64299  0.42475  0.44422  1.0000
  C   C1767     1.0  0.63848  0.29025  0.34346  1.0000
  C   C1768     1.0  0.66692  0.26281  0.33503  1.0000
  C   C1769     1.0  0.78768  0.17382  0.27688  1.0000
  C   C1770     1.0  0.71387  0.49830  0.24606  1.0000
  C   C1771     1.0  0.59427  0.43499  0.47960  1.0000
  C   C1772     1.0  0.95571  0.03682  0.47495  1.0000
  H   H1404     1.0  0.52812  0.44048  0.46120  1.0000
  C   C1773     1.0  0.93438  0.12171  0.47346  1.0000
  P   P59       1.0  0.64410  0.33619  0.34148  1.0000
  H   H1405     1.0  0.61543  0.40220  0.44481  1.0000
  C   C1774     1.0  0.96877  0.05527  0.46915  1.0000
  C   C1775     1.0  0.77152  0.13697  0.40380  1.0000
  H   H1406     1.0  0.92345  0.15351  0.34068  1.0000
  C   C1776     1.0  0.75246  0.07391  0.46621  1.0000
  C   C1777     1.0  0.63857  0.45823  0.42250  1.0000
  H   H1407     1.0  0.73810  0.17092  0.27220  1.0000
  H   H1408     1.0  0.60795  0.46036  0.40518  1.0000
  H   H1409     1.0  0.70428  0.27614  0.27965  1.0000
  H   H1410     1.0  0.76835  0.25649  0.25561  1.0000
  C   C1778     1.0  0.84204  0.12531  0.43956  1.0000
  C   C1779     1.0  0.74611  0.19968  0.43588  1.0000
  C   C1780     1.0  0.61793  0.45049  0.41598  1.0000
  C   C1781     1.0  0.60971  0.43026  0.42390  1.0000
  C   C1782     1.0  0.62220  0.41745  0.43808  1.0000
  C   C1783     1.0  0.95713  0.17573  0.27273  1.0000
  C   C1784     1.0  0.65127  0.44495  0.43636  1.0000
  C   C1785     1.0  0.80255  0.17781  0.31132  1.0000
  C   C1786     1.0  0.65583  0.48094  0.38579  1.0000
  H   H1411     1.0  0.75000  0.14581  0.47035  1.0000
  H   H1412     1.0  0.57769  0.26256  0.46722  1.0000
  C   C1787     1.0  0.66566  0.35444  0.33149  1.0000
  H   H1413     1.0  0.79709  0.20980  0.32501  1.0000
  C   C1788     1.0  0.85765  0.00692  0.38617  1.0000
  H   H1414     1.0  0.54365  0.41423  0.43564  1.0000
  H   H1415     1.0  0.92898  0.18086  0.36828  1.0000
  H   H1416     1.0  0.67176  0.24555  0.33270  1.0000
  C   C1789     1.0  0.79922  0.16488  0.29395  1.0000
  H   H1417     1.0  0.79552  0.01771  0.40018  1.0000
  H   H1418     1.0  0.59336  0.42476  0.41961  1.0000
  H   H1419     1.0  0.66742  0.45019  0.44141  1.0000
  H   H1420     1.0  0.74161  0.28595  0.26555  1.0000
  H   H1421     1.0  0.00033  0.19718  0.26089  1.0000
  H   H1422     1.0  0.66645  0.21047  0.25504  1.0000
  C   C1790     1.0  0.91805  0.10665  0.48045  1.0000
  C   C1791     1.0  0.75978  0.16162  0.44099  1.0000
  H   H1423     1.0  0.56661  0.34340  0.29159  1.0000
  C   C1792     1.0  0.72822  0.02918  0.37340  1.0000
  H   H1424     1.0  0.76995  0.03714  0.33803  1.0000
  Fe  Fe120     1.0  0.86159  0.02948  0.47073  1.0000
  H   H1425     1.0  0.82287  0.03984  0.27848  1.0000
  H   H1426     1.0  0.69396  0.23652  0.28422  1.0000
  S   S237      1.0  0.89178  0.10695  0.46817  1.0000
  C   C1793     1.0  0.75083  0.09886  0.43601  1.0000
  C   C1794     1.0  0.72503  0.22395  0.27161  1.0000
  C   C1795     1.0  0.74388  0.07951  0.44666  1.0000
  C   C1796     1.0  0.82367  0.04276  0.31174  1.0000
  H   H1427     1.0  0.73241  0.06846  0.43943  1.0000
  C   C1797     1.0  0.82564  0.13853  0.24561  1.0000
  H   H1428     1.0  0.72594  0.21283  0.46080  1.0000
  C   C1798     1.0  0.75204  0.25180  0.26138  1.0000
  H   H1429     1.0  0.77489  0.08310  0.49022  1.0000
  P   P60       1.0  0.76499  0.20739  0.25467  1.0000
  H   H1430     1.0  0.85013  0.19084  0.26621  1.0000
  H   H1431     1.0  0.63734  0.49249  0.33672  1.0000
  H   H1432     1.0  0.72867  0.17828  0.48270  1.0000
  H   H1433     1.0  0.80360  0.00374  0.27998  1.0000
  H   H1434     1.0  0.96764  0.13408  0.47769  1.0000
  H   H1435     1.0  0.99511  0.25391  0.29259  1.0000
  H   H1436     1.0  0.82260  0.12746  0.25885  1.0000
  C   C1799     1.0  0.92918  0.18520  0.24710  1.0000
  C   C1800     1.0  0.50724  0.32806  0.43602  1.0000
  Fe  Fe121     1.0  0.53088  0.34948  0.48914  1.0000
  H   H1437     1.0  0.65728  0.43130  0.24775  1.0000
  C   C1801     1.0  0.50777  0.26554  0.24788  1.0000
  H   H1438     1.0  0.55358  0.31595  0.24846  1.0000
  C   C1802     1.0  0.81876  0.00725  0.37600  1.0000
  H   H1439     1.0  0.72879  0.00539  0.39903  1.0000
  C   C1803     1.0  0.67351  0.22301  0.24457  1.0000
  H   H1440     1.0  0.98523  0.28210  0.26528  1.0000
  C   C1804     1.0  0.72548  0.15343  0.24646  1.0000
  H   H1441     1.0  0.86388  0.01543  0.41793  1.0000
  H   H1442     1.0  0.50861  0.31919  0.38408  1.0000
  C   C1805     1.0  0.58367  0.26534  0.48275  1.0000
  S   S238      1.0  0.55372  0.31941  0.49100  1.0000
  C   C1806     1.0  0.60123  0.27990  0.48540  1.0000
  C   C1807     1.0  0.50428  0.32700  0.39863  1.0000
  C   C1808     1.0  0.84144  0.00388  0.37115  1.0000
  S   S239      1.0  0.69110  0.36910  0.24403  1.0000
  C   C1809     1.0  0.66501  0.24481  0.24454  1.0000
  C   C1810     1.0  0.62721  0.46425  0.49314  1.0000
  C   C1811     1.0  0.00129  0.21231  0.25147  1.0000
  Fe  Fe122     1.0  0.83181  0.05565  0.50134  1.0000
  S   S240      1.0  0.81525  0.04937  0.53350  1.0000
  C   C1812     1.0  0.66573  0.23578  0.73422  1.0000
  Fe  Fe123     1.0  0.61234  0.23069  0.67628  1.0000
  S   S241      1.0  0.62537  0.26245  0.66166  1.0000
  S   S242      1.0  0.62986  0.19845  0.66525  1.0000
  Fe  Fe124     1.0  0.57485  0.25595  0.70074  1.0000
  S   S243      1.0  0.58714  0.28917  0.68815  1.0000
  S   S244      1.0  0.54484  0.26054  0.72357  1.0000
  Fe  Fe125     1.0  0.58970  0.27307  0.65691  1.0000
  S   S245      1.0  0.57220  0.29121  0.62954  1.0000
  Fe  Fe126     1.0  0.62172  0.27595  0.69390  1.0000
  S   S246      1.0  0.65310  0.29185  0.70582  1.0000
  S   S247      1.0  0.57633  0.24022  0.66921  1.0000
  S   S248      1.0  0.60988  0.24384  0.70875  1.0000
  Fe  Fe127     1.0  0.77102  0.09725  0.64706  1.0000
  S   S249      1.0  0.74015  0.08405  0.66359  1.0000
  S   S250      1.0  0.77731  0.10342  0.61185  1.0000
  Fe  Fe128     1.0  0.79136  0.11083  0.68861  1.0000
  S   S251      1.0  0.76252  0.09796  0.70781  1.0000
  S   S252      1.0  0.82277  0.12842  0.69832  1.0000
  Fe  Fe129     1.0  0.76381  0.06806  0.68712  1.0000
  S   S253      1.0  0.76348  0.03014  0.69531  1.0000
  Fe  Fe130     1.0  0.74081  0.11491  0.68322  1.0000
  S   S254      1.0  0.71350  0.13870  0.69636  1.0000
  S   S255      1.0  0.79443  0.08006  0.66941  1.0000
  S   S256      1.0  0.76992  0.12892  0.66524  1.0000
  Fe  Fe131     1.0  0.57589  0.34087  0.50973  1.0000
  S   S257      1.0  0.59662  0.32791  0.53749  1.0000
  S   S258      1.0  0.55182  0.37009  0.50975  1.0000
  H   H1443     1.0  0.59199  0.49758  0.51326  1.0000
  C   C1813     1.0  0.58070  0.25931  0.52022  1.0000
  C   C1814     1.0  0.60860  0.28416  0.50536  1.0000
  C   C1815     1.0  0.61242  0.17953  0.72984  1.0000
  H   H1444     1.0  0.58134  0.20088  0.54864  1.0000
  H   H1445     1.0  0.71995  0.05715  0.72491  1.0000
  C   C1816     1.0  0.55425  0.22149  0.53654  1.0000
  H   H1446     1.0  0.93156  0.04398  0.51454  1.0000
  C   C1817     1.0  0.78770  0.20841  0.70494  1.0000
  H   H1447     1.0  0.56485  0.16548  0.53897  1.0000
  H   H1448     1.0  0.84365  0.25323  0.73111  1.0000
  H   H1449     1.0  0.56661  0.19884  0.70414  1.0000
  C   C1818     1.0  0.70259  0.44526  0.63746  1.0000
  C   C1819     1.0  0.75935  0.01071  0.71672  1.0000
  C   C1820     1.0  0.54945  0.46305  0.52616  1.0000
  S   S259      1.0  0.98504  0.10963  0.51408  1.0000
  C   C1821     1.0  0.82727  0.14236  0.72181  1.0000
  H   H1450     1.0  0.80458  0.21408  0.70681  1.0000
  C   C1822     1.0  0.98339  0.21045  0.72535  1.0000
  H   H1451     1.0  0.71231  0.02685  0.70085  1.0000
  C   C1823     1.0  0.58568  0.24357  0.56404  1.0000
  C   C1824     1.0  0.61969  0.01839  0.63942  1.0000
  H   H1452     1.0  0.69006  0.30555  0.72939  1.0000
  C   C1825     1.0  0.57971  0.30160  0.60417  1.0000
  C   C1826     1.0  0.56329  0.31246  0.59201  1.0000
  C   C1827     1.0  0.56821  0.32084  0.57177  1.0000
  C   C1828     1.0  0.58955  0.31809  0.56317  1.0000
  C   C1829     1.0  0.60604  0.30736  0.57538  1.0000
  C   C1830     1.0  0.60121  0.29924  0.59575  1.0000
  H   H1453     1.0  0.54663  0.31450  0.59833  1.0000
  H   H1454     1.0  0.55554  0.32956  0.56286  1.0000
  H   H1455     1.0  0.62267  0.30529  0.56901  1.0000
  H   H1456     1.0  0.61406  0.29099  0.60484  1.0000
  C   C1831     1.0  0.50345  0.26507  0.74288  1.0000
  C   C1832     1.0  0.56545  0.20124  0.54096  1.0000
  C   C1833     1.0  0.68586  0.37186  0.70766  1.0000
  H   H1457     1.0  0.72336  0.44389  0.67743  1.0000
  H   H1458     1.0  0.64056  0.47159  0.63792  1.0000
  C   C1834     1.0  0.62817  0.03168  0.62309  1.0000
  S   S260      1.0  0.64793  0.48218  0.50205  1.0000
  H   H1459     1.0  0.74643  0.24571  0.66196  1.0000
  C   C1835     1.0  0.68320  0.47668  0.71347  1.0000
  C   C1836     1.0  0.52345  0.30142  0.54634  1.0000
  C   C1837     1.0  0.65430  0.18354  0.67384  1.0000
  C   C1838     1.0  0.66122  0.18338  0.69453  1.0000
  C   C1839     1.0  0.67928  0.16958  0.70100  1.0000
  C   C1840     1.0  0.69115  0.15615  0.68687  1.0000
  C   C1841     1.0  0.68472  0.15687  0.66605  1.0000
  C   C1842     1.0  0.66635  0.17031  0.65966  1.0000
  H   H1460     1.0  0.65243  0.19363  0.70561  1.0000
  H   H1461     1.0  0.68400  0.16912  0.71713  1.0000
  H   H1462     1.0  0.69375  0.14694  0.65491  1.0000
  H   H1463     1.0  0.66140  0.17039  0.64358  1.0000
  C   C1843     1.0  0.70505  0.04330  0.69805  1.0000
  H   H1464     1.0  0.60376  0.27823  0.53806  1.0000
  C   C1844     1.0  0.57119  0.47010  0.52230  1.0000
  H   H1465     1.0  0.50874  0.20090  0.51284  1.0000
  C   C1845     1.0  0.80565  0.06502  0.55529  1.0000
  C   C1846     1.0  0.79990  0.08765  0.55360  1.0000
  C   C1847     1.0  0.79138  0.09903  0.57106  1.0000
  C   C1848     1.0  0.78860  0.08806  0.59054  1.0000
  C   C1849     1.0  0.79449  0.06544  0.59229  1.0000
  C   C1850     1.0  0.80280  0.05403  0.57477  1.0000
  H   H1466     1.0  0.80163  0.09629  0.53873  1.0000
  H   H1467     1.0  0.78682  0.11647  0.56942  1.0000
  H   H1468     1.0  0.79242  0.05667  0.60707  1.0000
  H   H1469     1.0  0.80701  0.03649  0.57632  1.0000
  H   H1470     1.0  0.68097  0.48403  0.61984  1.0000
  H   H1471     1.0  0.60075  0.17579  0.69861  1.0000
  C   C1851     1.0  0.73701  0.50086  0.65845  1.0000
  C   C1852     1.0  0.84701  0.15433  0.72383  1.0000
  H   H1472     1.0  0.64128  0.43517  0.50865  1.0000
  C   C1853     1.0  0.67913  0.38502  0.69045  1.0000
  H   H1473     1.0  0.65084  0.24623  0.73454  1.0000
  H   H1474     1.0  0.54650  0.44578  0.53051  1.0000
  H   H1475     1.0  0.71287  0.42811  0.71195  1.0000
  H   H1476     1.0  0.69531  0.23415  0.61772  1.0000
  H   H1477     1.0  0.52161  0.21748  0.72044  1.0000
  C   C1854     1.0  0.72452  0.37669  0.69773  1.0000
  C   C1855     1.0  0.71797  0.38941  0.68028  1.0000
  C   C1856     1.0  0.69535  0.39355  0.67663  1.0000
  C   C1857     1.0  0.69312  0.22870  0.67046  1.0000
  C   C1858     1.0  0.68911  0.48581  0.69399  1.0000
  H   H1478     1.0  0.69452  0.41464  0.62271  1.0000
  C   C1859     1.0  0.94359  0.09292  0.50702  1.0000
  C   C1860     1.0  0.63538  0.32967  0.66510  1.0000
  P   P61       1.0  0.72449  0.23557  0.70153  1.0000
  C   C1861     1.0  0.74430  0.26791  0.72524  1.0000
  C   C1862     1.0  0.73934  0.50060  0.72815  1.0000
  C   C1863     1.0  0.74798  0.21636  0.70226  1.0000
  H   H1479     1.0  0.52499  0.23663  0.52239  1.0000
  C   C1864     1.0  0.90843  0.02173  0.52951  1.0000
  H   H1480     1.0  0.71147  0.27932  0.68335  1.0000
  H   H1481     1.0  0.86609  0.11125  0.50416  1.0000
  H   H1482     1.0  0.52855  0.16526  0.52109  1.0000
  C   C1865     1.0  0.55614  0.18105  0.53548  1.0000
  C   C1866     1.0  0.64742  0.41688  0.67124  1.0000
  H   H1483     1.0  0.72402  0.41846  0.59554  1.0000
  H   H1484     1.0  0.73045  0.39624  0.66971  1.0000
  H   H1485     1.0  0.69062  0.40353  0.66315  1.0000
  C   C1867     1.0  0.64354  0.43577  0.63752  1.0000
  C   C1868     1.0  0.62206  0.23097  0.57626  1.0000
  P   P62       1.0  0.56636  0.24780  0.54286  1.0000
  H   H1486     1.0  0.61256  0.23179  0.54421  1.0000
  C   C1869     1.0  0.71165  0.45296  0.68707  1.0000
  H   H1487     1.0  0.71928  0.31766  0.69322  1.0000
  C   C1870     1.0  0.76989  0.22374  0.70459  1.0000
  H   H1488     1.0  0.68952  0.03432  0.66976  1.0000
  C   C1871     1.0  0.82924  0.24942  0.74081  1.0000
  C   C1872     1.0  0.52451  0.20099  0.52081  1.0000
  H   H1489     1.0  0.61845  0.12885  0.68819  1.0000
  C   C1873     1.0  0.61563  0.33364  0.65435  1.0000
  C   C1874     1.0  0.85680  0.02760  0.56342  1.0000
  C   C1875     1.0  0.85791  0.01598  0.58246  1.0000
  C   C1876     1.0  0.86457  0.02689  0.60018  1.0000
  C   C1877     1.0  0.86999  0.04947  0.59886  1.0000
  C   C1878     1.0  0.86851  0.06137  0.57980  1.0000
  C   C1879     1.0  0.86217  0.05017  0.56205  1.0000
  P   P63       1.0  0.87625  0.09034  0.57815  1.0000
  C   C1880     1.0  0.86804  0.10284  0.60238  1.0000
  C   C1881     1.0  0.90588  0.09218  0.57312  1.0000
  C   C1882     1.0  0.91469  0.11175  0.56407  1.0000
  C   C1883     1.0  0.93724  0.11269  0.55846  1.0000
  C   C1884     1.0  0.95123  0.09424  0.56209  1.0000
  C   C1885     1.0  0.94270  0.07482  0.57138  1.0000
  C   C1886     1.0  0.92011  0.07375  0.57687  1.0000
  C   C1887     1.0  0.88249  0.11668  0.61290  1.0000
  C   C1888     1.0  0.87576  0.12604  0.63173  1.0000
  C   C1889     1.0  0.85458  0.12175  0.64009  1.0000
  C   C1890     1.0  0.84011  0.10811  0.62962  1.0000
  C   C1891     1.0  0.84683  0.09857  0.61094  1.0000
  C   C1892     1.0  0.86223  0.10469  0.55685  1.0000
  C   C1893     1.0  0.84427  0.11946  0.56042  1.0000
  C   C1894     1.0  0.83426  0.13106  0.54379  1.0000
  C   C1895     1.0  0.84205  0.12801  0.52350  1.0000
  C   C1896     1.0  0.85997  0.11352  0.51985  1.0000
  C   C1897     1.0  0.87005  0.10191  0.53639  1.0000
  H   H1490     1.0  0.85114  0.01933  0.54972  1.0000
  P   P64       1.0  0.71150  0.48583  0.65544  1.0000
  H   H1491     1.0  0.62047  0.32192  0.72498  1.0000
  H   H1492     1.0  0.87517  0.05764  0.61274  1.0000
  H   H1493     1.0  0.86077  0.05881  0.54718  1.0000
  H   H1494     1.0  0.90402  0.12609  0.56079  1.0000
  H   H1495     1.0  0.94381  0.12748  0.55067  1.0000
  H   H1496     1.0  0.96853  0.09490  0.55715  1.0000
  H   H1497     1.0  0.95352  0.06044  0.57394  1.0000
  H   H1498     1.0  0.91379  0.05840  0.58366  1.0000
  H   H1499     1.0  0.89889  0.12025  0.60664  1.0000
  H   H1500     1.0  0.88690  0.13669  0.63988  1.0000
  H   H1501     1.0  0.84929  0.12899  0.65468  1.0000
  H   H1502     1.0  0.82356  0.10500  0.63591  1.0000
  H   H1503     1.0  0.83535  0.08807  0.60302  1.0000
  H   H1504     1.0  0.83771  0.12203  0.57590  1.0000
  H   H1505     1.0  0.82022  0.14214  0.54667  1.0000
  C   C1898     1.0  0.68317  0.24123  0.72052  1.0000
  P   P65       1.0  0.64992  0.39141  0.68679  1.0000
  H   H1506     1.0  0.88399  0.09082  0.53316  1.0000
  C   C1899     1.0  0.64581  0.34706  0.67503  1.0000
  H   H1507     1.0  0.75851  0.46988  0.72632  1.0000
  C   C1900     1.0  0.52735  0.25878  0.56454  1.0000
  C   C1901     1.0  0.69214  0.04762  0.68044  1.0000
  H   H1508     1.0  0.89772  0.03507  0.53494  1.0000
  H   H1509     1.0  0.68762  0.44908  0.73518  1.0000
  H   H1510     1.0  0.67306  0.48634  0.72411  1.0000
  H   H1511     1.0  0.66082  0.34334  0.68363  1.0000
  H   H1512     1.0  0.64216  0.43505  0.62077  1.0000
  C   C1902     1.0  0.64610  0.41611  0.64948  1.0000
  H   H1513     1.0  0.52858  0.24224  0.57161  1.0000
  H   H1514     1.0  0.55410  0.29398  0.53043  1.0000
  C   C1903     1.0  0.69142  0.45570  0.71972  1.0000
  C   C1904     1.0  0.98364  0.04083  0.52575  1.0000
  C   C1905     1.0  0.60724  0.23518  0.55998  1.0000
  H   H1515     1.0  0.71340  0.35813  0.72499  1.0000
  C   C1906     1.0  0.51791  0.25067  0.73190  1.0000
  C   C1907     1.0  0.57809  0.19582  0.71679  1.0000
  C   C1908     1.0  0.60616  0.35503  0.65360  1.0000
  H   H1516     1.0  0.77348  0.24122  0.70577  1.0000
  C   C1909     1.0  0.61548  0.23504  0.59674  1.0000
  C   C1910     1.0  0.94159  0.00956  0.51061  1.0000
  C   C1911     1.0  0.73977  0.30771  0.71917  1.0000
  C   C1912     1.0  0.57340  0.25506  0.50007  1.0000
  H   H1517     1.0  0.62689  0.23182  0.60942  1.0000
  C   C1913     1.0  0.72952  0.24097  0.65874  1.0000
  C   C1914     1.0  0.59836  0.27397  0.52270  1.0000
  C   C1915     1.0  0.70844  0.36785  0.71136  1.0000
  H   H1518     1.0  0.99024  0.12774  0.58025  1.0000
  C   C1916     1.0  0.61535  0.38802  0.71632  1.0000
  C   C1917     1.0  0.76224  0.17842  0.69952  1.0000
  H   H1519     1.0  0.68152  0.25575  0.71033  1.0000
  H   H1520     1.0  0.50223  0.37726  0.55582  1.0000
  C   C1918     1.0  0.68612  0.22848  0.64985  1.0000
  H   H1521     1.0  0.60832  0.00511  0.63624  1.0000
  C   C1919     1.0  0.70077  0.23446  0.63368  1.0000
  H   H1522     1.0  0.91050  0.08032  0.50260  1.0000
  H   H1523     1.0  0.66930  0.22351  0.64647  1.0000
  H   H1524     1.0  0.74834  0.45147  0.59467  1.0000
  C   C1920     1.0  0.70570  0.44389  0.70657  1.0000
  C   C1921     1.0  0.64712  0.43770  0.68072  1.0000
  H   H1525     1.0  0.55949  0.21629  0.73779  1.0000
  C   C1922     1.0  0.53375  0.22120  0.52631  1.0000
  C   C1923     1.0  0.72248  0.24066  0.63812  1.0000
  H   H1526     1.0  0.58505  0.45836  0.52366  1.0000
  H   H1527     1.0  0.59067  0.35792  0.64545  1.0000
  H   H1528     1.0  0.70522  0.09531  0.71763  1.0000
  C   C1924     1.0  0.63279  0.13151  0.63692  1.0000
  C   C1925     1.0  0.62274  0.13742  0.65573  1.0000
  C   C1926     1.0  0.62626  0.12423  0.67363  1.0000
  C   C1927     1.0  0.63999  0.10523  0.67276  1.0000
  C   C1928     1.0  0.65097  0.09975  0.65413  1.0000
  C   C1929     1.0  0.64671  0.11265  0.63605  1.0000
  P   P66       1.0  0.66813  0.07482  0.65284  1.0000
  C   C1930     1.0  0.68338  0.06911  0.67639  1.0000
  C   C1931     1.0  0.64944  0.05252  0.64762  1.0000
  C   C1932     1.0  0.64047  0.03944  0.66400  1.0000
  C   C1933     1.0  0.73570  0.44961  0.60674  1.0000
  C   C1934     1.0  0.71650  0.46384  0.63725  1.0000
  H   H1529     1.0  0.79662  0.13273  0.73697  1.0000
  C   C1935     1.0  0.53158  0.47817  0.52421  1.0000
  C   C1936     1.0  0.60580  0.39065  0.73608  1.0000
  C   C1937     1.0  0.53568  0.18091  0.52542  1.0000
  C   C1938     1.0  0.72667  0.30378  0.70192  1.0000
  H   H1530     1.0  0.83419  0.13678  0.51056  1.0000
  C   C1939     1.0  0.68835  0.08631  0.68984  1.0000
  C   C1940     1.0  0.68943  0.07714  0.63287  1.0000
  C   C1941     1.0  0.69959  0.09767  0.62852  1.0000
  C   C1942     1.0  0.71705  0.09916  0.61396  1.0000
  C   C1943     1.0  0.72465  0.08014  0.60384  1.0000
  C   C1944     1.0  0.71494  0.05958  0.60837  1.0000
  C   C1945     1.0  0.69749  0.05802  0.62294  1.0000
  H   H1531     1.0  0.63002  0.14179  0.62308  1.0000
  H   H1532     1.0  0.61245  0.15239  0.65649  1.0000
  C   C1946     1.0  0.74853  0.28978  0.73085  1.0000
  C   C1947     1.0  0.72196  0.43103  0.60722  1.0000
  H   H1533     1.0  0.65418  0.10823  0.62129  1.0000
  H   H1534     1.0  0.64477  0.04245  0.67996  1.0000
  H   H1535     1.0  0.94705  0.08177  0.52005  1.0000
  H   H1536     1.0  0.60750  0.32009  0.64679  1.0000
  H   H1537     1.0  0.64917  0.05911  0.61439  1.0000
  H   H1538     1.0  0.62168  0.29609  0.50750  1.0000
  H   H1539     1.0  0.96703  0.04241  0.53219  1.0000
  C   C1948     1.0  0.70538  0.42887  0.62256  1.0000
  C   C1949     1.0  0.72239  0.28193  0.69628  1.0000
  H   H1540     1.0  0.68946  0.44363  0.64903  1.0000
  H   H1541     1.0  0.68309  0.10331  0.68641  1.0000
  H   H1542     1.0  0.69460  0.11237  0.63688  1.0000
  H   H1543     1.0  0.72536  0.11487  0.61106  1.0000
  H   H1544     1.0  0.73859  0.08125  0.59297  1.0000
  H   H1545     1.0  0.71909  0.19868  0.73305  1.0000
  H   H1546     1.0  0.69073  0.04180  0.62678  1.0000
  C   C1950     1.0  0.59416  0.24351  0.60090  1.0000
  H   H1547     1.0  0.56328  0.25513  0.58846  1.0000
  C   C1951     1.0  0.70112  0.08188  0.70751  1.0000
  H   H1548     1.0  0.64250  0.31298  0.66596  1.0000
  C   C1952     1.0  0.64289  0.04880  0.62717  1.0000
  H   H1549     1.0  0.51496  0.47227  0.52739  1.0000
  H   H1550     1.0  0.60879  0.38891  0.66291  1.0000
  C   C1953     1.0  0.62577  0.02233  0.65987  1.0000
  H   H1551     1.0  0.85892  0.15494  0.71107  1.0000
  H   H1552     1.0  0.79767  0.17389  0.70253  1.0000
  C   C1954     1.0  0.61656  0.37251  0.66343  1.0000
  C   C1955     1.0  0.59731  0.18284  0.71369  1.0000
  H   H1553     1.0  0.75083  0.25424  0.73471  1.0000
  C   C1956     1.0  0.92776  0.02673  0.51810  1.0000
  C   C1957     1.0  0.54159  0.28766  0.54121  1.0000
  C   C1958     1.0  0.54369  0.26622  0.55027  1.0000
  H   H1554     1.0  0.58918  0.24708  0.61675  1.0000
  H   H1555     1.0  0.67360  0.36497  0.71841  1.0000
  C   C1959     1.0  0.71486  0.23510  0.67508  1.0000
  C   C1960     1.0  0.73291  0.46604  0.62161  1.0000
  S   S261      1.0  0.86918  0.05154  0.49733  1.0000
  C   C1961     1.0  0.64476  0.45733  0.66870  1.0000
  H   H1556     1.0  0.74931  0.03477  0.73929  1.0000
  C   C1962     1.0  0.57937  0.24795  0.58467  1.0000
  C   C1963     1.0  0.63671  0.36876  0.67391  1.0000
  C   C1964     1.0  0.67578  0.31531  0.73431  1.0000
  H   H1557     1.0  0.86532  0.01792  0.61498  1.0000
  H   H1558     1.0  0.62333  0.02874  0.60725  1.0000
  H   H1559     1.0  0.63867  0.22457  0.57301  1.0000
  H   H1560     1.0  0.64218  0.09497  0.68669  1.0000
  H   H1561     1.0  0.74205  0.37381  0.70077  1.0000
  C   C1965     1.0  0.67853  0.49978  0.62735  1.0000
  C   C1966     1.0  0.73160  0.26379  0.70764  1.0000
  C   C1967     1.0  0.65498  0.31180  0.72535  1.0000
  C   C1968     1.0  0.51092  0.22885  0.72885  1.0000
  H   H1562     1.0  0.64692  0.40032  0.64170  1.0000
  H   H1563     1.0  0.64440  0.47334  0.67613  1.0000
  H   H1564     1.0  0.72783  0.18764  0.69630  1.0000
  C   C1969     1.0  0.62797  0.44151  0.49889  1.0000
  H   H1565     1.0  0.97385  0.19959  0.71586  1.0000
  H   H1566     1.0  0.55953  0.24427  0.49761  1.0000
  C   C1970     1.0  0.64271  0.45636  0.64715  1.0000
  C   C1971     1.0  0.95989  0.10805  0.50011  1.0000
  C   C1972     1.0  0.64894  0.40553  0.72778  1.0000
  C   C1973     1.0  0.70247  0.22786  0.71962  1.0000
  H   H1567     1.0  0.72139  0.04477  0.60097  1.0000
  H   H1568     1.0  0.68147  0.22373  0.68256  1.0000
  C   C1974     1.0  0.75196  0.01729  0.73640  1.0000
  H   H1569     1.0  0.60584  0.37991  0.70465  1.0000
  H   H1570     1.0  0.52194  0.31794  0.53918  1.0000
  C   C1975     1.0  0.74442  0.19365  0.69911  1.0000
  C   C1976     1.0  0.78386  0.18576  0.70250  1.0000
  C   C1977     1.0  0.70437  0.20919  0.73312  1.0000
  H   H1571     1.0  0.66579  0.41115  0.72500  1.0000
  H   H1572     1.0  0.75925  0.16088  0.69743  1.0000
  C   C1978     1.0  0.70947  0.06040  0.71160  1.0000
  H   H1573     1.0  0.73390  0.24512  0.62557  1.0000
  C   C1979     1.0  0.98784  0.02837  0.50791  1.0000
  H   H1574     1.0  0.74896  0.48048  0.68441  1.0000
  H   H1575     1.0  0.64863  0.43890  0.69738  1.0000
  C   C1980     1.0  0.70320  0.47394  0.68049  1.0000
  H   H1576     1.0  0.74342  0.48053  0.62068  1.0000
  C   C1981     1.0  0.63706  0.39536  0.71204  1.0000
  H   H1577     1.0  0.62742  0.16966  0.72729  1.0000
  C   C1982     1.0  0.50957  0.27280  0.57009  1.0000
  H   H1578     1.0  0.74283  0.32462  0.72373  1.0000
  C   C1983     1.0  0.50765  0.29413  0.56102  1.0000
  H   H1579     1.0  0.58924  0.38452  0.73943  1.0000
  H   H1580     1.0  0.99744  0.06237  0.54834  1.0000
  H   H1581     1.0  0.61907  0.01213  0.67254  1.0000
  C   C1984     1.0  0.74504  0.47840  0.73429  1.0000
  C   C1985     1.0  0.53535  0.50046  0.51805  1.0000
  C   C1986     1.0  0.75229  0.49437  0.67385  1.0000
  C   C1987     1.0  0.92284  0.09207  0.49716  1.0000
  H   H1582     1.0  0.61221  0.40947  0.49684  1.0000
  C   C1988     1.0  0.57509  0.49222  0.51632  1.0000
  C   C1989     1.0  0.63651  0.32429  0.73196  1.0000
  C   C1990     1.0  0.57404  0.20563  0.73597  1.0000
  C   C1991     1.0  0.81191  0.14180  0.73838  1.0000
  C   C1992     1.0  0.97282  0.22079  0.74238  1.0000
  H   H1583     1.0  0.83597  0.21405  0.74178  1.0000
  C   C1993     1.0  0.00090  0.05219  0.53503  1.0000
  C   C1994     1.0  0.85158  0.16540  0.74227  1.0000
  P   P67       1.0  0.96524  0.01624  0.49399  1.0000
  H   H1584     1.0  0.75248  0.16921  0.74214  1.0000
  H   H1585     1.0  0.94549  0.12485  0.74224  1.0000
  H   H1586     1.0  0.78339  0.50152  0.68838  1.0000
  C   C1995     1.0  0.78124  0.40130  0.86050  1.0000
  H   H1587     1.0  0.80470  0.20539  0.76526  1.0000
  S   S262      1.0  0.94218  0.11778  0.95930  1.0000
  H   H1588     1.0  0.52143  0.26554  0.79674  1.0000
  H   H1589     1.0  0.76293  0.28008  0.79590  1.0000
  Fe  Fe132     1.0  0.91563  0.14415  0.96369  1.0000
  S   S263      1.0  0.89474  0.15878  0.93665  1.0000
  C   C1996     1.0  0.58911  0.20235  0.75229  1.0000
  H   H1590     1.0  0.58012  0.25861  0.75287  1.0000
  Fe  Fe133     1.0  0.64331  0.41367  0.97250  1.0000
  H   H1591     1.0  0.50669  0.24035  0.89992  1.0000
  S   S264      1.0  0.65295  0.39398  0.94318  1.0000
  H   H1592     1.0  0.86816  0.33702  0.79830  1.0000
  H   H1593     1.0  0.90295  0.23384  0.97550  1.0000
  S   S265      1.0  0.61289  0.43630  0.97263  1.0000
  C   C1997     1.0  0.53114  0.22155  0.84696  1.0000
  C   C1998     1.0  0.80249  0.38724  0.79655  1.0000
  Fe  Fe134     1.0  0.90277  0.21681  0.81939  1.0000
  S   S266      1.0  0.91419  0.24591  0.79882  1.0000
  S   S267      1.0  0.92096  0.20778  0.84988  1.0000
  Fe  Fe135     1.0  0.87084  0.20120  0.78624  1.0000
  S   S268      1.0  0.88066  0.22829  0.76343  1.0000
  C   C1999     1.0  0.80981  0.40076  0.81243  1.0000
  Fe  Fe136     1.0  0.91637  0.22129  0.77293  1.0000
  C   C2000     1.0  0.53381  0.22378  0.88432  1.0000
  Fe  Fe137     1.0  0.87760  0.25103  0.79074  1.0000
  S   S269      1.0  0.85969  0.28494  0.78424  1.0000
  S   S270      1.0  0.90633  0.19214  0.79375  1.0000
  S   S271      1.0  0.86648  0.22404  0.81331  1.0000
  Fe  Fe138     1.0  0.74312  0.36529  0.80067  1.0000
  S   S272      1.0  0.70998  0.36248  0.81787  1.0000
  S   S273      1.0  0.76642  0.33434  0.80618  1.0000
  Fe  Fe139     1.0  0.72946  0.41188  0.78133  1.0000
  S   S274      1.0  0.69592  0.41147  0.79721  1.0000
  C   C2001     1.0  0.86035  0.02064  0.84380  1.0000
  Fe  Fe140     1.0  0.71338  0.39847  0.82606  1.0000
  S   S275      1.0  0.70668  0.41507  0.85766  1.0000
  Fe  Fe141     1.0  0.69486  0.37552  0.78807  1.0000
  Fe  Fe142     1.0  0.92482  0.09878  0.98523  1.0000
  S   S276      1.0  0.74754  0.40087  0.81072  1.0000
  S   S277      1.0  0.72731  0.37632  0.77033  1.0000
  H   H1594     1.0  0.83422  0.04987  0.89225  1.0000
  H   H1595     1.0  0.79968  0.45147  0.78891  1.0000
  C   C2002     1.0  0.62449  0.45813  0.87157  1.0000
  C   C2003     1.0  0.78016  0.23587  0.81158  1.0000
  H   H1596     1.0  0.75245  0.34411  0.85785  1.0000
  C   C2004     1.0  0.83292  0.29733  0.78982  1.0000
  C   C2005     1.0  0.81933  0.29009  0.80644  1.0000
  C   C2006     1.0  0.79921  0.30162  0.81117  1.0000
  C   C2007     1.0  0.79205  0.32037  0.79921  1.0000
  C   C2008     1.0  0.80535  0.32721  0.78223  1.0000
  C   C2009     1.0  0.82569  0.31597  0.77778  1.0000
  H   H1597     1.0  0.82471  0.27607  0.81607  1.0000
  H   H1598     1.0  0.78920  0.29605  0.82436  1.0000
  H   H1599     1.0  0.80012  0.34130  0.77261  1.0000
  H   H1600     1.0  0.83602  0.32186  0.76494  1.0000
  H   H1601     1.0  0.63134  0.43097  0.81754  1.0000
  H   H1602     1.0  0.64904  0.41493  0.75985  1.0000
  C   C2010     1.0  0.87639  0.06751  0.93354  1.0000
  C   C2011     1.0  0.75014  0.37747  0.86927  1.0000
  C   C2012     1.0  0.61183  0.42926  0.91733  1.0000
  C   C2013     1.0  0.54094  0.36939  0.97588  1.0000
  H   H1603     1.0  0.85516  0.41611  0.82313  1.0000
  C   C2014     1.0  0.88618  0.00608  0.98423  1.0000
  C   C2015     1.0  0.85917  0.32341  0.82842  1.0000
  C   C2016     1.0  0.61790  0.40045  0.75171  1.0000
  C   C2017     1.0  0.59233  0.19931  0.79863  1.0000
  C   C2018     1.0  0.51447  0.45183  0.97370  1.0000
  C   C2019     1.0  0.64181  0.44270  0.86782  1.0000
  C   C2020     1.0  0.81806  0.01045  0.93053  1.0000
  C   C2021     1.0  0.66834  0.40005  0.91964  1.0000
  C   C2022     1.0  0.68147  0.41899  0.91701  1.0000
  C   C2023     1.0  0.69330  0.42301  0.89813  1.0000
  C   C2024     1.0  0.69205  0.40836  0.88144  1.0000
  C   C2025     1.0  0.67894  0.38939  0.88405  1.0000
  C   C2026     1.0  0.66726  0.38527  0.90301  1.0000
  H   H1604     1.0  0.68270  0.43041  0.92962  1.0000
  H   H1605     1.0  0.70343  0.43767  0.89641  1.0000
  H   H1606     1.0  0.67769  0.37794  0.87145  1.0000
  H   H1607     1.0  0.65721  0.37054  0.90478  1.0000
  H   H1608     1.0  0.76224  0.19489  0.81406  1.0000
  C   C2027     1.0  0.75200  0.16012  0.77467  1.0000
  C   C2028     1.0  0.51829  0.43146  0.96414  1.0000
  S   S278      1.0  0.74115  0.43874  0.75715  1.0000
  S   S279      1.0  0.84218  0.17720  0.78280  1.0000
  C   C2029     1.0  0.76218  0.20483  0.78141  1.0000
  C   C2030     1.0  0.90250  0.17257  0.91272  1.0000
  C   C2031     1.0  0.88569  0.17969  0.89888  1.0000
  C   C2032     1.0  0.89093  0.19013  0.87950  1.0000
  C   C2033     1.0  0.91314  0.19405  0.87384  1.0000
  C   C2034     1.0  0.92994  0.18703  0.88773  1.0000
  C   C2035     1.0  0.92471  0.17625  0.90695  1.0000
  H   H1609     1.0  0.86846  0.17707  0.90319  1.0000
  H   H1610     1.0  0.87779  0.19543  0.86909  1.0000
  H   H1611     1.0  0.94717  0.18999  0.88361  1.0000
  H   H1612     1.0  0.93787  0.17093  0.91735  1.0000
  H   H1613     1.0  0.73143  0.30622  0.79073  1.0000
  C   C2036     1.0  0.68772  0.48035  0.92918  1.0000
  H   H1614     1.0  0.78783  0.27556  0.76738  1.0000
  C   C2037     1.0  0.98913  0.03936  0.95540  1.0000
  H   H1615     1.0  0.62939  0.22699  0.79245  1.0000
  C   C2038     1.0  0.58051  0.45500  0.91473  1.0000
  H   H1616     1.0  0.74184  0.00657  0.76742  1.0000
  C   C2039     1.0  0.96759  0.03103  0.95469  1.0000
  C   C2040     1.0  0.83366  0.36257  0.83325  1.0000
  H   H1617     1.0  0.92974  0.29627  0.96615  1.0000
  Fe  Fe143     1.0  0.63333  0.45915  0.99129  1.0000
  C   C2041     1.0  0.87910  0.05239  0.98412  1.0000
  C   C2042     1.0  0.85895  0.33982  0.81263  1.0000
  C   C2043     1.0  0.51075  0.23309  0.84761  1.0000
  C   C2044     1.0  0.83639  0.40607  0.85068  1.0000
  C   C2045     1.0  0.60320  0.45018  0.91121  1.0000
  C   C2046     1.0  0.54268  0.21691  0.86530  1.0000
  H   H1618     1.0  0.81944  0.28376  0.74402  1.0000
  H   H1619     1.0  0.59938  0.45667  0.82440  1.0000
  C   C2047     1.0  0.84939  0.42105  0.88297  1.0000
  C   C2048     1.0  0.55594  0.22354  0.78058  1.0000
  C   C2049     1.0  0.76039  0.39815  0.86997  1.0000
  H   H1620     1.0  0.75167  0.41197  0.87715  1.0000
  H   H1621     1.0  0.59453  0.47334  0.85893  1.0000
  H   H1622     1.0  0.95359  0.04230  0.95193  1.0000
  C   C2050     1.0  0.84627  0.05465  0.90360  1.0000
  H   H1623     1.0  0.69706  0.29384  0.77392  1.0000
  C   C2051     1.0  0.51340  0.23533  0.88501  1.0000
  C   C2052     1.0  0.60243  0.24077  0.77380  1.0000
  C   C2053     1.0  0.75422  0.17507  0.75781  1.0000
  H   H1624     1.0  0.74773  0.24453  0.82450  1.0000
  H   H1625     1.0  0.66962  0.47436  0.95783  1.0000
  C   C2054     1.0  0.79223  0.38356  0.85069  1.0000
  C   C2055     1.0  0.60095  0.17263  0.83419  1.0000
  C   C2056     1.0  0.99077  0.15184  0.77576  1.0000
  H   H1626     1.0  0.55843  0.20790  0.86479  1.0000
  P   P68       1.0  0.62083  0.46953  0.89710  1.0000
  C   C2057     1.0  0.75979  0.18971  0.79830  1.0000
  C   C2058     1.0  0.71621  0.47864  0.76073  1.0000
  H   H1627     1.0  0.86848  0.30801  0.82619  1.0000
  H   H1628     1.0  0.87624  0.07022  0.98414  1.0000
  C   C2059     1.0  0.60878  0.46257  0.85599  1.0000
  H   H1629     1.0  0.82248  0.39813  0.88118  1.0000
  H   H1630     1.0  0.53491  0.42415  0.96387  1.0000
  C   C2060     1.0  0.71093  0.28227  0.77607  1.0000
  C   C2061     1.0  0.80101  0.43353  0.79094  1.0000
  C   C2062     1.0  0.83873  0.09192  0.80171  1.0000
  C   C2063     1.0  0.82806  0.07428  0.81210  1.0000
  C   C2064     1.0  0.83213  0.06988  0.83317  1.0000
  C   C2065     1.0  0.84715  0.08290  0.84377  1.0000
  C   C2066     1.0  0.85856  0.10012  0.83322  1.0000
  C   C2067     1.0  0.85372  0.10497  0.81227  1.0000
  P   P69       1.0  0.87637  0.11833  0.84711  1.0000
  C   C2068     1.0  0.85895  0.14195  0.85347  1.0000
  C   C2069     1.0  0.88964  0.10538  0.86944  1.0000
  C   C2070     1.0  0.89694  0.11864  0.88556  1.0000
  C   C2071     1.0  0.90930  0.10923  0.90189  1.0000
  C   C2072     1.0  0.91479  0.08654  0.90211  1.0000
  C   C2073     1.0  0.90790  0.07323  0.88597  1.0000
  C   C2074     1.0  0.89560  0.08266  0.86954  1.0000
  C   C2075     1.0  0.85442  0.15840  0.83814  1.0000
  C   C2076     1.0  0.83953  0.17589  0.84228  1.0000
  C   C2077     1.0  0.82921  0.17722  0.86180  1.0000
  C   C2078     1.0  0.83353  0.16083  0.87712  1.0000
  C   C2079     1.0  0.84818  0.14311  0.87292  1.0000
  C   C2080     1.0  0.89969  0.12723  0.83133  1.0000
  C   C2081     1.0  0.90819  0.11394  0.81534  1.0000
  C   C2082     1.0  0.92719  0.12049  0.80410  1.0000
  C   C2083     1.0  0.93808  0.13997  0.80913  1.0000
  C   C2084     1.0  0.93003  0.15291  0.82538  1.0000
  C   C2085     1.0  0.91084  0.14666  0.83636  1.0000
  H   H1631     1.0  0.83511  0.09580  0.78552  1.0000
  H   H1632     1.0  0.81631  0.06431  0.80389  1.0000
  H   H1633     1.0  0.82338  0.05656  0.84132  1.0000
  H   H1634     1.0  0.84956  0.07976  0.86022  1.0000
  H   H1635     1.0  0.86122  0.11907  0.80411  1.0000
  H   H1636     1.0  0.89361  0.13640  0.88529  1.0000
  H   H1637     1.0  0.91478  0.11966  0.91430  1.0000
  H   H1638     1.0  0.92438  0.07932  0.91484  1.0000
  H   H1639     1.0  0.91236  0.05569  0.88611  1.0000
  H   H1640     1.0  0.89129  0.07239  0.85669  1.0000
  H   H1641     1.0  0.86211  0.15761  0.82282  1.0000
  H   H1642     1.0  0.83591  0.18826  0.83017  1.0000
  H   H1643     1.0  0.81780  0.19089  0.86500  1.0000
  H   H1644     1.0  0.82555  0.16187  0.89227  1.0000
  H   H1645     1.0  0.85104  0.13038  0.88485  1.0000
  H   H1646     1.0  0.90029  0.09853  0.81158  1.0000
  H   H1647     1.0  0.93346  0.11050  0.79148  1.0000
  H   H1648     1.0  0.95264  0.14511  0.80039  1.0000
  H   H1649     1.0  0.93835  0.16809  0.82932  1.0000
  H   H1650     1.0  0.90479  0.15696  0.84885  1.0000
  C   C2086     1.0  0.78172  0.36290  0.84988  1.0000
  C   C2087     1.0  0.63015  0.27770  0.76793  1.0000
  P   P70       1.0  0.58496  0.21663  0.77639  1.0000
  H   H1651     1.0  0.60518  0.39752  0.93229  1.0000
  C   C2088     1.0  0.86779  0.43110  0.85042  1.0000
  C   C2089     1.0  0.54924  0.24452  0.78780  1.0000
  H   H1652     1.0  0.98937  0.09349  0.98499  1.0000
  C   C2090     1.0  0.64437  0.43317  0.84834  1.0000
  P   P71       1.0  0.77038  0.23328  0.78535  1.0000
  C   C2091     1.0  0.52671  0.24913  0.79184  1.0000
  C   C2092     1.0  0.74698  0.25234  0.78161  1.0000
  C   C2093     1.0  0.89593  0.21989  0.98411  1.0000
  H   H1653     1.0  0.68841  0.18918  0.75709  1.0000
  C   C2094     1.0  0.51742  0.21177  0.78222  1.0000
  H   H1654     1.0  0.62916  0.42507  0.91438  1.0000
  C   C2095     1.0  0.98089  0.19526  0.80650  1.0000
  H   H1655     1.0  0.78844  0.41771  0.86037  1.0000
  S   S280      1.0  0.99718  0.14101  0.98421  1.0000
  H   H1656     1.0  0.84736  0.31398  0.85905  1.0000
  C   C2096     1.0  0.87488  0.04504  0.92861  1.0000
  H   H1657     1.0  0.83714  0.08952  0.90115  1.0000
  H   H1658     1.0  0.69435  0.25507  0.76229  1.0000
  C   C2097     1.0  0.81660  0.15270  0.75694  1.0000
  H   H1659     1.0  0.78929  0.34929  0.84150  1.0000
  C   C2098     1.0  0.70942  0.26037  0.76955  1.0000
  H   H1660     1.0  0.97547  0.18305  0.76574  1.0000
  H   H1661     1.0  0.65334  0.43789  0.87996  1.0000
  C   C2099     1.0  0.84641  0.35942  0.81507  1.0000
  C   C2100     1.0  0.56692  0.43933  0.92495  1.0000
  H   H1662     1.0  0.53792  0.21616  0.83218  1.0000
  C   C2101     1.0  0.73029  0.28924  0.78550  1.0000
  C   C2102     1.0  0.80703  0.22254  0.76017  1.0000
  H   H1663     1.0  0.88522  0.03294  0.93688  1.0000
  H   H1664     1.0  0.80199  0.36937  0.79896  1.0000
  H   H1665     1.0  0.88067  0.44009  0.84192  1.0000
  H   H1666     1.0  0.97787  0.24278  0.76760  1.0000
  C   C2103     1.0  0.98558  0.23466  0.75449  1.0000
  C   C2104     1.0  0.64864  0.47103  0.93130  1.0000
  H   H1667     1.0  0.86413  0.10092  0.92757  1.0000
  H   H1668     1.0  0.80480  0.15197  0.76978  1.0000
  C   C2105     1.0  0.77282  0.24412  0.84786  1.0000
  C   C2106     1.0  0.79530  0.24052  0.85230  1.0000
  C   C2107     1.0  0.81016  0.23430  0.83653  1.0000
  C   C2108     1.0  0.80267  0.23190  0.81623  1.0000
  H   H1669     1.0  0.76129  0.24902  0.86007  1.0000
  H   H1670     1.0  0.80125  0.24267  0.86792  1.0000
  H   H1671     1.0  0.82761  0.23168  0.83999  1.0000
  H   H1672     1.0  0.81452  0.22721  0.80420  1.0000
  H   H1673     1.0  0.73361  0.37536  0.87598  1.0000
  H   H1674     1.0  0.82560  0.34880  0.86383  1.0000
  C   C2109     1.0  0.95811  0.13228  0.75161  1.0000
  C   C2110     1.0  0.86286  0.08353  0.92362  1.0000
  C   C2111     1.0  0.65968  0.34357  0.75653  1.0000
  C   C2112     1.0  0.61134  0.45296  0.83649  1.0000
  C   C2113     1.0  0.84779  0.07710  0.90866  1.0000
  S   S281      1.0  0.66185  0.36360  0.77597  1.0000
  P   P72       1.0  0.81817  0.38821  0.83693  1.0000
  H   H1675     1.0  0.74850  0.14278  0.77199  1.0000
  C   C2114     1.0  0.66878  0.47511  0.94104  1.0000
  C   C2115     1.0  0.76522  0.24169  0.82762  1.0000
  C   C2116     1.0  0.76076  0.35988  0.85915  1.0000
  S   S282      1.0  0.94396  0.21518  0.74798  1.0000
  H   H1676     1.0  0.62446  0.34937  0.75291  1.0000
  C   C2117     1.0  0.86581  0.43290  0.87198  1.0000
  C   C2118     1.0  0.74820  0.27437  0.78830  1.0000
  H   H1677     1.0  0.97355  0.10094  0.76054  1.0000
  C   C2119     1.0  0.72730  0.24540  0.77236  1.0000
  C   C2120     1.0  0.51085  0.23275  0.78905  1.0000
  C   C2121     1.0  0.98841  0.23407  0.81225  1.0000
  C   C2122     1.0  0.59818  0.41354  0.92733  1.0000
  C   C2123     1.0  0.88548  0.20334  0.97307  1.0000
  C   C2124     1.0  0.68695  0.20380  0.74694  1.0000
  H   H1678     1.0  0.81293  0.43487  0.82211  1.0000
  H   H1679     1.0  0.62061  0.18718  0.76117  1.0000
  H   H1680     1.0  0.72564  0.22853  0.76730  1.0000
  H   H1681     1.0  0.81885  0.02841  0.92968  1.0000
  H   H1682     1.0  0.59611  0.14472  0.81448  1.0000
  H   H1683     1.0  0.84657  0.37194  0.80267  1.0000
  C   C2125     1.0  0.64731  0.47229  0.90955  1.0000
  C   C2126     1.0  0.63884  0.33994  0.74766  1.0000
  H   H1684     1.0  0.78906  0.38621  0.76574  1.0000
  C   C2127     1.0  0.51840  0.36933  0.98211  1.0000
  C   C2128     1.0  0.75471  0.16744  0.79490  1.0000
  C   C2129     1.0  0.79295  0.23970  0.76736  1.0000
  H   H1685     1.0  0.66554  0.47992  0.88098  1.0000
  C   C2130     1.0  0.62925  0.43842  0.83261  1.0000
  C   C2131     1.0  0.83651  0.16442  0.75899  1.0000
  C   C2132     1.0  0.60960  0.27724  0.75807  1.0000
  C   C2133     1.0  0.66628  0.47816  0.89775  1.0000
  C   C2134     1.0  0.96402  0.00830  0.95819  1.0000
  H   H1686     1.0  0.70716  0.47043  0.77332  1.0000
  C   C2135     1.0  0.85992  0.03845  0.91344  1.0000
  H   H1687     1.0  0.84800  0.42226  0.89970  1.0000
  H   H1688     1.0  0.96920  0.18177  0.80703  1.0000
  H   H1689     1.0  0.87710  0.44336  0.88019  1.0000
  C   C2136     1.0  0.79751  0.26184  0.76135  1.0000
  C   C2137     1.0  0.97387  0.11886  0.76197  1.0000
  H   H1690     1.0  0.64076  0.29204  0.76575  1.0000
  C   C2138     1.0  0.87659  0.18483  0.98361  1.0000
  C   C2139     1.0  0.67818  0.33119  0.74978  1.0000
  C   C2140     1.0  0.79503  0.39675  0.77781  1.0000
  C   C2141     1.0  0.83483  0.40753  0.87239  1.0000
  H   H1691     1.0  0.50345  0.40386  0.94900  1.0000
  C   C2142     1.0  0.59183  0.17598  0.79767  1.0000
  C   C2143     1.0  0.59583  0.25882  0.76092  1.0000
  C   C2144     1.0  0.80859  0.42403  0.80968  1.0000
  H   H1692     1.0  0.54663  0.35843  0.96377  1.0000
  H   H1693     1.0  0.88812  0.07255  0.94512  1.0000
  C   C2145     1.0  0.90085  0.04376  0.98415  1.0000
  C   C2146     1.0  0.63711  0.25958  0.78040  1.0000
  C   C2147     1.0  0.86448  0.01467  0.98315  1.0000
  C   C2148     1.0  0.83465  0.34637  0.84938  1.0000
  C   C2149     1.0  0.85324  0.41760  0.83981  1.0000
  C   C2150     1.0  0.79440  0.41989  0.77496  1.0000
  C   C2151     1.0  0.84712  0.32673  0.84684  1.0000
  H   H1694     1.0  0.88464  0.20454  0.95625  1.0000
  C   C2152     1.0  0.75922  0.19735  0.76114  1.0000
  H   H1695     1.0  0.76133  0.20862  0.74788  1.0000
  H   H1696     1.0  0.65811  0.42161  0.84553  1.0000
  H   H1697     1.0  0.60397  0.20353  0.85011  1.0000
  H   H1698     1.0  0.65319  0.25991  0.78778  1.0000
  H   H1699     1.0  0.60443  0.16231  0.84788  1.0000
  H   H1700     1.0  0.57354  0.38326  0.98032  1.0000
  C   C2153     1.0  0.86097  0.03786  0.98334  1.0000
  H   H1701     1.0  0.75329  0.15575  0.80794  1.0000
  C   C2154     1.0  0.95876  0.15540  0.75314  1.0000
  P   P73       1.0  0.85763  0.00945  0.90690  1.0000
  C   C2155     1.0  0.97508  0.16512  0.76503  1.0000
  H   H1702     1.0  0.54467  0.19080  0.77261  1.0000
  C   C2156     1.0  0.53988  0.20712  0.77805  1.0000
  C   C2157     1.0  0.62341  0.24107  0.78319  1.0000
  H   H1703     1.0  0.69427  0.33381  0.75655  1.0000
  H   H1704     1.0  0.59546  0.22710  0.81910  1.0000
  C   C2158     1.0  0.85299  0.00745  0.87928  1.0000
  H   H1705     1.0  0.95679  0.21873  0.81859  1.0000
  S   S283      1.0  0.66439  0.43774  0.98936  1.0000
  C   C2159     1.0  0.59637  0.16272  0.81535  1.0000
  H   H1706     1.0  0.56126  0.25738  0.79019  1.0000
  S   S284      1.0  0.63540  0.49621  0.98402  1.0000
  C   C2160     1.0  0.57579  0.41862  0.93133  1.0000
  H   H1707     1.0  0.54951  0.44318  0.92787  1.0000
  H   H1708     1.0  0.84418  0.04460  0.98265  1.0000
  H   H1709     1.0  0.63409  0.46737  0.94081  1.0000
  H   H1710     1.0  0.56539  0.40648  0.93938  1.0000
  C   C2161     1.0  0.59612  0.20913  0.81780  1.0000
  H   H1711     1.0  0.52843  0.46025  0.98030  1.0000
  C   C2162     1.0  0.60071  0.19584  0.83544  1.0000
  H   H1712     1.0  0.58768  0.16799  0.78337  1.0000
  C   C2163     1.0  0.55623  0.38346  0.98523  1.0000
  C   C2164     1.0  0.97377  0.21623  0.81307  1.0000
  C   C2165     1.0  0.63941  0.40797  0.74753  1.0000
  H   H1713     1.0  0.86879  0.17187  0.97497  1.0000
  H   H1714     1.0  0.78811  0.42730  0.76061  1.0000
  H   H1715     1.0  0.93480  0.25982  0.98418  1.0000
  C   C2166     1.0  0.86352  0.02230  0.86520  1.0000
  H   H1716     1.0  0.61085  0.40174  0.76723  1.0000
  C   C2167     1.0  0.73353  0.46716  0.75061  1.0000
  H   H1717     1.0  0.87437  0.03500  0.87076  1.0000
  C   C2168     1.0  0.68646  0.48191  0.90753  1.0000
  C   C2169     1.0  0.82496  0.22739  0.74685  1.0000
  C   C2170     1.0  0.92217  0.27135  0.98981  1.0000
  H   H1718     1.0  0.50492  0.19935  0.77957  1.0000
  C   C2171     1.0  0.99018  0.12858  0.77398  1.0000
  C   C2172     1.0  0.91932  0.29198  0.97951  1.0000
  S   S285      1.0  0.93477  0.16251  0.98774  1.0000
  H   H1719     1.0  0.70332  0.48328  0.93679  1.0000
  Fe  Fe144     1.0  0.96006  0.13443  0.98494  1.0000
  H   H1720     1.0  0.54270  0.22012  0.89857  1.0000
  H   H1721     1.0  0.51006  0.31207  0.91041  1.0000
  C   C2173     1.0  0.60965  0.49761  0.89714  1.0000
  H   H1722     1.0  0.65399  0.21272  0.75786  1.0000
  H   H1723     1.0  0.99177  0.05711  0.95331  1.0000
  H   H1724     1.0  0.86854  0.03208  0.83298  1.0000
  H   H1725     1.0  0.90072  0.32295  0.97829  1.0000
  S   S286      1.0  0.92436  0.06104  0.98335  1.0000
  H   H1726     1.0  0.98271  0.25040  0.81701  1.0000
  H   H1727     1.0  0.50850  0.28199  0.74537  1.0000
  H   H1728     1.0  0.57322  0.47070  0.90947  1.0000
  C   C2174     1.0  0.60846  0.18941  0.74902  1.0000
  H   H1729     1.0  0.60435  0.29107  0.74804  1.0000
  C   C2175     1.0  0.90295  0.30700  0.98632  1.0000
  H   H1730     1.0  0.99548  0.16414  0.83441  1.0000
  H   H1731     1.0  0.60095  0.49615  0.92997  1.0000
  H   H1732     1.0  0.70112  0.48600  0.89830  1.0000
  C   C2176     1.0  0.71042  0.50078  0.75446  1.0000
  C   C2177     1.0  0.66758  0.21700  0.74738  1.0000
  C   C2178     1.0  0.81553  0.26661  0.74805  1.0000
  C   C2179     1.0  0.90429  0.02058  0.98456  1.0000
  H   H1733     1.0  0.50878  0.28636  0.88101  1.0000
  S   S287      1.0  0.89704  0.12386  0.98838  1.0000
  H   H1734     1.0  0.78799  0.01094  0.94920  1.0000
  H   H1735     1.0  0.75833  0.29289  0.74444  1.0000
  H   H1736     1.0  0.92104  0.01379  0.98515  1.0000
  H   H1737     1.0  0.50215  0.23631  0.83322  1.0000
  H   H1738     1.0  0.84422  0.00277  0.81971  1.0000
  C   C2180     1.0  0.84666  0.00415  0.83629  1.0000
  H   H1739     1.0  0.94670  0.16595  0.74499  1.0000
  H   H1740     1.0  0.86694  0.17438  0.74365  1.0000
  S   S288      1.0  0.86381  0.94286  0.01065  1.0000
  Fe  Fe145     1.0  0.83531  0.91902  0.01235  1.0000
  S   S289      1.0  0.81291  0.91004  0.04078  1.0000
  Fe  Fe146     1.0  0.56702  0.64488  0.01985  1.0000
  S   S290      1.0  0.58698  0.65520  0.04840  1.0000
  S   S291      1.0  0.53915  0.62033  0.02283  1.0000
  Fe  Fe147     1.0  0.77374  0.86777  0.20923  1.0000
  S   S292      1.0  0.73711  0.87612  0.21037  1.0000
  C   C2181     1.0  0.65145  0.50843  0.21458  1.0000
  Fe  Fe148     1.0  0.77941  0.88596  0.16406  1.0000
  S   S293      1.0  0.74287  0.89503  0.16253  1.0000
  S   S294      1.0  0.80771  0.89280  0.13997  1.0000
  Fe  Fe149     1.0  0.74700  0.90888  0.19492  1.0000
  S   S295      1.0  0.73321  0.94369  0.20394  1.0000
  Fe  Fe150     1.0  0.73619  0.86143  0.17853  1.0000
  S   S296      1.0  0.71425  0.83288  0.16699  1.0000
  S   S297      1.0  0.78362  0.90111  0.19564  1.0000
  S   S298      1.0  0.77271  0.85178  0.17820  1.0000
  Fe  Fe151     1.0  0.60844  0.69395  0.19803  1.0000
  S   S299      1.0  0.60172  0.72216  0.21942  1.0000
  S   S300      1.0  0.62964  0.66288  0.20426  1.0000
  Fe  Fe152     1.0  0.58093  0.71476  0.16309  1.0000
  S   S301      1.0  0.57228  0.74506  0.18231  1.0000
  S   S302      1.0  0.56554  0.71101  0.13066  1.0000
  Fe  Fe153     1.0  0.60861  0.74473  0.19148  1.0000
  S   S303      1.0  0.62893  0.77629  0.19789  1.0000
  Fe  Fe154     1.0  0.56593  0.72073  0.20897  1.0000
  S   S304      1.0  0.53939  0.72479  0.23514  1.0000
  S   S305      1.0  0.61743  0.71630  0.17062  1.0000
  S   S306      1.0  0.57244  0.69064  0.18940  1.0000
  C   C2182     1.0  0.65775  0.51061  0.04221  1.0000
  C   C2183     1.0  0.59827  0.50351  0.14729  1.0000
  H   H1741     1.0  0.50390  0.52321  0.01330  1.0000
  C   C2184     1.0  0.69197  0.70092  0.22214  1.0000
  H   H1742     1.0  0.82916  0.97914  0.14849  1.0000
  H   H1743     1.0  0.93191  0.96408  0.11729  1.0000
  H   H1744     1.0  0.80078  0.81164  0.18904  1.0000
  C   C2185     1.0  0.64475  0.65887  0.22744  1.0000
  Fe  Fe155     1.0  0.55721  0.60066  0.99843  1.0000
  H   H1745     1.0  0.68041  0.55086  0.23489  1.0000
  C   C2186     1.0  0.80314  0.97215  0.17132  1.0000
  C   C2187     1.0  0.89921  0.97535  0.12680  1.0000
  C   C2188     1.0  0.74116  0.96532  0.22112  1.0000
  C   C2189     1.0  0.62941  0.71980  0.06954  1.0000
  C   C2190     1.0  0.68154  0.53210  0.12118  1.0000
  C   C2191     1.0  0.82506  0.92701  0.22555  1.0000
  C   C2192     1.0  0.82622  0.83514  0.22394  1.0000
  H   H1746     1.0  0.65907  0.62763  0.21771  1.0000
  C   C2193     1.0  0.66586  0.52444  0.02597  1.0000
  H   H1747     1.0  0.82242  0.84398  0.20952  1.0000
  H   H1748     1.0  0.78388  0.75359  0.15537  1.0000
  H   H1749     1.0  0.77621  0.93884  0.12736  1.0000
  C   C2194     1.0  0.69111  0.81678  0.17656  1.0000
  C   C2195     1.0  0.67893  0.82217  0.19450  1.0000
  C   C2196     1.0  0.66020  0.80948  0.20080  1.0000
  C   C2197     1.0  0.65336  0.79109  0.18945  1.0000
  C   C2198     1.0  0.66589  0.78533  0.17181  1.0000
  C   C2199     1.0  0.68449  0.79814  0.16539  1.0000
  H   H1750     1.0  0.68367  0.83637  0.20333  1.0000
  H   H1751     1.0  0.65080  0.81414  0.21451  1.0000
  H   H1752     1.0  0.66109  0.77116  0.16299  1.0000
  H   H1753     1.0  0.69376  0.79368  0.15156  1.0000
  H   H1754     1.0  0.72698  0.74955  0.20680  1.0000
  H   H1755     1.0  0.89290  0.97669  0.02491  1.0000
  H   H1756     1.0  0.74920  0.66499  0.24187  1.0000
  C   C2200     1.0  0.91711  0.97349  0.11282  1.0000
  C   C2201     1.0  0.58013  0.67017  0.07144  1.0000
  C   C2202     1.0  0.59501  0.66920  0.08822  1.0000
  C   C2203     1.0  0.59071  0.68118  0.10653  1.0000
  C   C2204     1.0  0.57164  0.69477  0.10822  1.0000
  C   C2205     1.0  0.55686  0.69587  0.09138  1.0000
  C   C2206     1.0  0.56095  0.68357  0.07321  1.0000
  H   H1757     1.0  0.60995  0.65900  0.08709  1.0000
  H   H1758     1.0  0.60213  0.67989  0.11933  1.0000
  H   H1759     1.0  0.54208  0.70632  0.09240  1.0000
  H   H1760     1.0  0.54940  0.68471  0.06048  1.0000
  H   H1761     1.0  0.81196  0.95784  0.12078  1.0000
  H   H1762     1.0  0.71545  0.82165  0.24153  1.0000
  C   C2207     1.0  0.78307  0.96101  0.17488  1.0000
  C   C2208     1.0  0.81201  0.90595  0.06849  1.0000
  C   C2209     1.0  0.83083  0.90759  0.08094  1.0000
  C   C2210     1.0  0.82914  0.90370  0.10271  1.0000
  C   C2211     1.0  0.80865  0.89824  0.11244  1.0000
  C   C2212     1.0  0.78984  0.89688  0.10000  1.0000
  C   C2213     1.0  0.79155  0.90064  0.07825  1.0000
  H   H1763     1.0  0.84669  0.91165  0.07379  1.0000
  H   H1764     1.0  0.84387  0.90471  0.11209  1.0000
  H   H1765     1.0  0.77396  0.89270  0.10711  1.0000
  H   H1766     1.0  0.77684  0.89934  0.06887  1.0000
  C   C2214     1.0  0.57459  0.52156  0.00014  1.0000
  H   H1767     1.0  0.83148  0.95370  0.05519  1.0000
  C   C2215     1.0  0.76703  0.71490  0.22204  1.0000
  H   H1768     1.0  0.58837  0.71976  0.03367  1.0000
  C   C2216     1.0  0.69153  0.53100  0.20930  1.0000
  C   C2217     1.0  0.80377  0.95917  0.13581  1.0000
  C   C2218     1.0  0.78884  0.76109  0.16967  1.0000
  P   P74       1.0  0.81619  0.98576  0.19261  1.0000
  H   H1769     1.0  0.86150  0.96674  0.19745  1.0000
  C   C2219     1.0  0.83693  0.85637  0.02516  1.0000
  C   C2220     1.0  0.84058  0.83716  0.01377  1.0000
  C   C2221     1.0  0.85942  0.82379  0.01749  1.0000
  C   C2222     1.0  0.87455  0.82956  0.03270  1.0000
  C   C2223     1.0  0.87111  0.84902  0.04408  1.0000
  C   C2224     1.0  0.85230  0.86249  0.03999  1.0000
  P   P75       1.0  0.88987  0.85615  0.06450  1.0000
  C   C2225     1.0  0.91600  0.84121  0.06062  1.0000
  C   C2226     1.0  0.89454  0.88583  0.06314  1.0000
  C   C2227     1.0  0.89863  0.89665  0.04389  1.0000
  C   C2228     1.0  0.90367  0.91930  0.04301  1.0000
  C   C2229     1.0  0.90382  0.93151  0.06116  1.0000
  C   C2230     1.0  0.89900  0.92108  0.08030  1.0000
  C   C2231     1.0  0.89456  0.89829  0.08134  1.0000
  C   C2232     1.0  0.93352  0.85080  0.04893  1.0000
  C   C2233     1.0  0.95322  0.83872  0.04532  1.0000
  C   C2234     1.0  0.95564  0.81696  0.05322  1.0000
  C   C2235     1.0  0.93831  0.80719  0.06473  1.0000
  C   C2236     1.0  0.91852  0.81919  0.06832  1.0000
  C   C2237     1.0  0.87764  0.84925  0.08971  1.0000
  C   C2238     1.0  0.85453  0.85132  0.09307  1.0000
  C   C2239     1.0  0.84538  0.84806  0.11300  1.0000
  C   C2240     1.0  0.85914  0.84266  0.12974  1.0000
  C   C2241     1.0  0.88213  0.84055  0.12659  1.0000
  C   C2242     1.0  0.89139  0.84402  0.10671  1.0000
  H   H1770     1.0  0.82233  0.86680  0.02226  1.0000
  S   S307      1.0  0.58622  0.62380  0.99674  1.0000
  H   H1771     1.0  0.51405  0.57096  0.02932  1.0000
  H   H1772     1.0  0.88890  0.81883  0.03536  1.0000
  H   H1773     1.0  0.84936  0.87766  0.04839  1.0000
  H   H1774     1.0  0.89843  0.88752  0.02957  1.0000
  H   H1775     1.0  0.90751  0.92736  0.02818  1.0000
  H   H1776     1.0  0.90764  0.94903  0.06035  1.0000
  H   H1777     1.0  0.89879  0.93058  0.09436  1.0000
  H   H1778     1.0  0.89111  0.89057  0.09639  1.0000
  H   H1779     1.0  0.93213  0.86743  0.04224  1.0000
  H   H1780     1.0  0.96659  0.84612  0.03610  1.0000
  H   H1781     1.0  0.97092  0.80766  0.05018  1.0000
  H   H1782     1.0  0.94016  0.79023  0.07069  1.0000
  H   H1783     1.0  0.90506  0.81115  0.07685  1.0000
  H   H1784     1.0  0.84345  0.85608  0.08059  1.0000
  H   H1785     1.0  0.82760  0.85033  0.11557  1.0000
  H   H1786     1.0  0.85195  0.84049  0.14520  1.0000
  H   H1787     1.0  0.89281  0.83659  0.13966  1.0000
  H   H1788     1.0  0.90931  0.84314  0.10476  1.0000
  H   H1789     1.0  0.89653  0.71699  0.21887  1.0000
  H   H1790     1.0  0.78781  0.79464  0.15674  1.0000
  H   H1791     1.0  0.96175  0.97245  0.00727  1.0000
  H   H1792     1.0  0.86775  0.68840  0.21409  1.0000
  C   C2243     1.0  0.72918  0.98574  0.22076  1.0000
  C   C2244     1.0  0.91503  0.99592  0.04343  1.0000
  C   C2245     1.0  0.81909  0.96547  0.21375  1.0000
  C   C2246     1.0  0.68997  0.72426  0.22092  1.0000
  H   H1793     1.0  0.69886  0.50880  0.18471  1.0000
  C   C2247     1.0  0.79121  0.78419  0.17037  1.0000
  C   C2248     1.0  0.71057  0.76617  0.23239  1.0000
  C   C2249     1.0  0.86638  0.99814  0.05202  1.0000
  C   C2250     1.0  0.78358  0.94842  0.13947  1.0000
  H   H1794     1.0  0.73799  0.69527  0.21698  1.0000
  H   H1795     1.0  0.50503  0.70728  0.20765  1.0000
  C   C2251     1.0  0.68558  0.68812  0.20547  1.0000
  C   C2252     1.0  0.67670  0.69840  0.18766  1.0000
  C   C2253     1.0  0.67488  0.72159  0.18619  1.0000
  C   C2254     1.0  0.68158  0.73446  0.20269  1.0000
  C   C2255     1.0  0.68767  0.51540  0.10743  1.0000
  H   H1796     1.0  0.75745  0.94133  0.16186  1.0000
  C   C2256     1.0  0.73183  0.80451  0.21658  1.0000
  H   H1797     1.0  0.70731  0.53945  0.20769  1.0000
  C   C2257     1.0  0.73501  0.78420  0.20681  1.0000
  C   C2258     1.0  0.72453  0.76507  0.21472  1.0000
  C   C2259     1.0  0.57771  0.54465  0.99811  1.0000
  C   C2260     1.0  0.65624  0.52626  0.22726  1.0000
  S   S308      1.0  0.55477  0.56288  0.00221  1.0000
  H   H1798     1.0  0.59460  0.53559  0.04861  1.0000
  C   C2261     1.0  0.83384  0.73234  0.22655  1.0000
  C   C2262     1.0  0.98686  0.75347  0.23237  1.0000
  C   C2263     1.0  0.87865  0.99712  0.10109  1.0000
  P   P76       1.0  0.80488  0.74028  0.22892  1.0000
  H   H1799     1.0  0.65247  0.51602  0.15499  1.0000
  H   H1800     1.0  0.88524  0.75546  0.22786  1.0000
  C   C2264     1.0  0.81876  0.97200  0.23455  1.0000
  H   H1801     1.0  0.68667  0.67011  0.20667  1.0000
  H   H1802     1.0  0.67066  0.68833  0.17530  1.0000
  H   H1803     1.0  0.66768  0.72960  0.17252  1.0000
  H   H1804     1.0  0.67954  0.75240  0.20149  1.0000
  C   C2265     1.0  0.64995  0.54201  0.09963  1.0000
  H   H1805     1.0  0.77516  0.96103  0.19008  1.0000
  H   H1806     1.0  0.65793  0.55838  0.12794  1.0000
  H   H1807     1.0  0.74521  0.78350  0.19282  1.0000
  H   H1808     1.0  0.92256  0.96192  0.00225  1.0000
  C   C2266     1.0  0.64982  0.69197  0.13203  1.0000
  C   C2267     1.0  0.67236  0.68674  0.12914  1.0000
  C   C2268     1.0  0.68586  0.70100  0.11720  1.0000
  C   C2269     1.0  0.67686  0.72058  0.10826  1.0000
  C   C2270     1.0  0.65435  0.72633  0.11168  1.0000
  C   C2271     1.0  0.64082  0.71160  0.12321  1.0000
  P   P77       1.0  0.64198  0.75061  0.09899  1.0000
  C   C2272     1.0  0.62277  0.76378  0.11703  1.0000
  C   C2273     1.0  0.66326  0.77027  0.09124  1.0000
  C   C2274     1.0  0.66304  0.78074  0.07147  1.0000
  C   C2275     1.0  0.67910  0.79656  0.06595  1.0000
  C   C2276     1.0  0.69541  0.80208  0.08013  1.0000
  C   C2277     1.0  0.69583  0.79164  0.09977  1.0000
  C   C2278     1.0  0.67996  0.77569  0.10526  1.0000
  C   C2279     1.0  0.60077  0.75634  0.11886  1.0000
  C   C2280     1.0  0.58580  0.76622  0.13279  1.0000
  C   C2281     1.0  0.59271  0.78339  0.14529  1.0000
  C   C2282     1.0  0.61453  0.79091  0.14363  1.0000
  C   C2283     1.0  0.62945  0.78132  0.12947  1.0000
  C   C2284     1.0  0.62637  0.74145  0.07702  1.0000
  C   C2285     1.0  0.60987  0.75543  0.06821  1.0000
  H   H1809     1.0  0.63921  0.68077  0.14105  1.0000
  H   H1810     1.0  0.67925  0.67149  0.13598  1.0000
  H   H1811     1.0  0.70326  0.69674  0.11464  1.0000
  H   H1812     1.0  0.68744  0.73096  0.09847  1.0000
  H   H1813     1.0  0.62318  0.71508  0.12517  1.0000
  H   H1814     1.0  0.65045  0.77691  0.06032  1.0000
  H   H1815     1.0  0.67875  0.80473  0.05074  1.0000
  H   H1816     1.0  0.70763  0.81459  0.07597  1.0000
  H   H1817     1.0  0.70828  0.79619  0.11090  1.0000
  H   H1818     1.0  0.68041  0.76792  0.12065  1.0000
  H   H1819     1.0  0.59511  0.74269  0.10971  1.0000
  H   H1820     1.0  0.56894  0.76011  0.13426  1.0000
  H   H1821     1.0  0.58131  0.79059  0.15655  1.0000
  H   H1822     1.0  0.62001  0.80391  0.15368  1.0000
  H   H1823     1.0  0.64612  0.78766  0.12866  1.0000
  H   H1824     1.0  0.60703  0.77206  0.07392  1.0000
  C   C2286     1.0  0.63703  0.50700  0.15635  1.0000
  C   C2287     1.0  0.81348  0.97114  0.15162  1.0000
  H   H1825     1.0  0.76140  0.72826  0.21175  1.0000
  H   H1826     1.0  0.82260  0.93723  0.19352  1.0000
  H   H1827     1.0  0.58325  0.75834  0.04612  1.0000
  C   C2288     1.0  0.52462  0.50907  0.03720  1.0000
  C   C2289     1.0  0.88002  0.98721  0.12094  1.0000
  H   H1828     1.0  0.82799  0.69819  0.21812  1.0000
  H   H1829     1.0  0.65060  0.74896  0.22955  1.0000
  H   H1830     1.0  0.71541  0.98796  0.21021  1.0000
  H   H1831     1.0  0.68553  0.52625  0.99774  1.0000
  H   H1832     1.0  0.76833  0.94738  0.23557  1.0000
  C   C2290     1.0  0.62756  0.54819  0.05453  1.0000
  C   C2291     1.0  0.60501  0.55006  0.04912  1.0000
  C   C2292     1.0  0.59552  0.57095  0.04422  1.0000
  C   C2293     1.0  0.60843  0.59008  0.04449  1.0000
  C   C2294     1.0  0.63093  0.58834  0.04951  1.0000
  C   C2295     1.0  0.64049  0.56751  0.05450  1.0000
  H   H1833     1.0  0.82711  0.90951  0.22206  1.0000
  C   C2296     1.0  0.87270  0.74290  0.22601  1.0000
  H   H1834     1.0  0.81594  0.98921  0.23848  1.0000
  C   C2297     1.0  0.94879  0.97911  0.01731  1.0000
  C   C2298     1.0  0.82507  0.98410  0.03771  1.0000
  C   C2299     1.0  0.84027  0.71073  0.22081  1.0000
  C   C2300     1.0  0.85020  0.74842  0.22897  1.0000
  C   C2301     1.0  0.79312  0.74768  0.18734  1.0000
  C   C2302     1.0  0.95404  0.99379  0.03294  1.0000
  H   H1835     1.0  0.57813  0.57236  0.04007  1.0000
  H   H1836     1.0  0.60097  0.60627  0.04079  1.0000
  H   H1837     1.0  0.97115  0.99856  0.03504  1.0000
  H   H1838     1.0  0.65795  0.56649  0.05846  1.0000
  H   H1839     1.0  0.61938  0.52986  0.13583  1.0000
  H   H1840     1.0  0.69142  0.53473  0.13484  1.0000
  C   C2303     1.0  0.84341  0.99532  0.18462  1.0000
  C   C2304     1.0  0.75981  0.67926  0.23918  1.0000
  H   H1841     1.0  0.66106  0.54184  0.02478  1.0000
  C   C2305     1.0  0.78735  0.71623  0.23240  1.0000
  H   H1842     1.0  0.80865  0.78830  0.21999  1.0000
  H   H1843     1.0  0.79189  0.72977  0.18637  1.0000
  C   C2306     1.0  0.61587  0.71218  0.05382  1.0000
  H   H1844     1.0  0.63528  0.55237  0.09699  1.0000
  C   C2307     1.0  0.77314  0.94957  0.15894  1.0000
  H   H1845     1.0  0.61777  0.69522  0.04857  1.0000
  C   C2308     1.0  0.71816  0.80574  0.23426  1.0000
  H   H1846     1.0  0.73956  0.81944  0.21015  1.0000
  C   C2309     1.0  0.88357  0.99010  0.18255  1.0000
  C   C2310     1.0  0.79903  0.75739  0.20605  1.0000
  H   H1847     1.0  0.58379  0.50966  0.13893  1.0000
  C   C2311     1.0  0.59635  0.74772  0.05248  1.0000
  H   H1848     1.0  0.64175  0.70847  0.07613  1.0000
  C   C2312     1.0  0.65823  0.63966  0.22992  1.0000
  C   C2313     1.0  0.80257  0.78048  0.20624  1.0000
  C   C2314     1.0  0.59924  0.72604  0.04541  1.0000
  C   C2315     1.0  0.67989  0.51569  0.01058  1.0000
  H   H1849     1.0  0.98104  0.76056  0.21776  1.0000
  C   C2316     1.0  0.92671  0.97308  0.01453  1.0000
  H   H1850     1.0  0.85815  0.82277  0.21311  1.0000
  C   C2317     1.0  0.79836  0.79381  0.18858  1.0000
  C   C2318     1.0  0.84641  0.82314  0.22601  1.0000
  H   H1851     1.0  0.92967  0.98115  0.08228  1.0000
  H   H1852     1.0  0.86784  0.96566  0.06768  1.0000
  C   C2319     1.0  0.75349  0.69635  0.22521  1.0000
  C   C2320     1.0  0.83760  0.97012  0.05087  1.0000
  H   H1853     1.0  0.90009  0.96739  0.14209  1.0000
  C   C2321     1.0  0.66267  0.54539  0.11729  1.0000
  C   C2322     1.0  0.65624  0.52553  0.08549  1.0000
  C   C2323     1.0  0.67634  0.53743  0.22471  1.0000
  C   C2324     1.0  0.68679  0.51323  0.19654  1.0000
  C   C2325     1.0  0.70755  0.78667  0.24217  1.0000
  C   C2326     1.0  0.87904  0.72124  0.22088  1.0000
  P   P78       1.0  0.63989  0.52161  0.06246  1.0000
  H   H1854     1.0  0.80937  0.97846  0.03179  1.0000
  C   C2327     1.0  0.85824  0.97700  0.05787  1.0000
  H   H1855     1.0  0.64087  0.60324  0.04959  1.0000
  H   H1856     1.0  0.77225  0.77541  0.23898  1.0000
  C   C2328     1.0  0.90988  0.98145  0.02750  1.0000
  H   H1857     1.0  0.51025  0.59398  0.06061  1.0000
  H   H1858     1.0  0.76942  0.00143  0.18620  1.0000
  C   C2329     1.0  0.82233  0.94281  0.20940  1.0000
  C   C2330     1.0  0.75888  0.96286  0.23499  1.0000
  H   H1859     1.0  0.63351  0.68923  0.24151  1.0000
  H   H1860     1.0  0.55846  0.51524  0.00469  1.0000
  S   S309      1.0  0.78619  0.85162  0.23928  1.0000
  C   C2331     1.0  0.91580  0.98335  0.09292  1.0000
  C   C2332     1.0  0.61836  0.51486  0.14550  1.0000
  C   C2333     1.0  0.81120  0.83598  0.24069  1.0000
  H   H1861     1.0  0.64451  0.53131  0.23923  1.0000
  H   H1862     1.0  0.69808  0.69234  0.23591  1.0000
  H   H1863     1.0  0.82885  0.83277  0.00196  1.0000
  C   C2334     1.0  0.50979  0.72190  0.23736  1.0000
  C   C2335     1.0  0.67509  0.51207  0.08968  1.0000
  H   H1864     1.0  0.84559  0.76530  0.23298  1.0000
  C   C2336     1.0  0.86283  0.70516  0.21825  1.0000
  H   H1865     1.0  0.86604  0.98846  0.13170  1.0000
  Fe  Fe156     1.0  0.52389  0.63909  0.99584  1.0000
  C   C2337     1.0  0.75000  0.51470  0.24142  1.0000
  C   C2338     1.0  0.86261  0.98251  0.18898  1.0000
  C   C2339     1.0  0.89653  0.99528  0.08687  1.0000
  H   H1866     1.0  0.70230  0.50509  0.11046  1.0000
  H   H1867     1.0  0.89835  0.98029  0.18624  1.0000
  S   S310      1.0  0.55035  0.66561  0.99436  1.0000
  P   P79       1.0  0.69712  0.74131  0.24256  1.0000
  H   H1868     1.0  0.52903  0.52518  0.04300  1.0000
  H   H1869     1.0  0.86230  0.80894  0.00858  1.0000
  C   C2340     1.0  0.51046  0.50790  0.02023  1.0000
  C   C2341     1.0  0.59220  0.50650  0.99611  1.0000
  C   C2342     1.0  0.64376  0.67436  0.24329  1.0000
  H   H1870     1.0  0.72159  0.52034  0.42148  1.0000
  C   C2343     1.0  0.97876  0.74161  0.26825  1.0000
  S   S311      1.0  0.92960  0.87224  0.46478  1.0000
  H   H1871     1.0  0.96968  0.78710  0.29044  1.0000
  Fe  Fe157     1.0  0.92406  0.83557  0.47017  1.0000
  S   S312      1.0  0.91470  0.80931  0.44626  1.0000
  C   C2344     1.0  0.62339  0.62175  0.29242  1.0000
  S   S313      1.0  0.68452  0.64718  0.28717  1.0000
  H   H1872     1.0  0.82103  0.96129  0.26667  1.0000
  H   H1873     1.0  0.95049  0.79888  0.38243  1.0000
  S   S314      1.0  0.63497  0.53716  0.46796  1.0000
  H   H1874     1.0  0.98598  0.75733  0.46753  1.0000
  H   H1875     1.0  0.53548  0.66319  0.33471  1.0000
  Fe  Fe158     1.0  0.66065  0.56228  0.47569  1.0000
  S   S315      1.0  0.68435  0.58068  0.45296  1.0000
  C   C2345     1.0  0.96272  0.86936  0.41727  1.0000
  Fe  Fe159     1.0  0.72368  0.58617  0.32778  1.0000
  S   S316      1.0  0.75262  0.57307  0.30844  1.0000
  S   S317      1.0  0.70907  0.56765  0.35668  1.0000
  Fe  Fe160     1.0  0.70927  0.61848  0.29216  1.0000
  S   S318      1.0  0.73629  0.60679  0.27032  1.0000
  P   P80       1.0  0.99398  0.81365  0.39524  1.0000
  Fe  Fe161     1.0  0.72873  0.57141  0.28168  1.0000
  S   S319      1.0  0.71824  0.53957  0.26429  1.0000
  Fe  Fe162     1.0  0.75839  0.60940  0.29845  1.0000
  S   S320      1.0  0.79280  0.62615  0.29352  1.0000
  S   S321      1.0  0.69987  0.58375  0.30139  1.0000
  S   S322      1.0  0.73133  0.62219  0.31984  1.0000
  Fe  Fe163     1.0  0.88621  0.77868  0.27669  1.0000
  S   S323      1.0  0.89372  0.74192  0.27500  1.0000
  C   C2346     1.0  0.95066  0.86541  0.38190  1.0000
  Fe  Fe164     1.0  0.89700  0.78058  0.32331  1.0000
  S   S324      1.0  0.90498  0.74383  0.32478  1.0000
  S   S325      1.0  0.89940  0.80788  0.34763  1.0000
  Fe  Fe165     1.0  0.92377  0.74961  0.29419  1.0000
  S   S326      1.0  0.96018  0.73753  0.29002  1.0000
  Fe  Fe166     1.0  0.87413  0.73902  0.30514  1.0000
  S   S327      1.0  0.84256  0.71798  0.31226  1.0000
  S   S328      1.0  0.91722  0.78643  0.29396  1.0000
  S   S329      1.0  0.86537  0.77579  0.30567  1.0000
  C   C2347     1.0  0.62746  0.50640  0.41562  1.0000
  H   H1876     1.0  0.77764  0.97803  0.25918  1.0000
  C   C2348     1.0  0.78788  0.92506  0.35418  1.0000
  H   H1877     1.0  0.95461  0.75668  0.24767  1.0000
  C   C2349     1.0  0.80550  0.65256  0.29786  1.0000
  C   C2350     1.0  0.79579  0.66878  0.31054  1.0000
  C   C2351     1.0  0.80722  0.68869  0.31447  1.0000
  C   C2352     1.0  0.82838  0.69300  0.30558  1.0000
  C   C2353     1.0  0.83768  0.67716  0.29227  1.0000
  C   C2354     1.0  0.82645  0.65708  0.28865  1.0000
  H   H1878     1.0  0.77981  0.66564  0.31788  1.0000
  H   H1879     1.0  0.79974  0.70069  0.32479  1.0000
  H   H1880     1.0  0.85375  0.68013  0.28505  1.0000
  H   H1881     1.0  0.83418  0.64482  0.27874  1.0000
  H   H1882     1.0  0.63175  0.66325  0.41301  1.0000
  C   C2355     1.0  0.63060  0.52731  0.40583  1.0000
  H   H1883     1.0  0.77535  0.88950  0.26701  1.0000
  H   H1884     1.0  0.53387  0.70595  0.27965  1.0000
  H   H1885     1.0  0.64146  0.58238  0.42838  1.0000
  H   H1886     1.0  0.64418  0.72545  0.46324  1.0000
  H   H1887     1.0  0.74382  0.74760  0.25435  1.0000
  H   H1888     1.0  0.96207  0.81598  0.31657  1.0000
  S   S330      1.0  0.87777  0.79835  0.24724  1.0000
  H   H1889     1.0  0.75446  0.69483  0.29939  1.0000
  H   H1890     1.0  0.55889  0.61938  0.29281  1.0000
  C   C2356     1.0  0.99590  0.82773  0.31620  1.0000
  C   C2357     1.0  0.61221  0.61254  0.30986  1.0000
  H   H1891     1.0  0.84031  0.80399  0.27591  1.0000
  C   C2358     1.0  0.62698  0.61312  0.43876  1.0000
  C   C2359     1.0  0.66967  0.65142  0.26391  1.0000
  C   C2360     1.0  0.69066  0.57710  0.42605  1.0000
  C   C2361     1.0  0.70469  0.59239  0.41555  1.0000
  C   C2362     1.0  0.71020  0.59014  0.39426  1.0000
  C   C2363     1.0  0.70189  0.57239  0.38322  1.0000
  C   C2364     1.0  0.68767  0.55726  0.39368  1.0000
  C   C2365     1.0  0.68192  0.55969  0.41487  1.0000
  H   H1892     1.0  0.71152  0.60596  0.42401  1.0000
  H   H1893     1.0  0.72139  0.60176  0.38661  1.0000
  H   H1894     1.0  0.68133  0.54339  0.38536  1.0000
  H   H1895     1.0  0.67109  0.54789  0.42274  1.0000
  H   H1896     1.0  0.78699  0.78857  0.30225  1.0000
  C   C2366     1.0  0.74350  0.70389  0.28881  1.0000
  C   C2367     1.0  0.79043  0.77937  0.28834  1.0000
  C   C2368     1.0  0.62396  0.63603  0.43466  1.0000
  C   C2369     1.0  0.83643  0.81247  0.26138  1.0000
  H   H1897     1.0  0.76281  0.97417  0.33995  1.0000
  C   C2370     1.0  0.97874  0.81397  0.31008  1.0000
  C   C2371     1.0  0.65575  0.54903  0.30075  1.0000
  C   C2372     1.0  0.91073  0.80943  0.41876  1.0000
  C   C2373     1.0  0.90995  0.82907  0.40657  1.0000
  C   C2374     1.0  0.90624  0.82823  0.38494  1.0000
  C   C2375     1.0  0.90359  0.80777  0.37509  1.0000
  C   C2376     1.0  0.90458  0.78810  0.38724  1.0000
  C   C2377     1.0  0.90803  0.78897  0.40889  1.0000
  H   H1898     1.0  0.91192  0.84492  0.41387  1.0000
  H   H1899     1.0  0.90538  0.84357  0.37579  1.0000
  H   H1900     1.0  0.90276  0.77223  0.37997  1.0000
  H   H1901     1.0  0.90863  0.77365  0.41811  1.0000
  H   H1902     1.0  0.95929  0.80921  0.42793  1.0000
  H   H1903     1.0  0.89467  0.68972  0.28990  1.0000
  C   C2378     1.0  0.63331  0.76340  0.27772  1.0000
  H   H1904     1.0  0.65399  0.76425  0.30473  1.0000
  C   C2379     1.0  0.67267  0.75387  0.27773  1.0000
  H   H1905     1.0  0.87166  0.85669  0.25023  1.0000
  C   C2380     1.0  0.96889  0.96291  0.45562  1.0000
  C   C2381     1.0  0.71538  0.72669  0.26063  1.0000
  H   H1906     1.0  0.59548  0.67643  0.29983  1.0000
  C   C2382     1.0  0.00123  0.78632  0.36106  1.0000
  H   H1907     1.0  0.96240  0.87838  0.43165  1.0000
  C   C2383     1.0  0.58885  0.61154  0.30983  1.0000
  H   H1908     1.0  0.76619  0.99050  0.39025  1.0000
  C   C2384     1.0  0.61789  0.64529  0.47891  1.0000
  C   C2385     1.0  0.89215  0.84624  0.27594  1.0000
  C   C2386     1.0  0.64406  0.56872  0.30519  1.0000
  C   C2387     1.0  0.98300  0.79765  0.29543  1.0000
  H   H1909     1.0  0.84655  0.99864  0.35582  1.0000
  C   C2388     1.0  0.78618  0.89539  0.27900  1.0000
  C   C2389     1.0  0.60529  0.71558  0.42683  1.0000
  H   H1910     1.0  0.93937  0.89159  0.40201  1.0000
  C   C2390     1.0  0.73736  0.73360  0.26324  1.0000
  H   H1911     1.0  0.54242  0.60865  0.43578  1.0000
  H   H1912     1.0  0.57019  0.59064  0.40223  1.0000
  H   H1913     1.0  0.52518  0.73146  0.30699  1.0000
  H   H1914     1.0  0.61838  0.76896  0.28581  1.0000
  H   H1915     1.0  0.58162  0.51939  0.44510  1.0000
  H   H1916     1.0  0.69178  0.50487  0.40078  1.0000
  C   C2391     1.0  0.64106  0.57527  0.32587  1.0000
  C   C2392     1.0  0.53146  0.68503  0.30758  1.0000
  C   C2393     1.0  0.54367  0.67155  0.32168  1.0000
  C   C2394     1.0  0.56670  0.66861  0.31898  1.0000
  H   H1917     1.0  0.69680  0.78810  0.25570  1.0000
  H   H1918     1.0  0.79308  0.98643  0.31364  1.0000
  C   C2395     1.0  0.54281  0.69559  0.29089  1.0000
  H   H1919     1.0  0.75730  0.93362  0.33854  1.0000
  H   H1920     1.0  0.51541  0.63767  0.44701  1.0000
  C   C2396     1.0  0.65337  0.76075  0.28833  1.0000
  C   C2397     1.0  0.64066  0.64132  0.48249  1.0000
  H   H1921     1.0  0.78448  0.66753  0.26095  1.0000
  H   H1922     1.0  0.78532  0.90726  0.35366  1.0000
  C   C2398     1.0  0.60172  0.69298  0.43130  1.0000
  C   C2399     1.0  0.61139  0.63002  0.27536  1.0000
  H   H1923     1.0  0.62039  0.60542  0.45294  1.0000
  H   H1924     1.0  0.63825  0.57909  0.29235  1.0000
  H   H1925     1.0  0.68112  0.62118  0.24978  1.0000
  H   H1926     1.0  0.62012  0.63700  0.26191  1.0000
  C   C2400     1.0  0.62878  0.69379  0.45884  1.0000
  C   C2401     1.0  0.57771  0.67897  0.30215  1.0000
  H   H1927     1.0  0.58259  0.61452  0.43863  1.0000
  C   C2402     1.0  0.64937  0.56139  0.34201  1.0000
  H   H1928     1.0  0.61890  0.56127  0.40266  1.0000
  C   C2403     1.0  0.98999  0.97665  0.49142  1.0000
  H   H1929     1.0  0.82492  0.96202  0.37168  1.0000
  S   S331      1.0  0.95639  0.83007  0.48717  1.0000
  H   H1930     1.0  0.98812  0.93248  0.45946  1.0000
  C   C2404     1.0  0.62057  0.72728  0.43834  1.0000
  C   C2405     1.0  0.59812  0.54211  0.42378  1.0000
  H   H1931     1.0  0.61712  0.76142  0.24811  1.0000
  C   C2406     1.0  0.97446  0.99099  0.48153  1.0000
  H   H1932     1.0  0.53024  0.56597  0.46508  1.0000
  H   H1933     1.0  0.80480  0.82511  0.27237  1.0000
  H   H1934     1.0  0.53976  0.51226  0.47643  1.0000
  C   C2407     1.0  0.52390  0.51953  0.47207  1.0000
  C   C2408     1.0  0.99149  0.79592  0.41823  1.0000
  C   C2409     1.0  0.81634  0.82454  0.25936  1.0000
  S   S332      1.0  0.57615  0.56020  0.47491  1.0000
  C   C2410     1.0  0.56575  0.69247  0.28813  1.0000
  C   C2411     1.0  0.76423  0.98038  0.24832  1.0000
  H   H1935     1.0  0.58983  0.68414  0.42222  1.0000
  C   C2412     1.0  0.75131  0.72231  0.27736  1.0000
  C   C2413     1.0  0.97594  0.85013  0.41566  1.0000
  H   H1936     1.0  0.62329  0.74481  0.43492  1.0000
  Fe  Fe167     1.0  0.61121  0.55707  0.48781  1.0000
  H   H1937     1.0  0.68579  0.50315  0.47773  1.0000
  C   C2414     1.0  0.72838  0.51601  0.24982  1.0000
  H   H1938     1.0  0.76832  0.72758  0.27922  1.0000
  C   C2415     1.0  0.57691  0.61996  0.29274  1.0000
  H   H1939     1.0  0.71554  0.68267  0.29532  1.0000
  C   C2416     1.0  0.65604  0.67053  0.26153  1.0000
  H   H1940     1.0  0.95628  0.78516  0.45919  1.0000
  C   C2417     1.0  0.77788  0.78371  0.27056  1.0000
  H   H1941     1.0  0.51706  0.67273  0.26858  1.0000
  H   H1942     1.0  0.69050  0.70308  0.27120  1.0000
  H   H1943     1.0  0.93835  0.77513  0.35408  1.0000
  C   C2418     1.0  0.67200  0.74942  0.25641  1.0000
  H   H1944     1.0  0.82549  0.73922  0.27010  1.0000
  H   H1945     1.0  0.53243  0.51923  0.43948  1.0000
  H   H1946     1.0  0.81714  0.75976  0.30192  1.0000
  C   C2419     1.0  0.66122  0.54184  0.33748  1.0000
  C   C2420     1.0  0.61593  0.54505  0.40982  1.0000
  C   C2421     1.0  0.63233  0.71638  0.45430  1.0000
  H   H1947     1.0  0.60000  0.56493  0.34658  1.0000
  C   C2422     1.0  0.70749  0.70854  0.27266  1.0000
  C   C2423     1.0  0.82160  0.95614  0.25067  1.0000
  H   H1948     1.0  0.81905  0.92173  0.37017  1.0000
  H   H1949     1.0  0.65311  0.63982  0.38878  1.0000
  H   H1950     1.0  0.71868  0.51983  0.45997  1.0000
  C   C2424     1.0  0.94993  0.87691  0.40049  1.0000
  H   H1951     1.0  0.57413  0.70044  0.27491  1.0000
  H   H1952     1.0  0.66888  0.53202  0.34989  1.0000
  C   C2425     1.0  0.66458  0.53576  0.31686  1.0000
  C   C2426     1.0  0.95592  0.77826  0.35602  1.0000
  C   C2427     1.0  0.72158  0.69704  0.28650  1.0000
  P   P81       1.0  0.62798  0.60181  0.33179  1.0000
  H   H1953     1.0  0.59613  0.72406  0.41449  1.0000
  C   C2428     1.0  0.99427  0.77254  0.34526  1.0000
  C   C2429     1.0  0.60954  0.50360  0.42964  1.0000
  H   H1954     1.0  0.94062  0.87116  0.36892  1.0000
  H   H1955     1.0  0.64770  0.56619  0.35807  1.0000
  C   C2430     1.0  0.55642  0.58087  0.48216  1.0000
  H   H1956     1.0  0.64143  0.62250  0.29198  1.0000
  C   C2431     1.0  0.87306  0.85572  0.26700  1.0000
  C   C2432     1.0  0.87059  0.96850  0.48984  1.0000
  H   H1957     1.0  0.65776  0.59934  0.39608  1.0000
  H   H1958     1.0  0.77444  0.92939  0.27606  1.0000
  C   C2433     1.0  0.64544  0.63236  0.40257  1.0000
  H   H1959     1.0  0.76481  0.79637  0.27064  1.0000
  C   C2434     1.0  0.81022  0.95619  0.36416  1.0000
  C   C2435     1.0  0.88556  0.97443  0.47389  1.0000
  C   C2436     1.0  0.58818  0.62924  0.27553  1.0000
  C   C2437     1.0  0.84074  0.63206  0.33821  1.0000
  C   C2438     1.0  0.82018  0.63758  0.34723  1.0000
  C   C2439     1.0  0.81869  0.65445  0.36174  1.0000
  C   C2440     1.0  0.83777  0.66587  0.36725  1.0000
  C   C2441     1.0  0.85850  0.66052  0.35816  1.0000
  C   C2442     1.0  0.85987  0.64332  0.34376  1.0000
  P   P82       1.0  0.88334  0.67500  0.36530  1.0000
  C   C2443     1.0  0.90009  0.68097  0.34222  1.0000
  C   C2444     1.0  0.87541  0.70130  0.37658  1.0000
  C   C2445     1.0  0.87093  0.71994  0.36365  1.0000
  C   C2446     1.0  0.86569  0.74059  0.37217  1.0000
  C   C2447     1.0  0.86450  0.74269  0.39373  1.0000
  C   C2448     1.0  0.86810  0.72402  0.40675  1.0000
  C   C2449     1.0  0.87333  0.70333  0.39823  1.0000
  C   C2450     1.0  0.92311  0.68441  0.34357  1.0000
  C   C2451     1.0  0.93575  0.68950  0.32567  1.0000
  H   H1960     1.0  0.96424  0.83755  0.36563  1.0000
  C   C2452     1.0  0.90268  0.68797  0.30484  1.0000
  C   C2453     1.0  0.89001  0.68302  0.32270  1.0000
  C   C2454     1.0  0.89936  0.65830  0.38373  1.0000
  C   C2455     1.0  0.91559  0.66827  0.39579  1.0000
  C   C2456     1.0  0.92797  0.65547  0.41011  1.0000
  C   C2457     1.0  0.92428  0.63262  0.41249  1.0000
  C   C2458     1.0  0.90820  0.62256  0.40057  1.0000
  C   C2459     1.0  0.89577  0.63532  0.38624  1.0000
  H   H1961     1.0  0.84166  0.61931  0.32659  1.0000
  H   H1962     1.0  0.80533  0.62907  0.34255  1.0000
  H   H1963     1.0  0.80266  0.65889  0.36846  1.0000
  H   H1964     1.0  0.83618  0.67899  0.37839  1.0000
  H   H1965     1.0  0.87567  0.63883  0.33659  1.0000
  H   H1966     1.0  0.87147  0.71854  0.34696  1.0000
  H   H1967     1.0  0.86273  0.75500  0.36201  1.0000
  H   H1968     1.0  0.86077  0.75879  0.40032  1.0000
  H   H1969     1.0  0.86692  0.72564  0.42346  1.0000
  H   H1970     1.0  0.87578  0.68903  0.40858  1.0000
  H   H1971     1.0  0.93139  0.68346  0.35834  1.0000
  H   H1972     1.0  0.95343  0.69252  0.32674  1.0000
  C   C2460     1.0  0.82475  0.93366  0.24617  1.0000
  C   C2461     1.0  0.50776  0.52527  0.48713  1.0000
  H   H1973     1.0  0.87227  0.68113  0.32128  1.0000
  H   H1974     1.0  0.91862  0.68598  0.39420  1.0000
  H   H1975     1.0  0.94042  0.66329  0.41938  1.0000
  H   H1976     1.0  0.93387  0.62271  0.42360  1.0000
  H   H1977     1.0  0.90531  0.60485  0.40243  1.0000
  H   H1978     1.0  0.88338  0.62711  0.37727  1.0000
  C   C2462     1.0  0.60972  0.59829  0.35418  1.0000
  C   C2463     1.0  0.60657  0.61557  0.36825  1.0000
  C   C2464     1.0  0.59241  0.61276  0.38554  1.0000
  C   C2465     1.0  0.58107  0.59281  0.38876  1.0000
  C   C2466     1.0  0.58380  0.57567  0.37463  1.0000
  C   C2467     1.0  0.59808  0.57836  0.35740  1.0000
  C   C2468     1.0  0.64896  0.62178  0.33805  1.0000
  C   C2469     1.0  0.64563  0.64459  0.33335  1.0000
  C   C2470     1.0  0.66197  0.65996  0.33800  1.0000
  C   C2471     1.0  0.68160  0.65277  0.34762  1.0000
  C   C2472     1.0  0.68481  0.63023  0.35277  1.0000
  C   C2473     1.0  0.66862  0.61481  0.34798  1.0000
  C   C2474     1.0  0.81225  0.75170  0.26995  1.0000
  H   H1979     1.0  0.61511  0.63120  0.36601  1.0000
  H   H1980     1.0  0.59033  0.62604  0.39653  1.0000
  C   C2475     1.0  0.98547  0.79642  0.37428  1.0000
  C   C2476     1.0  0.63877  0.59993  0.42472  1.0000
  H   H1981     1.0  0.63068  0.65054  0.32571  1.0000
  H   H1982     1.0  0.65973  0.67736  0.33355  1.0000
  H   H1983     1.0  0.69453  0.66455  0.35073  1.0000
  H   H1984     1.0  0.70014  0.62451  0.35997  1.0000
  H   H1985     1.0  0.67181  0.59749  0.35182  1.0000
  C   C2477     1.0  0.80751  0.76329  0.28808  1.0000
  H   H1986     1.0  0.57499  0.56020  0.37713  1.0000
  C   C2478     1.0  0.67076  0.63600  0.24804  1.0000
  C   C2479     1.0  0.64805  0.60951  0.40664  1.0000
  C   C2480     1.0  0.79983  0.75612  0.25196  1.0000
  H   H1987     1.0  0.65908  0.54466  0.28475  1.0000
  H   H1988     1.0  0.63805  0.68577  0.47131  1.0000
  C   C2481     1.0  0.78410  0.82612  0.33809  1.0000
  C   C2482     1.0  0.79543  0.80577  0.34082  1.0000
  C   C2483     1.0  0.81805  0.80408  0.33568  1.0000
  C   C2484     1.0  0.82942  0.82276  0.32800  1.0000
  C   C2485     1.0  0.81819  0.84332  0.32523  1.0000
  C   C2486     1.0  0.79544  0.84487  0.33048  1.0000
  P   P83       1.0  0.83337  0.86819  0.31800  1.0000
  C   C2487     1.0  0.81501  0.88787  0.30457  1.0000
  C   C2488     1.0  0.84458  0.87992  0.34117  1.0000
  C   C2489     1.0  0.86123  0.89604  0.33939  1.0000
  C   C2490     1.0  0.87067  0.90460  0.35720  1.0000
  C   C2491     1.0  0.86374  0.89694  0.37691  1.0000
  C   C2492     1.0  0.84726  0.88083  0.37882  1.0000
  C   C2493     1.0  0.83764  0.87238  0.36105  1.0000
  C   C2494     1.0  0.80065  0.88044  0.28925  1.0000
  H   H1989     1.0  0.91550  0.92548  0.47185  1.0000
  C   C2495     1.0  0.78571  0.91787  0.28407  1.0000
  C   C2496     1.0  0.79990  0.92545  0.29929  1.0000
  C   C2497     1.0  0.81455  0.91056  0.30947  1.0000
  C   C2498     1.0  0.85659  0.86056  0.30133  1.0000
  C   C2499     1.0  0.85526  0.86273  0.27959  1.0000
  C   C2500     1.0  0.80692  0.93321  0.36339  1.0000
  H   H1990     1.0  0.90832  0.83654  0.30454  1.0000
  C   C2501     1.0  0.89373  0.84429  0.29754  1.0000
  C   C2502     1.0  0.87612  0.85154  0.31019  1.0000
  H   H1991     1.0  0.76656  0.82743  0.34210  1.0000
  H   H1992     1.0  0.78672  0.79128  0.34690  1.0000
  H   H1993     1.0  0.82691  0.78833  0.33784  1.0000
  H   H1994     1.0  0.84704  0.82104  0.32463  1.0000
  H   H1995     1.0  0.78650  0.86062  0.32900  1.0000
  H   H1996     1.0  0.86707  0.90180  0.32420  1.0000
  H   H1997     1.0  0.88359  0.91695  0.35574  1.0000
  H   H1998     1.0  0.87126  0.90331  0.39074  1.0000
  H   H1999     1.0  0.84217  0.87465  0.39412  1.0000
  H   H2000     1.0  0.82514  0.85969  0.36299  1.0000
  H   H2001     1.0  0.80069  0.86309  0.28506  1.0000
  H   H2002     1.0  0.99471  0.90263  0.41187  1.0000
  H   H2003     1.0  0.91359  0.96339  0.45537  1.0000
  H   H2004     1.0  0.79948  0.94288  0.30324  1.0000
  H   H2005     1.0  0.82525  0.91687  0.32122  1.0000
  H   H2006     1.0  0.84040  0.86916  0.27214  1.0000
  H   H2007     1.0  0.56906  0.67907  0.46453  1.0000
  H   H2008     1.0  0.57977  0.60438  0.32294  1.0000
  H   H2009     1.0  0.57600  0.65810  0.32982  1.0000
  H   H2010     1.0  0.87751  0.84931  0.32690  1.0000
  C   C2503     1.0  0.54071  0.66035  0.45594  1.0000
  C   C2504     1.0  0.53314  0.64069  0.44755  1.0000
  C   C2505     1.0  0.54840  0.62436  0.44121  1.0000
  C   C2506     1.0  0.57125  0.62777  0.44298  1.0000
  C   C2507     1.0  0.57904  0.64781  0.45078  1.0000
  C   C2508     1.0  0.56354  0.66391  0.45760  1.0000
  P   P84       1.0  0.60853  0.65273  0.45305  1.0000
  C   C2509     1.0  0.61339  0.68192  0.44739  1.0000
  C   C2510     1.0  0.63334  0.64560  0.41644  1.0000
  C   C2511     1.0  0.96393  0.84617  0.38018  1.0000
  H   H2011     1.0  0.68813  0.75226  0.28612  1.0000
  H   H2012     1.0  0.65494  0.68243  0.27383  1.0000
  H   H2013     1.0  0.50842  0.73649  0.26753  1.0000
  C   C2512     1.0  0.00124  0.73475  0.26996  1.0000
  S   S333      1.0  0.99109  0.88424  0.46822  1.0000
  P   P85       1.0  0.79801  0.00104  0.35693  1.0000
  H   H2014     1.0  0.99237  0.84071  0.32718  1.0000
  H   H2015     1.0  0.93533  0.69538  0.29250  1.0000
  C   C2513     1.0  0.79444  0.97124  0.35566  1.0000
  H   H2016     1.0  0.52876  0.67245  0.46179  1.0000
  Fe  Fe168     1.0  0.96099  0.86707  0.48334  1.0000
  H   H2017     1.0  0.65269  0.64220  0.46980  1.0000
  C   C2514     1.0  0.50789  0.73450  0.31081  1.0000
  H   H2018     1.0  0.98565  0.84455  0.42895  1.0000
  C   C2515     1.0  0.97079  0.78362  0.44904  1.0000
  C   C2516     1.0  0.96282  0.79188  0.37192  1.0000
  C   C2517     1.0  0.99515  0.95579  0.48325  1.0000
  C   C2518     1.0  0.77210  0.93990  0.34568  1.0000
  H   H2019     1.0  0.58730  0.55606  0.42768  1.0000
  C   C2519     1.0  0.98457  0.94891  0.46540  1.0000
  C   C2520     1.0  0.78240  0.77200  0.25249  1.0000
  H   H2020     1.0  0.96622  0.75803  0.33036  1.0000
  C   C2521     1.0  0.97625  0.83808  0.39726  1.0000
  C   C2522     1.0  0.59486  0.52136  0.43358  1.0000
  H   H2021     1.0  0.67475  0.52124  0.31331  1.0000
  H   H2022     1.0  0.51250  0.77001  0.31134  1.0000
  C   C2523     1.0  0.51978  0.52346  0.45092  1.0000
  C   C2524     1.0  0.70749  0.51253  0.42924  1.0000
  C   C2525     1.0  0.96379  0.98383  0.46366  1.0000
  C   C2526     1.0  0.77531  0.96288  0.34648  1.0000
  C   C2527     1.0  0.97162  0.76861  0.34268  1.0000
  H   H2023     1.0  0.57899  0.63583  0.26228  1.0000
  C   C2528     1.0  0.90190  0.95888  0.46763  1.0000
  C   C2529     1.0  0.63255  0.75909  0.25653  1.0000
  C   C2530     1.0  0.90301  0.93739  0.47692  1.0000
  H   H2024     1.0  0.90541  0.83981  0.26608  1.0000
  C   C2531     1.0  0.80210  0.00183  0.31347  1.0000
  C   C2532     1.0  0.51850  0.59592  0.47947  1.0000
  C   C2533     1.0  0.92555  0.69117  0.30631  1.0000
  H   H2025     1.0  0.82673  0.92131  0.25861  1.0000
  S   S334      1.0  0.88390  0.00065  0.46073  1.0000
  C   C2534     1.0  0.97267  0.79745  0.43132  1.0000
  C   C2535     1.0  0.88762  0.93122  0.49247  1.0000
  C   C2536     1.0  0.52418  0.61412  0.49128  1.0000
  C   C2537     1.0  0.53463  0.57956  0.47474  1.0000
  C   C2538     1.0  0.65175  0.75205  0.24594  1.0000
  H   H2026     1.0  0.64481  0.53008  0.39563  1.0000
  C   C2539     1.0  0.98748  0.76789  0.45367  1.0000
  H   H2027     1.0  0.96020  0.95727  0.44216  1.0000
  C   C2540     1.0  0.97177  0.75127  0.24936  1.0000
  C   C2541     1.0  0.79337  0.69918  0.24675  1.0000
  H   H2028     1.0  0.80855  0.70018  0.25559  1.0000
  C   C2542     1.0  0.68722  0.50314  0.46092  1.0000
  C   C2543     1.0  0.70582  0.51237  0.45092  1.0000
  H   H2029     1.0  0.58509  0.64641  0.49335  1.0000
  C   C2544     1.0  0.85166  0.81193  0.24479  1.0000
  C   C2545     1.0  0.77972  0.68071  0.24997  1.0000
  C   C2546     1.0  0.75238  0.00089  0.24780  1.0000
  H   H2030     1.0  0.95099  0.99398  0.45627  1.0000
  C   C2547     1.0  0.69050  0.50361  0.41753  1.0000
  H   H2031     1.0  0.76145  0.52803  0.24399  1.0000
  Fe  Fe169     1.0  0.93726  0.83754  0.51698  1.0000
  S   S335      1.0  0.94354  0.81506  0.54625  1.0000
  S   S336      1.0  0.94471  0.87432  0.51423  1.0000
  Fe  Fe170     1.0  0.91983  0.74670  0.69720  1.0000
  S   S337      1.0  0.91444  0.78336  0.69191  1.0000
  S   S338      1.0  0.95525  0.73360  0.70531  1.0000
  Fe  Fe171     1.0  0.87021  0.73633  0.68763  1.0000
  S   S339      1.0  0.86273  0.77296  0.68208  1.0000
  S   S340      1.0  0.83835  0.71593  0.68225  1.0000
  Fe  Fe172     1.0  0.89487  0.77506  0.66359  1.0000
  S   S341      1.0  0.89299  0.79838  0.63433  1.0000
  Fe  Fe173     1.0  0.88286  0.77849  0.71034  1.0000
  H   H2032     1.0  0.50910  0.53151  0.62536  1.0000
  S   S342      1.0  0.90155  0.73812  0.66760  1.0000
  S   S343      1.0  0.88890  0.74199  0.71728  1.0000
  Fe  Fe174     1.0  0.70263  0.61626  0.69639  1.0000
  S   S344      1.0  0.72819  0.60409  0.71933  1.0000
  S   S345      1.0  0.67766  0.64468  0.70162  1.0000
  Fe  Fe175     1.0  0.72064  0.58650  0.66183  1.0000
  S   S346      1.0  0.74808  0.57269  0.68263  1.0000
  S   S347      1.0  0.71878  0.57244  0.62884  1.0000
  Fe  Fe176     1.0  0.72167  0.56940  0.70776  1.0000
  S   S348      1.0  0.71334  0.53990  0.73060  1.0000
  Fe  Fe177     1.0  0.75277  0.60833  0.69261  1.0000
  S   S349      1.0  0.78745  0.62316  0.69860  1.0000
  S   S350      1.0  0.69409  0.58170  0.68651  1.0000
  S   S351      1.0  0.72740  0.62205  0.67011  1.0000
  Fe  Fe178     1.0  0.64613  0.56295  0.52225  1.0000
  S   S352      1.0  0.64889  0.58008  0.55382  1.0000
  C   C2548     1.0  0.54596  0.61546  0.49880  1.0000
  S   S353      1.0  0.61894  0.53811  0.51746  1.0000
  C   C2549     1.0  0.65098  0.66895  0.72783  1.0000
  H   H2033     1.0  0.89709  0.84739  0.69747  1.0000
  H   H2034     1.0  0.74849  0.50901  0.71580  1.0000
  H   H2035     1.0  0.90771  0.64948  0.56404  1.0000
  Fe  Fe179     1.0  0.64415  0.51980  0.49802  1.0000
  C   C2550     1.0  0.52636  0.58762  0.54438  1.0000
  C   C2551     1.0  0.69885  0.57464  0.60838  1.0000
  C   C2552     1.0  0.70199  0.56159  0.59064  1.0000
  C   C2553     1.0  0.68690  0.56285  0.57393  1.0000
  C   C2554     1.0  0.66838  0.57730  0.57463  1.0000
  C   C2555     1.0  0.66514  0.59020  0.59247  1.0000
  C   C2556     1.0  0.68019  0.58888  0.60921  1.0000
  H   H2036     1.0  0.71629  0.55047  0.58976  1.0000
  H   H2037     1.0  0.68972  0.55280  0.56042  1.0000
  H   H2038     1.0  0.65094  0.60146  0.59327  1.0000
  H   H2039     1.0  0.67748  0.59907  0.62265  1.0000
  C   C2557     1.0  0.97583  0.74326  0.72291  1.0000
  H   H2040     1.0  0.85335  0.99859  0.58347  1.0000
  C   C2558     1.0  0.97948  0.85733  0.61538  1.0000
  H   H2041     1.0  0.92868  0.83779  0.72054  1.0000
  C   C2559     1.0  0.82411  0.69031  0.68776  1.0000
  C   C2560     1.0  0.83329  0.67299  0.70005  1.0000
  C   C2561     1.0  0.82187  0.65270  0.70303  1.0000
  C   C2562     1.0  0.80076  0.64950  0.69436  1.0000
  C   C2563     1.0  0.79125  0.66707  0.68261  1.0000
  C   C2564     1.0  0.80290  0.68721  0.67925  1.0000
  H   H2042     1.0  0.84929  0.67506  0.70713  1.0000
  H   H2043     1.0  0.82944  0.63935  0.71222  1.0000
  H   H2044     1.0  0.77513  0.66495  0.67575  1.0000
  H   H2045     1.0  0.79546  0.70045  0.66982  1.0000
  H   H2046     1.0  0.54649  0.53462  0.54406  1.0000
  C   C2565     1.0  0.83286  0.81397  0.72386  1.0000
  C   C2566     1.0  0.81241  0.82537  0.72618  1.0000
  H   H2047     1.0  0.83641  0.80477  0.70997  1.0000
  H   H2048     1.0  0.80034  0.82490  0.71393  1.0000
  P   P86       1.0  0.51231  0.52002  0.51460  1.0000
  H   H2049     1.0  0.64977  0.54861  0.62006  1.0000
  H   H2050     1.0  0.52474  0.75637  0.72141  1.0000
  H   H2051     1.0  0.60161  0.69862  0.67143  1.0000
  H   H2052     1.0  0.61877  0.66380  0.69705  1.0000
  C   C2567     1.0  0.74825  0.88046  0.70767  1.0000
  C   C2568     1.0  0.95259  0.75085  0.64670  1.0000
  C   C2569     1.0  0.60003  0.73833  0.71796  1.0000
  H   H2053     1.0  0.97688  0.85741  0.64871  1.0000
  C   C2570     1.0  0.50335  0.56483  0.52316  1.0000
  S   S354      1.0  0.67211  0.54333  0.50461  1.0000
  C   C2571     1.0  0.97923  0.84719  0.63522  1.0000
  C   C2572     1.0  0.73021  0.81730  0.73796  1.0000
  C   C2573     1.0  0.66366  0.51538  0.61852  1.0000
  C   C2574     1.0  0.66946  0.72472  0.72907  1.0000
  H   H2054     1.0  0.53015  0.60374  0.55045  1.0000
  C   C2575     1.0  0.92900  0.81074  0.57055  1.0000
  C   C2576     1.0  0.91116  0.82432  0.57698  1.0000
  C   C2577     1.0  0.90056  0.82036  0.59651  1.0000
  C   C2578     1.0  0.90746  0.80272  0.60995  1.0000
  C   C2579     1.0  0.92518  0.78905  0.60343  1.0000
  C   C2580     1.0  0.93589  0.79310  0.58400  1.0000
  H   H2055     1.0  0.90558  0.83796  0.56693  1.0000
  H   H2056     1.0  0.88684  0.83107  0.60117  1.0000
  H   H2057     1.0  0.93051  0.77516  0.61316  1.0000
  H   H2058     1.0  0.94958  0.78239  0.57927  1.0000
  C   C2581     1.0  0.60495  0.62604  0.66137  1.0000
  H   H2059     1.0  0.82915  0.90017  0.64966  1.0000
  C   C2582     1.0  0.74265  0.72370  0.66884  1.0000
  C   C2583     1.0  0.74225  0.70427  0.68130  1.0000
  C   C2584     1.0  0.74937  0.70472  0.70183  1.0000
  C   C2585     1.0  0.75669  0.72462  0.71000  1.0000
  C   C2586     1.0  0.75765  0.74409  0.69747  1.0000
  C   C2587     1.0  0.75030  0.74358  0.67688  1.0000
  P   P87       1.0  0.76735  0.76966  0.70820  1.0000
  C   C2588     1.0  0.74470  0.78406  0.72131  1.0000
  C   C2589     1.0  0.79011  0.76305  0.72562  1.0000
  H   H2060     1.0  0.80763  0.66254  0.62001  1.0000
  H   H2061     1.0  0.73053  0.52441  0.63297  1.0000
  H   H2062     1.0  0.55471  0.57103  0.55824  1.0000
  C   C2590     1.0  0.53566  0.54860  0.54016  1.0000
  C   C2591     1.0  0.80524  0.74576  0.72083  1.0000
  C   C2592     1.0  0.99199  0.76632  0.66318  1.0000
  C   C2593     1.0  0.58188  0.62960  0.66119  1.0000
  H   H2063     1.0  0.61265  0.61368  0.65149  1.0000
  C   C2594     1.0  0.75740  0.90045  0.71379  1.0000
  C   C2595     1.0  0.66492  0.65008  0.72600  1.0000
  C   C2596     1.0  0.77807  0.78748  0.68738  1.0000
  C   C2597     1.0  0.76417  0.80360  0.67774  1.0000
  C   C2598     1.0  0.77251  0.81760  0.66183  1.0000
  C   C2599     1.0  0.79470  0.81549  0.65529  1.0000
  C   C2600     1.0  0.80848  0.79919  0.66445  1.0000
  C   C2601     1.0  0.80024  0.78520  0.68039  1.0000
  H   H2064     1.0  0.73723  0.72326  0.65287  1.0000
  H   H2065     1.0  0.73662  0.68877  0.67500  1.0000
  H   H2066     1.0  0.74953  0.68950  0.71130  1.0000
  H   H2067     1.0  0.76201  0.72476  0.72595  1.0000
  H   H2068     1.0  0.75063  0.75839  0.66695  1.0000
  H   H2069     1.0  0.62126  0.75937  0.69907  1.0000
  C   C2602     1.0  0.80729  0.95583  0.66925  1.0000
  C   C2603     1.0  0.92491  0.63089  0.58818  1.0000
  H   H2070     1.0  0.55253  0.71683  0.68083  1.0000
  H   H2071     1.0  0.80301  0.73584  0.70722  1.0000
  H   H2072     1.0  0.51359  0.72680  0.67281  1.0000
  H   H2073     1.0  0.93903  0.61499  0.61547  1.0000
  H   H2074     1.0  0.55038  0.62944  0.50806  1.0000
  H   H2075     1.0  0.69126  0.77683  0.73876  1.0000
  H   H2076     1.0  0.72135  0.75686  0.72020  1.0000
  H   H2077     1.0  0.74688  0.80537  0.68246  1.0000
  H   H2078     1.0  0.76177  0.83010  0.65455  1.0000
  H   H2079     1.0  0.80122  0.82635  0.64300  1.0000
  H   H2080     1.0  0.82559  0.79729  0.65913  1.0000
  H   H2081     1.0  0.81127  0.77266  0.68712  1.0000
  H   H2082     1.0  0.62262  0.73355  0.66952  1.0000
  C   C2604     1.0  0.83877  0.63442  0.65605  1.0000
  C   C2605     1.0  0.85900  0.64529  0.65289  1.0000
  C   C2606     1.0  0.86073  0.66292  0.63819  1.0000
  C   C2607     1.0  0.84226  0.66857  0.62586  1.0000
  P   P88       1.0  0.88713  0.67637  0.63368  1.0000
  C   C2608     1.0  0.88370  0.70443  0.62333  1.0000
  C   C2609     1.0  0.90188  0.67957  0.65762  1.0000
  C   C2610     1.0  0.89005  0.68146  0.67644  1.0000
  C   C2611     1.0  0.90126  0.68493  0.69492  1.0000
  H   H2083     1.0  0.83603  0.72894  0.72862  1.0000
  C   C2612     1.0  0.93627  0.68575  0.67591  1.0000
  C   C2613     1.0  0.92508  0.68215  0.65739  1.0000
  C   C2614     1.0  0.89997  0.71378  0.60999  1.0000
  C   C2615     1.0  0.89762  0.73580  0.60260  1.0000
  C   C2616     1.0  0.87932  0.74876  0.60883  1.0000
  C   C2617     1.0  0.86346  0.73980  0.62261  1.0000
  C   C2618     1.0  0.86565  0.71774  0.62986  1.0000
  C   C2619     1.0  0.90238  0.65895  0.61590  1.0000
  C   C2620     1.0  0.89895  0.66135  0.59442  1.0000
  C   C2621     1.0  0.91033  0.64747  0.58061  1.0000
  C   C2622     1.0  0.92798  0.62805  0.60958  1.0000
  C   C2623     1.0  0.91663  0.64192  0.62343  1.0000
  H   H2084     1.0  0.87318  0.64010  0.66213  1.0000
  H   H2085     1.0  0.84338  0.68145  0.61382  1.0000
  H   H2086     1.0  0.87210  0.68089  0.67672  1.0000
  H   H2087     1.0  0.89196  0.68670  0.70935  1.0000
  C   C2624     1.0  0.70218  0.70215  0.73702  1.0000
  H   H2088     1.0  0.84536  0.87531  0.62330  1.0000
  H   H2089     1.0  0.93444  0.68185  0.64291  1.0000
  H   H2090     1.0  0.91458  0.70422  0.60548  1.0000
  H   H2091     1.0  0.91011  0.74303  0.59226  1.0000
  H   H2092     1.0  0.87766  0.76592  0.60331  1.0000
  H   H2093     1.0  0.84969  0.75010  0.62801  1.0000
  H   H2094     1.0  0.85345  0.71122  0.64086  1.0000
  H   H2095     1.0  0.88739  0.67386  0.58836  1.0000
  H   H2096     1.0  0.93754  0.74494  0.63981  1.0000
  H   H2097     1.0  0.91883  0.63920  0.63999  1.0000
  C   C2625     1.0  0.60134  0.70936  0.68468  1.0000
  C   C2626     1.0  0.82024  0.64076  0.64431  1.0000
  C   C2627     1.0  0.54020  0.56922  0.54864  1.0000
  H   H2098     1.0  0.73092  0.87704  0.71111  1.0000
  C   C2628     1.0  0.53952  0.70542  0.68546  1.0000
  H   H2099     1.0  0.95602  0.76991  0.73561  1.0000
  S   S355      1.0  0.90468  0.84062  0.50018  1.0000
  H   H2100     1.0  0.79483  0.65327  0.73759  1.0000
  H   H2101     1.0  0.91095  0.96516  0.52780  1.0000
  H   H2102     1.0  0.85264  0.93102  0.70583  1.0000
  C   C2629     1.0  0.72185  0.51198  0.73807  1.0000
  H   H2103     1.0  0.59832  0.63570  0.52832  1.0000
  C   C2630     1.0  0.58514  0.65802  0.68715  1.0000
  H   H2104     1.0  0.66558  0.63219  0.50513  1.0000
  C   C2631     1.0  0.68580  0.70929  0.72303  1.0000
  C   C2632     1.0  0.80774  0.93294  0.67391  1.0000
  H   H2105     1.0  0.85714  0.82468  0.67042  1.0000
  H   H2106     1.0  0.53043  0.65586  0.71107  1.0000
  C   C2633     1.0  0.98363  0.81099  0.61973  1.0000
  C   C2634     1.0  0.74739  0.80609  0.72752  1.0000
  C   C2635     1.0  0.66064  0.53621  0.62736  1.0000
  H   H2107     1.0  0.68531  0.70211  0.70776  1.0000
  S   S356      1.0  0.88743  0.90398  0.50373  1.0000
  H   H2108     1.0  0.74713  0.91259  0.72182  1.0000
  H   H2109     1.0  0.95410  0.68824  0.67581  1.0000
  C   C2636     1.0  0.51744  0.71114  0.68081  1.0000
  C   C2637     1.0  0.74193  0.51904  0.64508  1.0000
  C   C2638     1.0  0.76154  0.53085  0.64739  1.0000
  C   C2639     1.0  0.77652  0.52452  0.66295  1.0000
  H   H2110     1.0  0.99764  0.98126  0.50578  1.0000
  C   C2640     1.0  0.66806  0.63596  0.74338  1.0000
  C   C2641     1.0  0.58852  0.71829  0.71935  1.0000
  C   C2642     1.0  0.63281  0.63374  0.51901  1.0000
  C   C2643     1.0  0.84416  0.86965  0.63941  1.0000
  H   H2111     1.0  0.67084  0.55799  0.65134  1.0000
  H   H2112     1.0  0.94531  0.97357  0.50847  1.0000
  H   H2113     1.0  0.96851  0.71850  0.64764  1.0000
  H   H2114     1.0  0.76288  0.81461  0.72445  1.0000
  H   H2115     1.0  0.76474  0.54536  0.63744  1.0000
  H   H2116     1.0  0.79143  0.53407  0.66505  1.0000
  C   C2644     1.0  0.60270  0.64356  0.49564  1.0000
  H   H2117     1.0  0.76234  0.95420  0.72701  1.0000
  C   C2645     1.0  0.72415  0.77370  0.72506  1.0000
  H   H2118     1.0  0.51688  0.54660  0.58973  1.0000
  C   C2646     1.0  0.50919  0.63972  0.57340  1.0000
  H   H2119     1.0  0.79435  0.85607  0.68653  1.0000
  C   C2647     1.0  0.97194  0.76124  0.73600  1.0000
  H   H2120     1.0  0.76889  0.98235  0.69856  1.0000
  H   H2121     1.0  0.57875  0.59992  0.50023  1.0000
  C   C2648     1.0  0.61015  0.63764  0.51557  1.0000
  H   H2122     1.0  0.64853  0.68002  0.71452  1.0000
  H   H2123     1.0  0.57893  0.71451  0.73329  1.0000
  H   H2124     1.0  0.63605  0.63564  0.67469  1.0000
  C   C2649     1.0  0.64808  0.63579  0.50251  1.0000
  C   C2650     1.0  0.60829  0.65439  0.68710  1.0000
  H   H2125     1.0  0.93366  0.62008  0.57747  1.0000
  C   C2651     1.0  0.68753  0.52604  0.65379  1.0000
  H   H2126     1.0  0.75461  0.84895  0.69351  1.0000
  H   H2127     1.0  0.55411  0.64798  0.67369  1.0000
  H   H2128     1.0  0.93303  0.69028  0.70893  1.0000
  C   C2652     1.0  0.95433  0.77332  0.65154  1.0000
  C   C2653     1.0  0.97403  0.78127  0.65989  1.0000
  H   H2129     1.0  0.89156  0.87736  0.73395  1.0000
  P   P89       1.0  0.97740  0.81087  0.66304  1.0000
  C   C2654     1.0  0.95226  0.82302  0.67419  1.0000
  C   C2655     1.0  0.75945  0.97168  0.72979  1.0000
  C   C2656     1.0  0.55729  0.50728  0.51390  1.0000
  C   C2657     1.0  0.58753  0.65209  0.73771  1.0000
  C   C2658     1.0  0.95023  0.82682  0.69561  1.0000
  C   C2659     1.0  0.93048  0.83583  0.70390  1.0000
  C   C2660     1.0  0.91266  0.84127  0.69090  1.0000
  C   C2661     1.0  0.91466  0.83794  0.66956  1.0000
  C   C2662     1.0  0.93431  0.82884  0.66124  1.0000
  H   H2130     1.0  0.85967  0.94230  0.51106  1.0000
  C   C2663     1.0  0.87159  0.94695  0.49903  1.0000
  C   C2664     1.0  0.91595  0.98236  0.52558  1.0000
  C   C2665     1.0  0.98115  0.82391  0.63756  1.0000
  C   C2666     1.0  0.54446  0.68553  0.69656  1.0000
  H   H2131     1.0  0.85953  0.83760  0.63361  1.0000
  C   C2667     1.0  0.76162  0.86465  0.69768  1.0000
  H   H2132     1.0  0.94044  0.78452  0.64838  1.0000
  C   C2668     1.0  0.57203  0.66821  0.73061  1.0000
  C   C2669     1.0  0.97018  0.73599  0.65078  1.0000
  H   H2133     1.0  0.96347  0.82236  0.70615  1.0000
  H   H2134     1.0  0.90075  0.84165  0.65945  1.0000
  H   H2135     1.0  0.93517  0.82585  0.64470  1.0000
  C   C2670     1.0  0.51459  0.74421  0.72963  1.0000
  C   C2671     1.0  0.61243  0.74379  0.70008  1.0000
  C   C2672     1.0  0.99679  0.73234  0.72384  1.0000
  H   H2136     1.0  0.86982  0.88434  0.70216  1.0000
  H   H2137     1.0  0.57168  0.61998  0.65112  1.0000
  C   C2673     1.0  0.82202  0.65772  0.62913  1.0000
  H   H2138     1.0  0.63852  0.62853  0.53435  1.0000
  H   H2139     1.0  0.78682  0.91999  0.71529  1.0000
  C   C2674     1.0  0.67247  0.54147  0.64504  1.0000
  C   C2675     1.0  0.51763  0.54637  0.52669  1.0000
  S   S357      1.0  0.87517  0.80192  0.73659  1.0000
  Fe  Fe180     1.0  0.91309  0.87707  0.49591  1.0000
  C   C2676     1.0  0.57197  0.64551  0.67405  1.0000
  H   H2140     1.0  0.79439  0.96299  0.65941  1.0000
  P   P90       1.0  0.57273  0.67860  0.70397  1.0000
  C   C2677     1.0  0.61315  0.72926  0.68346  1.0000
  C   C2678     1.0  0.83959  0.96049  0.69064  1.0000
  H   H2141     1.0  0.79504  0.92256  0.66758  1.0000
  H   H2142     1.0  0.83722  0.62137  0.66794  1.0000
  H   H2143     1.0  0.69740  0.53094  0.66685  1.0000
  C   C2679     1.0  0.84005  0.93761  0.69540  1.0000
  C   C2680     1.0  0.77195  0.50622  0.67610  1.0000
  C   C2681     1.0  0.76313  0.98776  0.71363  1.0000
  C   C2682     1.0  0.92437  0.68699  0.69467  1.0000
  C   C2683     1.0  0.82407  0.74178  0.73296  1.0000
  C   C2684     1.0  0.82312  0.96962  0.67771  1.0000
  H   H2144     1.0  0.67870  0.62133  0.74216  1.0000
  C   C2685     1.0  0.61814  0.63843  0.67436  1.0000
  C   C2686     1.0  0.98370  0.82120  0.59994  1.0000
  C   C2687     1.0  0.86154  0.88532  0.71717  1.0000
  H   H2145     1.0  0.82242  0.98744  0.67445  1.0000
  H   H2146     1.0  0.80445  0.63263  0.64720  1.0000
  C   C2688     1.0  0.85211  0.84839  0.64517  1.0000
  C   C2689     1.0  0.82849  0.89167  0.73831  1.0000
  C   C2690     1.0  0.83854  0.88985  0.71859  1.0000
  H   H2147     1.0  0.60059  0.64580  0.72765  1.0000
  P   P91       1.0  0.82262  0.89461  0.69519  1.0000
  C   C2691     1.0  0.83364  0.87650  0.67534  1.0000
  C   C2692     1.0  0.79358  0.88871  0.70014  1.0000
  C   C2693     1.0  0.78422  0.86873  0.69388  1.0000
  H   H2148     1.0  0.84053  0.84907  0.69690  1.0000
  C   C2694     1.0  0.58906  0.70363  0.70274  1.0000
  C   C2695     1.0  0.87402  0.88163  0.73515  1.0000
  C   C2696     1.0  0.77995  0.90455  0.71010  1.0000
  C   C2697     1.0  0.83497  0.88371  0.65442  1.0000
  C   C2698     1.0  0.56202  0.59878  0.49441  1.0000
  H   H2149     1.0  0.85173  0.97126  0.69732  1.0000
  C   C2699     1.0  0.85072  0.84108  0.66591  1.0000
  C   C2700     1.0  0.84138  0.85498  0.68089  1.0000
  C   C2701     1.0  0.82399  0.92367  0.68720  1.0000
  H   H2150     1.0  0.65632  0.72961  0.71847  1.0000
  C   C2702     1.0  0.84883  0.81489  0.73938  1.0000
  C   C2703     1.0  0.52703  0.67124  0.70243  1.0000
  H   H2151     1.0  0.00014  0.71844  0.71387  1.0000
  C   C2704     1.0  0.98987  0.74373  0.65906  1.0000
  H   H2152     1.0  0.98990  0.79076  0.70327  1.0000
  C   C2705     1.0  0.70696  0.78497  0.73553  1.0000
  H   H2153     1.0  0.97755  0.87524  0.61361  1.0000
  H   H2154     1.0  0.56067  0.52424  0.50866  1.0000
  C   C2706     1.0  0.90242  0.99955  0.53310  1.0000
  H   H2155     1.0  0.59900  0.74972  0.73075  1.0000
  H   H2156     1.0  0.54413  0.68936  0.73975  1.0000
  C   C2707     1.0  0.93551  0.98728  0.51449  1.0000
  C   C2708     1.0  0.50323  0.55342  0.59888  1.0000
  C   C2709     1.0  0.50497  0.67714  0.69793  1.0000
  C   C2710     1.0  0.98152  0.84432  0.59775  1.0000
  H   H2157     1.0  0.71409  0.68966  0.73209  1.0000
  S   S358      1.0  0.50469  0.63585  0.49610  1.0000
  H   H2158     1.0  0.85794  0.98032  0.49478  1.0000
  H   H2159     1.0  0.98104  0.85205  0.58233  1.0000
  H   H2160     1.0  0.75762  0.63687  0.74140  1.0000
  C   C2711     1.0  0.69059  0.50497  0.64511  1.0000
  H   H2161     1.0  0.98485  0.79302  0.62090  1.0000
  H   H2162     1.0  0.68310  0.50238  0.68991  1.0000
  H   H2163     1.0  0.65499  0.51166  0.60440  1.0000
  H   H2164     1.0  0.88705  0.99564  0.54128  1.0000
  H   H2165     1.0  0.81084  0.89508  0.73999  1.0000
  H   H2166     1.0  0.98480  0.81116  0.58618  1.0000
  C   C2712     1.0  0.00072  0.81515  0.67993  1.0000
  C   C2713     1.0  0.50766  0.58528  0.53206  1.0000
  H   H2167     1.0  0.52597  0.64232  0.57866  1.0000
  H   H2168     1.0  0.51261  0.66172  0.54648  1.0000
  C   C2714     1.0  0.70999  0.80674  0.74199  1.0000
  C   C2715     1.0  0.79389  0.77584  0.74316  1.0000
  H   H2169     1.0  0.73270  0.83417  0.74306  1.0000
  S   S359      1.0  0.63615  0.58344  0.49369  1.0000
  C   C2716     1.0  0.98859  0.76793  0.74985  1.0000
  H   H2170     1.0  0.82972  0.92696  0.86810  1.0000
  Fe  Fe181     1.0  0.83467  0.91503  0.96405  1.0000
  H   H2171     1.0  0.74735  0.78082  0.77137  1.0000
  S   S360      1.0  0.81364  0.89784  0.93964  1.0000
  C   C2717     1.0  0.68757  0.75104  0.83299  1.0000
  H   H2172     1.0  0.52812  0.51165  0.97991  1.0000
  H   H2173     1.0  0.54156  0.64424  0.92304  1.0000
  S   S361      1.0  0.86317  0.93855  0.95928  1.0000
  P   P92       1.0  0.00003  0.83230  0.90395  1.0000
  S   S362      1.0  0.91706  0.91866  0.98581  1.0000
  H   H2174     1.0  0.56713  0.80265  0.84841  1.0000
  S   S363      1.0  0.54008  0.61798  0.97166  1.0000
  C   C2718     1.0  0.61155  0.51171  0.87947  1.0000
  Fe  Fe182     1.0  0.56760  0.64304  0.97142  1.0000
  S   S364      1.0  0.58653  0.65221  0.94091  1.0000
  S   S365      1.0  0.84158  0.99693  0.98078  1.0000
  C   C2719     1.0  0.84395  0.82672  0.75745  1.0000
  H   H2175     1.0  0.63688  0.81375  0.89412  1.0000
  Fe  Fe183     1.0  0.58777  0.72164  0.82886  1.0000
  S   S366      1.0  0.58493  0.75356  0.80910  1.0000
  S   S367      1.0  0.57302  0.71916  0.86216  1.0000
  Fe  Fe184     1.0  0.61177  0.69740  0.79389  1.0000
  S   S368      1.0  0.61069  0.72700  0.77212  1.0000
  H   H2176     1.0  0.61250  0.73513  0.89085  1.0000
  Fe  Fe185     1.0  0.62084  0.74712  0.79948  1.0000
  S   S369      1.0  0.65266  0.76807  0.79439  1.0000
  Fe  Fe186     1.0  0.57488  0.73138  0.78292  1.0000
  H   H2177     1.0  0.63588  0.95272  0.89414  1.0000
  S   S370      1.0  0.62396  0.71675  0.82075  1.0000
  S   S371      1.0  0.57556  0.70022  0.80323  1.0000
  Fe  Fe187     1.0  0.77159  0.87445  0.77234  1.0000
  S   S372      1.0  0.73794  0.89036  0.76638  1.0000
  H   H2178     1.0  0.66968  0.75939  0.92293  1.0000
  Fe  Fe188     1.0  0.77563  0.89530  0.81512  1.0000
  S   S373      1.0  0.74182  0.91140  0.81179  1.0000
  S   S374      1.0  0.79960  0.90580  0.84079  1.0000
  Fe  Fe189     1.0  0.73035  0.87871  0.79909  1.0000
  S   S375      1.0  0.69591  0.86409  0.80693  1.0000
  Fe  Fe190     1.0  0.75221  0.92167  0.77907  1.0000
  S   S376      1.0  0.74508  0.95874  0.77013  1.0000
  S   S377      1.0  0.76355  0.86175  0.80477  1.0000
  S   S378      1.0  0.78647  0.90651  0.78264  1.0000
  H   H2179     1.0  0.66004  0.84457  0.90539  1.0000
  H   H2180     1.0  0.70098  0.83939  0.90841  1.0000
  C   C2720     1.0  0.90539  0.97446  0.93951  1.0000
  H   H2181     1.0  0.54676  0.67652  0.85556  1.0000
  H   H2182     1.0  0.81964  0.84675  0.77397  1.0000
  H   H2183     1.0  0.99491  0.92334  0.92772  1.0000
  H   H2184     1.0  0.72673  0.65814  0.75767  1.0000
  H   H2185     1.0  0.71868  0.80313  0.90000  1.0000
  H   H2186     1.0  0.83584  0.92442  0.90628  1.0000
  C   C2721     1.0  0.97335  0.88067  0.99138  1.0000
  S   S379      1.0  0.62886  0.66418  0.78787  1.0000
  C   C2722     1.0  0.92230  0.97134  0.92472  1.0000
  C   C2723     1.0  0.66436  0.79487  0.79833  1.0000
  C   C2724     1.0  0.68697  0.79829  0.79315  1.0000
  C   C2725     1.0  0.69699  0.81920  0.79576  1.0000
  C   C2726     1.0  0.68449  0.83709  0.80356  1.0000
  C   C2727     1.0  0.66198  0.83358  0.80895  1.0000
  C   C2728     1.0  0.65197  0.81271  0.80630  1.0000
  H   H2187     1.0  0.69678  0.78471  0.78690  1.0000
  H   H2188     1.0  0.71432  0.82152  0.79156  1.0000
  H   H2189     1.0  0.65209  0.84725  0.81494  1.0000
  H   H2190     1.0  0.63456  0.81060  0.81007  1.0000
  C   C2729     1.0  0.55167  0.65907  0.85691  1.0000
  C   C2730     1.0  0.66970  0.73329  0.74903  1.0000
  C   C2731     1.0  0.82330  0.83774  0.75996  1.0000
  H   H2191     1.0  0.73464  0.74557  0.75688  1.0000
  C   C2732     1.0  0.62213  0.77835  0.87162  1.0000
  H   H2192     1.0  0.78047  0.94716  0.86730  1.0000
  H   H2193     1.0  0.78367  0.94678  0.90566  1.0000
  H   H2194     1.0  0.97879  0.97641  0.96550  1.0000
  H   H2195     1.0  0.81611  0.78241  0.76819  1.0000
  C   C2733     1.0  0.58144  0.66999  0.91862  1.0000
  C   C2734     1.0  0.56416  0.68592  0.91806  1.0000
  C   C2735     1.0  0.56175  0.70055  0.90060  1.0000
  C   C2736     1.0  0.57637  0.69942  0.88331  1.0000
  C   C2737     1.0  0.59336  0.68316  0.88367  1.0000
  C   C2738     1.0  0.59589  0.66865  0.90122  1.0000
  H   H2196     1.0  0.55294  0.68733  0.93127  1.0000
  H   H2197     1.0  0.54854  0.71300  0.90057  1.0000
  H   H2198     1.0  0.60475  0.68198  0.87057  1.0000
  H   H2199     1.0  0.60936  0.65649  0.90141  1.0000
  C   C2739     1.0  0.76834  0.94172  0.89865  1.0000
  C   C2740     1.0  0.58668  0.64416  0.75831  1.0000
  C   C2741     1.0  0.70080  0.80533  0.89877  1.0000
  Fe  Fe191     1.0  0.84657  0.95941  0.98364  1.0000
  H   H2200     1.0  0.60584  0.54476  0.86656  1.0000
  C   C2742     1.0  0.76034  0.65360  0.74671  1.0000
  C   C2743     1.0  0.79920  0.97742  0.94355  1.0000
  C   C2744     1.0  0.81042  0.90015  0.91206  1.0000
  C   C2745     1.0  0.79439  0.88702  0.90261  1.0000
  C   C2746     1.0  0.79103  0.88824  0.88091  1.0000
  C   C2747     1.0  0.80356  0.90279  0.86826  1.0000
  C   C2748     1.0  0.81976  0.91580  0.87769  1.0000
  C   C2749     1.0  0.82319  0.91450  0.89939  1.0000
  H   H2201     1.0  0.78453  0.87573  0.91216  1.0000
  H   H2202     1.0  0.77897  0.87771  0.87400  1.0000
  C   C2750     1.0  0.73777  0.74636  0.77332  1.0000
  H   H2203     1.0  0.74583  0.67337  0.80599  1.0000
  P   P93       1.0  0.64782  0.76763  0.88258  1.0000
  H   H2204     1.0  0.63478  0.78092  0.83990  1.0000
  H   H2205     1.0  0.69693  0.50933  0.76240  1.0000
  H   H2206     1.0  0.65937  0.62944  0.77562  1.0000
  C   C2751     1.0  0.96575  0.85882  0.99125  1.0000
  C   C2752     1.0  0.97163  0.84015  0.91033  1.0000
  C   C2753     1.0  0.99311  0.82254  0.84135  1.0000
  C   C2754     1.0  0.80761  0.83739  0.74418  1.0000
  C   C2755     1.0  0.95394  0.82721  0.90371  1.0000
  C   C2756     1.0  0.93207  0.83224  0.90998  1.0000
  C   C2757     1.0  0.92778  0.84978  0.92340  1.0000
  C   C2758     1.0  0.94536  0.86225  0.93064  1.0000
  C   C2759     1.0  0.51925  0.61917  0.91245  1.0000
  H   H2207     1.0  0.75251  0.93318  0.92788  1.0000
  C   C2760     1.0  0.82797  0.75496  0.75005  1.0000
  H   H2208     1.0  0.56930  0.79356  0.88616  1.0000
  C   C2761     1.0  0.76768  0.69678  0.76010  1.0000
  C   C2762     1.0  0.67306  0.71666  0.84768  1.0000
  C   C2763     1.0  0.66155  0.72858  0.86292  1.0000
  H   H2209     1.0  0.98061  0.86668  0.93075  1.0000
  C   C2764     1.0  0.64310  0.65947  0.76409  1.0000
  H   H2210     1.0  0.68607  0.73326  0.77840  1.0000
  C   C2765     1.0  0.61821  0.72143  0.92145  1.0000
  H   H2211     1.0  0.99886  0.87829  0.88879  1.0000
  C   C2766     1.0  0.75155  0.97824  0.74933  1.0000
  H   H2212     1.0  0.91088  0.85344  0.92855  1.0000
  H   H2213     1.0  0.94211  0.87531  0.94167  1.0000
  H   H2214     1.0  0.58801  0.53523  0.93107  1.0000
  S   S380      1.0  0.54960  0.74158  0.75731  1.0000
  C   C2767     1.0  0.56307  0.59857  0.91394  1.0000
  H   H2215     1.0  0.60013  0.79683  0.82562  1.0000
  C   C2768     1.0  0.70286  0.96281  0.82085  1.0000
  H   H2216     1.0  0.67858  0.92045  0.79592  1.0000
  H   H2217     1.0  0.91847  0.82224  0.90478  1.0000
  H   H2218     1.0  0.53043  0.52429  0.88941  1.0000
  C   C2769     1.0  0.76652  0.94200  0.87705  1.0000
  C   C2770     1.0  0.74725  0.93434  0.86790  1.0000
  C   C2771     1.0  0.72921  0.92701  0.88028  1.0000
  C   C2772     1.0  0.73123  0.92670  0.90203  1.0000
  P   P94       1.0  0.70479  0.91585  0.86832  1.0000
  C   C2773     1.0  0.69889  0.93036  0.84396  1.0000
  C   C2774     1.0  0.70972  0.88666  0.86336  1.0000
  C   C2775     1.0  0.69180  0.87199  0.86220  1.0000
  C   C2776     1.0  0.69563  0.84960  0.85759  1.0000
  C   C2777     1.0  0.71732  0.84167  0.85419  1.0000
  C   C2778     1.0  0.73522  0.85613  0.85534  1.0000
  C   C2779     1.0  0.73143  0.87857  0.85971  1.0000
  C   C2780     1.0  0.70541  0.95254  0.84047  1.0000
  C   C2781     1.0  0.52273  0.73390  0.74803  1.0000
  C   C2782     1.0  0.65035  0.73473  0.93926  1.0000
  C   C2783     1.0  0.68569  0.92962  0.80844  1.0000
  C   C2784     1.0  0.68831  0.91927  0.82799  1.0000
  C   C2785     1.0  0.68101  0.91883  0.88557  1.0000
  C   C2786     1.0  0.67756  0.90328  0.90195  1.0000
  C   C2787     1.0  0.65918  0.90553  0.91536  1.0000
  C   C2788     1.0  0.64415  0.92331  0.91253  1.0000
  C   C2789     1.0  0.64752  0.93891  0.89632  1.0000
  C   C2790     1.0  0.66591  0.93673  0.88290  1.0000
  H   H2219     1.0  0.67696  0.78107  0.84768  1.0000
  H   H2220     1.0  0.84306  0.75250  0.75892  1.0000
  H   H2221     1.0  0.74675  0.93370  0.85113  1.0000
  C   C2791     1.0  0.64160  0.74944  0.90469  1.0000
  H   H2222     1.0  0.67482  0.87799  0.86399  1.0000
  H   H2223     1.0  0.68171  0.83860  0.85576  1.0000
  H   H2224     1.0  0.72017  0.82452  0.84993  1.0000
  H   H2225     1.0  0.75201  0.85017  0.85217  1.0000
  H   H2226     1.0  0.74542  0.88966  0.85963  1.0000
  H   H2227     1.0  0.71309  0.96170  0.85263  1.0000
  C   C2792     1.0  0.63181  0.72100  0.93886  1.0000
  C   C2793     1.0  0.62082  0.78383  0.85032  1.0000
  C   C2794     1.0  0.69330  0.95125  0.80476  1.0000
  H   H2228     1.0  0.68283  0.90232  0.83023  1.0000
  H   H2229     1.0  0.68917  0.88950  0.90442  1.0000
  H   H2230     1.0  0.65663  0.89352  0.92801  1.0000
  H   H2231     1.0  0.62991  0.92506  0.92292  1.0000
  C   C2795     1.0  0.52482  0.63786  0.92381  1.0000
  H   H2232     1.0  0.66825  0.94902  0.87049  1.0000
  C   C2796     1.0  0.91979  0.98005  0.90451  1.0000
  H   H2233     1.0  0.94723  0.00197  0.95808  1.0000
  C   C2797     1.0  0.50896  0.64815  0.93660  1.0000
  C   C2798     1.0  0.62312  0.73540  0.90435  1.0000
  C   C2799     1.0  0.55023  0.62333  0.87546  1.0000
  C   C2800     1.0  0.56481  0.61431  0.86050  1.0000
  C   C2801     1.0  0.57311  0.62773  0.84416  1.0000
  C   C2802     1.0  0.56663  0.65012  0.84246  1.0000
  C   C2803     1.0  0.51097  0.54355  0.86731  1.0000
  H   H2234     1.0  0.93719  0.96193  0.92891  1.0000
  H   H2235     1.0  0.95709  0.81295  0.89406  1.0000
  H   H2236     1.0  0.54670  0.55689  0.90513  1.0000
  C   C2804     1.0  0.59765  0.58741  0.94144  1.0000
  C   C2805     1.0  0.60208  0.60002  0.92334  1.0000
  C   C2806     1.0  0.58487  0.60571  0.90967  1.0000
  H   H2237     1.0  0.60385  0.71083  0.92120  1.0000
  H   H2238     1.0  0.69575  0.77197  0.88881  1.0000
  C   C2807     1.0  0.75075  0.93400  0.91114  1.0000
  H   H2239     1.0  0.83118  0.97894  0.88187  1.0000
  H   H2240     1.0  0.58476  0.62090  0.83290  1.0000
  H   H2241     1.0  0.57337  0.66062  0.83004  1.0000
  H   H2242     1.0  0.88897  0.98825  0.98439  1.0000
  H   H2243     1.0  0.69696  0.75979  0.82091  1.0000
  H   H2244     1.0  0.85623  0.82739  0.76954  1.0000
  H   H2245     1.0  0.62794  0.70993  0.95196  1.0000
  H   H2246     1.0  0.61087  0.58349  0.95228  1.0000
  H   H2247     1.0  0.61868  0.60622  0.92034  1.0000
  H   H2248     1.0  0.58863  0.61634  0.89631  1.0000
  H   H2249     1.0  0.53471  0.54502  0.95800  1.0000
  C   C2808     1.0  0.60357  0.78250  0.88459  1.0000
  C   C2809     1.0  0.69080  0.82575  0.90358  1.0000
  H   H2250     1.0  0.97272  0.83605  0.86566  1.0000
  C   C2810     1.0  0.65524  0.74894  0.92227  1.0000
  H   H2251     1.0  0.67139  0.69875  0.84710  1.0000
  C   C2811     1.0  0.50927  0.71818  0.75837  1.0000
  C   C2812     1.0  0.81560  0.96406  0.93436  1.0000
  C   C2813     1.0  0.83331  0.97381  0.92336  1.0000
  H   H2252     1.0  0.69090  0.64196  0.83768  1.0000
  C   C2814     1.0  0.78502  0.68457  0.75086  1.0000
  H   H2253     1.0  0.65685  0.74502  0.75389  1.0000
  C   C2815     1.0  0.66460  0.79054  0.89053  1.0000
  H   H2254     1.0  0.57009  0.59701  0.86171  1.0000
  C   C2816     1.0  0.55873  0.58633  0.93239  1.0000
  C   C2817     1.0  0.74512  0.76625  0.78146  1.0000
  C   C2818     1.0  0.95818  0.89873  0.98976  1.0000
  C   C2819     1.0  0.83622  0.98924  0.85017  1.0000
  C   C2820     1.0  0.55587  0.67641  0.74458  1.0000
  H   H2255     1.0  0.50439  0.56108  0.93598  1.0000
  C   C2821     1.0  0.67611  0.76305  0.84818  1.0000
  H   H2256     1.0  0.65121  0.71951  0.87399  1.0000
  C   C2822     1.0  0.78137  0.66294  0.74437  1.0000
  C   C2823     1.0  0.68628  0.72649  0.76294  1.0000
  C   C2824     1.0  0.58379  0.79114  0.87622  1.0000
  C   C2825     1.0  0.61311  0.51450  0.99005  1.0000
  C   C2826     1.0  0.66299  0.75191  0.86329  1.0000
  H   H2257     1.0  0.71803  0.92050  0.91204  1.0000
  C   C2827     1.0  0.53513  0.55952  0.89261  1.0000
  C   C2828     1.0  0.58255  0.79628  0.85498  1.0000
  C   C2829     1.0  0.52593  0.54086  0.88366  1.0000
  H   H2258     1.0  0.78585  0.96979  0.95256  1.0000
  H   H2259     1.0  0.81477  0.94609  0.93611  1.0000
  H   H2260     1.0  0.84601  0.96315  0.91658  1.0000
  C   C2830     1.0  0.88592  0.98617  0.93409  1.0000
  C   C2831     1.0  0.57596  0.58060  0.94594  1.0000
  H   H2261     1.0  0.66454  0.66286  0.81502  1.0000
  C   C2832     1.0  0.84113  0.88846  0.75626  1.0000
  H   H2262     1.0  0.54189  0.58161  0.93651  1.0000
  C   C2833     1.0  0.83936  0.99084  0.87156  1.0000
  C   C2834     1.0  0.66777  0.82867  0.90183  1.0000
  C   C2835     1.0  0.50521  0.56492  0.85988  1.0000
  H   H2263     1.0  0.67818  0.68864  0.78765  1.0000
  H   H2264     1.0  0.75507  0.78291  0.80896  1.0000
  H   H2265     1.0  0.98042  0.82478  0.82965  1.0000
  H   H2266     1.0  0.73159  0.64717  0.83304  1.0000
  C   C2836     1.0  0.68777  0.78776  0.89231  1.0000
  C   C2837     1.0  0.68588  0.72791  0.83263  1.0000
  C   C2838     1.0  0.60114  0.79290  0.84212  1.0000
  C   C2839     1.0  0.51436  0.58361  0.86881  1.0000
  P   P95       1.0  0.54039  0.60568  0.89674  1.0000
  H   H2267     1.0  0.69398  0.71880  0.82036  1.0000
  H   H2268     1.0  0.80135  0.69179  0.74877  1.0000
  H   H2269     1.0  0.57234  0.57147  0.96026  1.0000
  H   H2270     1.0  0.57021  0.64647  0.78809  1.0000
  H   H2271     1.0  0.60423  0.77881  0.90112  1.0000
  P   P96       1.0  0.72399  0.70239  0.77530  1.0000
  C   C2840     1.0  0.57042  0.65223  0.77201  1.0000
  C   C2841     1.0  0.73442  0.72753  0.78630  1.0000
  C   C2842     1.0  0.73909  0.72874  0.80755  1.0000
  C   C2843     1.0  0.74654  0.74865  0.81568  1.0000
  C   C2844     1.0  0.74944  0.76743  0.80266  1.0000
  C   C2845     1.0  0.74787  0.00119  0.75243  1.0000
  C   C2846     1.0  0.64023  0.67373  0.74679  1.0000
  H   H2272     1.0  0.83316  0.88940  0.77143  1.0000
  H   H2273     1.0  0.69225  0.95887  0.78933  1.0000
  H   H2274     1.0  0.61928  0.50583  0.86530  1.0000
  H   H2275     1.0  0.66092  0.73433  0.95276  1.0000
  H   H2276     1.0  0.82578  0.97626  0.84432  1.0000
  C   C2847     1.0  0.71314  0.68349  0.79512  1.0000
  C   C2848     1.0  0.69016  0.68012  0.79761  1.0000
  C   C2849     1.0  0.68227  0.66538  0.81311  1.0000
  C   C2850     1.0  0.69715  0.65360  0.82593  1.0000
  C   C2851     1.0  0.72003  0.65657  0.82331  1.0000
  C   C2852     1.0  0.72801  0.67142  0.80796  1.0000
  H   H2277     1.0  0.53226  0.65331  0.88454  1.0000
  H   H2278     1.0  0.70898  0.97948  0.81783  1.0000
  C   C2853     1.0  0.65708  0.64059  0.76232  1.0000
  C   C2854     1.0  0.65469  0.81115  0.89535  1.0000
  H   H2279     1.0  0.77104  0.71337  0.76527  1.0000
  H   H2280     1.0  0.73683  0.71450  0.81795  1.0000
  H   H2281     1.0  0.74997  0.74957  0.83211  1.0000
  C   C2855     1.0  0.54354  0.64580  0.87344  1.0000
  S   S381      1.0  0.85171  0.89510  0.98987  1.0000
  H   H2282     1.0  0.87335  0.87996  0.76864  1.0000
  C   C2856     1.0  0.59409  0.52856  0.91651  1.0000
  H   H2283     1.0  0.93284  0.97745  0.89300  1.0000
  H   H2284     1.0  0.59915  0.63226  0.76385  1.0000
  C   C2857     1.0  0.86379  0.88316  0.75469  1.0000
  C   C2858     1.0  0.51858  0.53716  0.95779  1.0000
  C   C2859     1.0  0.96720  0.85742  0.92422  1.0000
  H   H2285     1.0  0.87289  0.98827  0.94570  1.0000
  H   H2286     1.0  0.51346  0.66239  0.94558  1.0000
  H   H2287     1.0  0.59024  0.55961  0.89934  1.0000
  H   H2288     1.0  0.78296  0.78952  0.74721  1.0000
  C   C2860     1.0  0.59544  0.54231  0.89869  1.0000
  C   C2861     1.0  0.74293  0.66574  0.75585  1.0000
  C   C2862     1.0  0.98203  0.99383  0.96217  1.0000
  C   C2863     1.0  0.52938  0.58108  0.88525  1.0000
  C   C2864     1.0  0.60420  0.53391  0.88020  1.0000
  H   H2289     1.0  0.50385  0.52908  0.86038  1.0000
  C   C2865     1.0  0.60131  0.50635  0.91580  1.0000
  C   C2866     1.0  0.74644  0.68748  0.76255  1.0000
  H   H2290     1.0  0.51506  0.71013  0.77255  1.0000
  C   C2867     1.0  0.55494  0.66827  0.76510  1.0000
  H   H2291     1.0  0.54254  0.67489  0.77576  1.0000
  C   C2868     1.0  0.70268  0.71085  0.75705  1.0000
  C   C2869     1.0  0.83475  0.99710  0.92142  1.0000
  C   C2870     1.0  0.61633  0.53759  0.98835  1.0000
  H   H2292     1.0  0.98519  0.78175  0.75992  1.0000
  C   C2871     1.0  0.94273  0.85521  0.98997  1.0000
  Fe  Fe192     1.0  0.87904  0.92037  0.98652  1.0000
  H   H2293     1.0  0.00009  0.82757  0.94909  1.0000
  C   C2872     1.0  0.88312  0.99477  0.91379  1.0000
  H   H2294     1.0  0.69668  0.81545  0.75014  1.0000
  H   H2295     1.0  0.90981  0.87030  0.98757  1.0000
  H   H2296     1.0  0.50966  0.60010  0.86294  1.0000
  C   C2873     1.0  0.90029  0.99173  0.89903  1.0000
  H   H2297     1.0  0.90717  0.96740  0.95510  1.0000
  S   S382      1.0  0.78184  0.85164  0.74623  1.0000
  C   C2874     1.0  0.51468  0.51834  0.97050  1.0000
  C   C2875     1.0  0.80040  0.00060  0.94160  1.0000
  S   S383      1.0  0.81685  0.93732  0.98666  1.0000
  C   C2876     1.0  0.93518  0.89516  0.98836  1.0000
  H   H2298     1.0  0.63251  0.54385  0.98378  1.0000
  H   H2299     1.0  0.62940  0.68821  0.74788  1.0000
  C   C2877     1.0  0.81275  0.77180  0.75527  1.0000
  H   H2300     1.0  0.60140  0.57040  0.99118  1.0000
  H   H2301     1.0  0.96434  0.91556  0.98964  1.0000
  C   C2878     1.0  0.92746  0.87329  0.98865  1.0000
  H   H2302     1.0  0.93668  0.83834  0.98996  1.0000
  S   S384      1.0  0.98449  0.83572  0.99266  1.0000
  C   C2879     1.0  0.98872  0.82864  0.86189  1.0000
  C   C2880     1.0  0.59873  0.55264  0.99247  1.0000
  H   H2303     1.0  0.89862  0.99808  0.88326  1.0000
  H   H2304     1.0  0.99096  0.88360  0.99276  1.0000
