data_image0
_chemical_formula_structural       FeS2FeS2FeSFeS4CS2HSFeS2CFeS2CHC6H5C8H4C6H4C6H5C3H3CH2C10HC2H3CH2CH3CH3CHPHC6PC15HC2H17CH2C6PC9FeSC7HC2H3CH5CH7C2H4C3H2C7HCHC4HCHPSCSC3HFeHCH2C5HC2HC4H3C3H2CH2C2HCH2C2H2CHCH3C3HCHPHC2FeCHCHC5HC4H2CHC3H2C2HC4H2C2H4CHCHPC2HCHC2H3CHCHCH2C2H2CH3C4FePHPCH3CH3CHC2FeHCHCHCHCHC2H2C2HCHC4HCH3C3FeS2FeS2FeSFeS4FeS2Fe2S2FeS2Fe2S2C8H4C2HC7H4C6H4C2H2C6H5C2H3C5HSCHC2H2C7PC18H20CHC4HPC8SC10HCHPCH2CHCH2C2H2C5H5CHC2HC3HC2H2CHC2HS2CHCH2CPC6HC5HCH2CHC3H3CHCH2C2HCHPCH2CHC2FeHC2H4C3H2PHC2H2SC4HC2H5C2H3C2HC5H4SHCH2CH2C2H2C2H3CHCH2C4HCH2CH3CHCH5FeS2HC2S2C3HCHCSHC8H7C2HC2H6CH2C2H2CHC5HC3H2C3FeHC2HCH2CPHC2HC5HPHCHC2HCH4C2H2Fe2SCS2PFeS2CHSCSHC4H3C6H4C2H3CHCH2CHCHCH2C4HC2H2C2H4CHC2HCHC2H2CHCH3CHCHC3HCHPCHC4H5SC3HC3SCHFeHCH2C3HCH2FeS2FeSFeS3FeS2FeS2FeSFeS3FeHCFeSC6H4C2HCH2C3HC4H2C6H4C2H2SC6H8C3SC2HC3HCHCSC3H4SHC8HC3HCHC2HCH2C2H3CHC2H4C6PHC3H6C6H5C4H3CH6C6PC9H11CH2PCHCH2C2SCH3CH4CH2C6HCH2CFeHSHFeS2CSFeSFeS3CFeS2FeS2FeS2FeS2FeSFeS3CH2C6H4C6H4C7H5C2HC6H4C4H2C2HCSC2H2C5PCHCH3CHCHC13HC4H4PH2CHCH3C2HC3HCHC3H3CH7C2HCH6CHPH2CHC9H2C2H6CH3CH2C2FeC6PC14HCH4CH2CHCPSCHPCHCHC2HCHCH3CHCHC2HC2HCHSC2H2FeCH2CH2C3H5C4HFeHSFeS2CFeSFeS2FeS2FeSFeS3CHSC7H4C2H3C7H4C6H5C3FeC4HC2HC3HC2HC2HC4H2CH5C3HCH2CHC6PC4H2C12H7PH9CH2CHCH2CH3C2HCFeSHCH5C10HCFeH2C2H3CHSC2HC2PC4H3C5HC2H4CHCH4CSHCHCSHS2CHCHFeS2FeSCH3FeS2FeS2FeSFeS3CFeS2FeS2C2SC6H4C6H4C3HC3HCH2C8H4C13PC4HSHC11H6CHSCHC2H7C2HCH9FeH3C4HC2HC3PC3HC6HFeH3C2H6CH3C2HC2HPC2H2C10HC5H4CHCH5C2H2CH2CPC2FeH2C2HCHCHC2HCH4CHCHC2HCHC3H2C6HSH4SCHCHC8H4CH2CH3CSH2CFeS2CHSHFeHSHCHC7H4C5H5CHCHC12HCHCHC3HCFeH2C3PH6CPHC4H3CHSC3HC3SCHCH2C2H3CH3CHCHC2HFeHC3H2FeS2FeS2FeSFeS3FeSC3FeS2FeSHS2HSC6H4C2HCH3C6H4C6H4C3H2C6H5C6PC9H2C3HFeC2H11C2H5C4H2CH2C3H3C2H2CHCH4C2H2CH2C2HC2H2C3H2C2H2C3SC2HCHC6PC4H2C2SCHC7H8CH2C3H4CPSHC2SHCH2PH2C3HCHC3HCH2CHC2HCH2CHC2HC2HPH3CH3C2H3C3HPCHC2H2C5HCHCHC3H3CH2FeCH2CSHC3H2CHC3HC3H3FeS2FeS2FeSFeS3FeHSHS2FeSHCFe2S2Fe2S2HCHFeC6H6C6H4C6H4C6H8C2HC6PC4HC13H7CH12C6PC5HC2HC9H7CHCHCHC2HC3PC2H3C4H3CHCH5C4H3C6H2C7H2PHC7HCSH6C4SCHC2H2C2HCH2C2HFeH3CHCHC2HCH2CHC5PHSC2H2C3SHC3H3C2HSH2C2H2C5SH2SC4H2C4H2CHS2H3C2H2CH2CHC2HC4H3CH2CHCHCHC2PCHCH3CFeCHC2H2CHC2S2CH2
_chemical_formula_sum              "Fe96 S192 C1440 H1152 P48"
_cell_length_a       62.7536
_cell_length_b       62.6028
_cell_length_c       26.077
_cell_angle_alpha    88.8608
_cell_angle_beta     88.9057
_cell_angle_gamma    89.2271

_space_group_name_H-M_alt    "P 1"
_space_group_IT_number       1

loop_
  _space_group_symop_operation_xyz
  'x, y, z'

loop_
  _atom_site_type_symbol
  _atom_site_label
  _atom_site_symmetry_multiplicity
  _atom_site_fract_x
  _atom_site_fract_y
  _atom_site_fract_z
  _atom_site_occupancy
  Fe  Fe1       1.0  0.13907  0.15482  0.01510  1.0000
  S   S1        1.0  0.14821  0.14168  0.93804  1.0000
  S   S2        1.0  0.12689  0.18792  0.03475  1.0000
  Fe  Fe2       1.0  0.14292  0.11120  0.07095  1.0000
  S   S3        1.0  0.15205  0.09447  0.99787  1.0000
  S   S4        1.0  0.13757  0.10004  0.15409  1.0000
  Fe  Fe3       1.0  0.17312  0.12280  0.98173  1.0000
  S   S5        1.0  0.20596  0.11758  0.94537  1.0000
  Fe  Fe4       1.0  0.12650  0.11464  0.95962  1.0000
  S   S6        1.0  0.10261  0.09989  0.90635  1.0000
  S   S7        1.0  0.16569  0.13829  0.05721  1.0000
  S   S8        1.0  0.11568  0.12894  0.03401  1.0000
  S   S9        1.0  0.28855  0.13345  0.07646  1.0000
  C   C1        1.0  0.30951  0.05128  0.05455  1.0000
  S   S10       1.0  0.15675  0.01864  0.41641  1.0000
  S   S11       1.0  0.15508  0.00955  0.26389  1.0000
  H   H1        1.0  0.03113  0.18788  0.73218  1.0000
  S   S12       1.0  0.10252  0.01544  0.50615  1.0000
  Fe  Fe5       1.0  0.03648  0.13618  0.65695  1.0000
  S   S13       1.0  0.04441  0.15243  0.58120  1.0000
  S   S14       1.0  0.05760  0.14903  0.71987  1.0000
  C   C2        1.0  0.07833  0.23101  0.11155  1.0000
  Fe  Fe6       1.0  0.04090  0.12003  0.54725  1.0000
  S   S15       1.0  0.06406  0.10942  0.48474  1.0000
  S   S16       1.0  0.03581  0.10343  0.62333  1.0000
  C   C3        1.0  0.02553  0.21818  0.51631  1.0000
  H   H2        1.0  0.03705  0.20657  0.53031  1.0000
  C   C4        1.0  0.09161  0.04133  0.49794  1.0000
  C   C5        1.0  0.07587  0.04829  0.53288  1.0000
  C   C6        1.0  0.06695  0.06891  0.52832  1.0000
  C   C7        1.0  0.07378  0.08281  0.48892  1.0000
  C   C8        1.0  0.08929  0.07572  0.45338  1.0000
  C   C9        1.0  0.09823  0.05502  0.45789  1.0000
  H   H3        1.0  0.07060  0.03771  0.56371  1.0000
  H   H4        1.0  0.05478  0.07398  0.55532  1.0000
  H   H5        1.0  0.09460  0.08633  0.42264  1.0000
  H   H6        1.0  0.11026  0.04970  0.43056  1.0000
  H   H7        1.0  0.21532  0.01059  0.68448  1.0000
  C   C10       1.0  0.06036  0.16783  0.90603  1.0000
  C   C11       1.0  0.20717  0.04161  0.89488  1.0000
  C   C12       1.0  0.07017  0.13497  0.77104  1.0000
  C   C13       1.0  0.06349  0.11477  0.78765  1.0000
  C   C14       1.0  0.07364  0.10424  0.82898  1.0000
  C   C15       1.0  0.09040  0.11389  0.85455  1.0000
  C   C16       1.0  0.09707  0.13417  0.83804  1.0000
  C   C17       1.0  0.08704  0.14461  0.79641  1.0000
  H   H8        1.0  0.05027  0.10744  0.76910  1.0000
  H   H9        1.0  0.06831  0.08862  0.84165  1.0000
  H   H10       1.0  0.10996  0.14178  0.85731  1.0000
  H   H11       1.0  0.09245  0.16021  0.78380  1.0000
  C   C18       1.0  0.14274  0.07476  0.18375  1.0000
  C   C19       1.0  0.15204  0.05779  0.15696  1.0000
  C   C20       1.0  0.15576  0.03800  0.18224  1.0000
  C   C21       1.0  0.15031  0.03495  0.23446  1.0000
  C   C22       1.0  0.14124  0.05202  0.26138  1.0000
  C   C23       1.0  0.13754  0.07182  0.23613  1.0000
  H   H12       1.0  0.15622  0.05986  0.11677  1.0000
  H   H13       1.0  0.16274  0.02487  0.16116  1.0000
  H   H14       1.0  0.13691  0.04989  0.30148  1.0000
  H   H15       1.0  0.13040  0.08487  0.25723  1.0000
  C   C24       1.0  0.26587  0.12885  0.03934  1.0000
  C   C25       1.0  0.24553  0.13167  0.06167  1.0000
  C   C26       1.0  0.22711  0.12861  0.03295  1.0000
  C   C27       1.0  0.22886  0.12232  0.98188  1.0000
  C   C28       1.0  0.24923  0.11946  0.95953  1.0000
  C   C29       1.0  0.26767  0.12274  0.98814  1.0000
  H   H16       1.0  0.24402  0.13643  0.10127  1.0000
  H   H17       1.0  0.21158  0.13098  0.05055  1.0000
  H   H18       1.0  0.25082  0.11486  0.91992  1.0000
  H   H19       1.0  0.28329  0.12078  0.97065  1.0000
  H   H20       1.0  0.02141  0.23144  0.22091  1.0000
  C   C30       1.0  0.15139  0.21035  0.96336  1.0000
  C   C31       1.0  0.13709  0.21121  0.00504  1.0000
  C   C32       1.0  0.13051  0.23112  0.02378  1.0000
  H   H21       1.0  0.15656  0.19505  0.94874  1.0000
  H   H22       1.0  0.25137  0.01600  0.84907  1.0000
  H   H23       1.0  0.26227  0.04108  0.99916  1.0000
  C   C33       1.0  0.02623  0.04855  0.44850  1.0000
  H   H24       1.0  0.11394  0.18530  0.90653  1.0000
  H   H25       1.0  0.29914  0.08024  0.26921  1.0000
  C   C34       1.0  0.11865  0.18353  0.21191  1.0000
  C   C35       1.0  0.18893  0.04627  0.76077  1.0000
  C   C36       1.0  0.29156  0.10879  0.79796  1.0000
  C   C37       1.0  0.14838  0.01444  0.61187  1.0000
  C   C38       1.0  0.11324  0.17721  0.26255  1.0000
  C   C39       1.0  0.10627  0.15641  0.27342  1.0000
  C   C40       1.0  0.10470  0.14176  0.23398  1.0000
  C   C41       1.0  0.10976  0.14799  0.18359  1.0000
  C   C42       1.0  0.11671  0.16871  0.17261  1.0000
  C   C43       1.0  0.17216  0.01164  0.76518  1.0000
  H   H26       1.0  0.08578  0.20093  0.98659  1.0000
  C   C44       1.0  0.20380  0.01692  0.71199  1.0000
  C   C45       1.0  0.04509  0.18928  0.16133  1.0000
  H   H27       1.0  0.30061  0.05083  0.64512  1.0000
  H   H28       1.0  0.31457  0.04271  0.81544  1.0000
  H   H29       1.0  0.09063  0.18150  0.59852  1.0000
  C   C46       1.0  0.09907  0.20285  0.84376  1.0000
  H   H30       1.0  0.15500  0.00165  0.58878  1.0000
  H   H31       1.0  0.19160  0.06670  0.49888  1.0000
  C   C47       1.0  0.03392  0.19241  0.40254  1.0000
  H   H32       1.0  0.10238  0.15147  0.31254  1.0000
  H   H33       1.0  0.09983  0.12547  0.24233  1.0000
  H   H34       1.0  0.10875  0.13655  0.15305  1.0000
  C   C48       1.0  0.04887  0.20263  0.36992  1.0000
  H   H35       1.0  0.14717  0.17772  0.85840  1.0000
  H   H36       1.0  0.17922  0.09038  0.56897  1.0000
  H   H37       1.0  0.23436  0.03433  0.60130  1.0000
  C   C49       1.0  0.18765  0.00364  0.73118  1.0000
  H   H38       1.0  0.06396  0.18278  0.28167  1.0000
  P   P1        1.0  0.12899  0.20994  0.19726  1.0000
  H   H39       1.0  0.27733  0.05709  0.78476  1.0000
  C   C50       1.0  0.16921  0.10425  0.75808  1.0000
  C   C51       1.0  0.16657  0.10185  0.81120  1.0000
  C   C52       1.0  0.14941  0.09024  0.83139  1.0000
  C   C53       1.0  0.13494  0.08087  0.79870  1.0000
  C   C54       1.0  0.13770  0.08276  0.74519  1.0000
  C   C55       1.0  0.15478  0.09486  0.72524  1.0000
  P   P2        1.0  0.11921  0.07090  0.70165  1.0000
  C   C56       1.0  0.09537  0.06158  0.73470  1.0000
  C   C57       1.0  0.11243  0.09162  0.65557  1.0000
  C   C58       1.0  0.11403  0.08808  0.60261  1.0000
  C   C59       1.0  0.10882  0.10447  0.56770  1.0000
  C   C60       1.0  0.10139  0.12420  0.58520  1.0000
  C   C61       1.0  0.09989  0.12786  0.63781  1.0000
  C   C62       1.0  0.10557  0.11171  0.67292  1.0000
  C   C63       1.0  0.07520  0.07023  0.72315  1.0000
  C   C64       1.0  0.05695  0.06265  0.74879  1.0000
  C   C65       1.0  0.05862  0.04625  0.78562  1.0000
  C   C66       1.0  0.07852  0.03711  0.79625  1.0000
  C   C67       1.0  0.09680  0.04459  0.77053  1.0000
  C   C68       1.0  0.13094  0.04830  0.66884  1.0000
  C   C69       1.0  0.11773  0.03241  0.64996  1.0000
  C   C70       1.0  0.12650  0.01541  0.62234  1.0000
  H   H40       1.0  0.06615  0.16628  0.19708  1.0000
  C   C71       1.0  0.16160  0.03027  0.62994  1.0000
  C   C72       1.0  0.15296  0.04704  0.65869  1.0000
  H   H41       1.0  0.18228  0.11363  0.74250  1.0000
  H   H42       1.0  0.17753  0.10935  0.83688  1.0000
  H   H43       1.0  0.14689  0.08904  0.87262  1.0000
  H   H44       1.0  0.12134  0.07285  0.81581  1.0000
  H   H45       1.0  0.15671  0.09731  0.68419  1.0000
  H   H46       1.0  0.11895  0.07270  0.58784  1.0000
  H   H47       1.0  0.10990  0.10166  0.52689  1.0000
  H   H48       1.0  0.09638  0.13643  0.55786  1.0000
  H   H49       1.0  0.09388  0.14305  0.65151  1.0000
  H   H50       1.0  0.10413  0.11469  0.71365  1.0000
  H   H51       1.0  0.07337  0.08296  0.69484  1.0000
  H   H52       1.0  0.04151  0.06979  0.74059  1.0000
  H   H53       1.0  0.04446  0.04068  0.80598  1.0000
  H   H54       1.0  0.07980  0.02439  0.82484  1.0000
  H   H55       1.0  0.11212  0.03731  0.77900  1.0000
  H   H56       1.0  0.10058  0.03339  0.65516  1.0000
  H   H57       1.0  0.15190  0.19086  0.76868  1.0000
  C   C73       1.0  0.25179  0.00541  0.49596  1.0000
  H   H58       1.0  0.17851  0.02962  0.62091  1.0000
  H   H59       1.0  0.16346  0.05907  0.67211  1.0000
  C   C74       1.0  0.20328  0.07236  0.05534  1.0000
  C   C75       1.0  0.19790  0.05084  0.05231  1.0000
  C   C76       1.0  0.20152  0.03695  0.09395  1.0000
  C   C77       1.0  0.21032  0.04460  0.13883  1.0000
  C   C78       1.0  0.21552  0.06628  0.14230  1.0000
  C   C79       1.0  0.21214  0.08000  0.09999  1.0000
  P   P3        1.0  0.22627  0.07671  0.20035  1.0000
  C   C80       1.0  0.21865  0.05908  0.25323  1.0000
  C   C81       1.0  0.25495  0.07883  0.19480  1.0000
  C   C82       1.0  0.26747  0.07805  0.23899  1.0000
  C   C83       1.0  0.28955  0.08081  0.23507  1.0000
  C   C84       1.0  0.29924  0.08473  0.18719  1.0000
  C   C85       1.0  0.28686  0.08585  0.14328  1.0000
  C   C86       1.0  0.26482  0.08298  0.14692  1.0000
  C   C87       1.0  0.19905  0.06193  0.27930  1.0000
  C   C88       1.0  0.19284  0.04762  0.31845  1.0000
  Fe  Fe7       1.0  0.00051  0.10917  0.60934  1.0000
  S   S17       1.0  0.21032  0.99945  0.46560  1.0000
  C   C89       1.0  0.23165  0.04139  0.26629  1.0000
  C   C90       1.0  0.21492  0.10313  0.20936  1.0000
  C   C91       1.0  0.19337  0.10719  0.19864  1.0000
  C   C92       1.0  0.18465  0.12771  0.20387  1.0000
  C   C93       1.0  0.19740  0.14440  0.21958  1.0000
  C   C94       1.0  0.21890  0.14058  0.22989  1.0000
  C   C95       1.0  0.22765  0.12004  0.22488  1.0000
  H   H60       1.0  0.20027  0.08330  0.02355  1.0000
  C   C96       1.0  0.18782  0.20592  0.08821  1.0000
  C   C97       1.0  0.29218  0.02523  0.69728  1.0000
  H   H61       1.0  0.21245  0.03364  0.17100  1.0000
  H   H62       1.0  0.21600  0.09674  0.10193  1.0000
  H   H63       1.0  0.26015  0.07568  0.27658  1.0000
  C   C98       1.0  0.09311  0.21778  0.13680  1.0000
  H   H64       1.0  0.02895  0.16934  0.46390  1.0000
  H   H65       1.0  0.29431  0.08956  0.10635  1.0000
  H   H66       1.0  0.25560  0.08458  0.11239  1.0000
  H   H67       1.0  0.18820  0.07476  0.26882  1.0000
  H   H68       1.0  0.15980  0.17522  0.17362  1.0000
  C   C99       1.0  0.27038  0.00110  0.52444  1.0000
  H   H69       1.0  0.20709  0.07073  0.93751  1.0000
  H   H70       1.0  0.24639  0.03827  0.24540  1.0000
  H   H71       1.0  0.18330  0.09449  0.18585  1.0000
  H   H72       1.0  0.16798  0.13059  0.19540  1.0000
  H   H73       1.0  0.19066  0.16030  0.22358  1.0000
  H   H74       1.0  0.22887  0.15357  0.24141  1.0000
  H   H75       1.0  0.24438  0.11756  0.23258  1.0000
  C   C100      1.0  0.02293  0.23296  0.80089  1.0000
  C   C101      1.0  0.28200  0.07146  0.80359  1.0000
  H   H76       1.0  0.06095  0.18391  0.79160  1.0000
  H   H77       1.0  0.21929  0.03911  0.51532  1.0000
  H   H78       1.0  0.02362  0.21438  0.13643  1.0000
  H   H79       1.0  0.23399  0.09981  0.66565  1.0000
  C   C102      1.0  0.05854  0.15000  0.93888  1.0000
  C   C103      1.0  0.01291  0.22886  0.32972  1.0000
  C   C104      1.0  0.23497  0.11818  0.73415  1.0000
  H   H80       1.0  0.08984  0.22030  0.77518  1.0000
  H   H81       1.0  0.04601  0.18179  0.12420  1.0000
  C   C105      1.0  0.27887  0.04527  0.00167  1.0000
  C   C106      1.0  0.20482  0.03826  0.72736  1.0000
  C   C107      1.0  0.19849  0.06517  0.53664  1.0000
  C   C108      1.0  0.22966  0.09866  0.81421  1.0000
  C   C109      1.0  0.29126  0.09016  0.88027  1.0000
  C   C110      1.0  0.32067  0.12280  0.32032  1.0000
  C   C111      1.0  0.07542  0.16933  0.00602  1.0000
  H   H82       1.0  0.16956  0.22874  0.90737  1.0000
  C   C112      1.0  0.05724  0.24433  0.32045  1.0000
  H   H83       1.0  0.06518  0.13666  0.01365  1.0000
  C   C113      1.0  0.30079  0.19170  0.95585  1.0000
  C   C114      1.0  0.07897  0.23459  0.58412  1.0000
  C   C115      1.0  0.28787  0.04357  0.66781  1.0000
  C   C116      1.0  0.18190  0.18810  0.11802  1.0000
  H   H84       1.0  0.31229  0.12875  0.24128  1.0000
  C   C117      1.0  0.03231  0.23846  0.49798  1.0000
  H   H85       1.0  0.07716  0.18872  0.68642  1.0000
  P   P4        1.0  0.04051  0.22109  0.31960  1.0000
  S   S18       1.0  0.00613  0.12481  0.53145  1.0000
  C   C118      1.0  0.00388  0.21300  0.51655  1.0000
  S   S19       1.0  0.00090  0.14130  0.64931  1.0000
  C   C119      1.0  0.11555  0.19106  0.86719  1.0000
  C   C120      1.0  0.03250  0.20762  0.16822  1.0000
  C   C121      1.0  0.06226  0.17219  0.44362  1.0000
  H   H86       1.0  0.29946  0.12326  0.86935  1.0000
  Fe  Fe8       1.0  0.00924  0.15635  0.57153  1.0000
  H   H87       1.0  0.25449  0.21963  0.02982  1.0000
  C   C122      1.0  0.03347  0.19984  0.76107  1.0000
  H   H88       1.0  0.09242  0.20074  0.13154  1.0000
  H   H89       1.0  0.11469  0.18802  0.29396  1.0000
  C   C123      1.0  0.03954  0.23048  0.83573  1.0000
  C   C124      1.0  0.17277  0.03297  0.77986  1.0000
  C   C125      1.0  0.12096  0.20621  0.76617  1.0000
  C   C126      1.0  0.22540  0.02719  0.30569  1.0000
  C   C127      1.0  0.01979  0.21755  0.76387  1.0000
  H   H90       1.0  0.28350  0.08993  0.73311  1.0000
  C   C128      1.0  0.23226  0.09935  0.70705  1.0000
  C   C129      1.0  0.10205  0.21066  0.79335  1.0000
  H   H91       1.0  0.18861  0.06286  0.77139  1.0000
  C   C130      1.0  0.28535  0.09010  0.77428  1.0000
  C   C131      1.0  0.02293  0.03383  0.59468  1.0000
  C   C132      1.0  0.02394  0.01499  0.56642  1.0000
  C   C133      1.0  0.17631  0.22506  0.09247  1.0000
  H   H92       1.0  0.29371  0.09057  0.92116  1.0000
  H   H93       1.0  0.09407  0.17882  0.41622  1.0000
  H   H94       1.0  0.29451  0.12315  0.77521  1.0000
  C   C134      1.0  0.24199  0.02773  0.86977  1.0000
  C   C135      1.0  0.03379  0.03521  0.64069  1.0000
  C   C136      1.0  0.23904  0.05986  0.91987  1.0000
  H   H95       1.0  0.19062  0.04501  0.01807  1.0000
  H   H96       1.0  0.24626  0.07315  0.93880  1.0000
  C   C137      1.0  0.28595  0.17967  0.98390  1.0000
  H   H97       1.0  0.31142  0.22299  0.93407  1.0000
  H   H98       1.0  0.05189  0.13534  0.92498  1.0000
  C   C138      1.0  0.29441  0.10884  0.85097  1.0000
  C   C139      1.0  0.05648  0.18056  0.20240  1.0000
  H   H99       1.0  0.31659  0.05215  0.09201  1.0000
  C   C140      1.0  0.07831  0.23279  0.91538  1.0000
  H   H100      1.0  0.28760  0.16246  0.98549  1.0000
  H   H101      1.0  0.08246  0.20586  0.35163  1.0000
  C   C141      1.0  0.28245  0.22440  0.98082  1.0000
  C   C142      1.0  0.28524  0.07126  0.85669  1.0000
  H   H102      1.0  0.17745  0.04955  0.33745  1.0000
  H   H103      1.0  0.10353  0.23029  0.27789  1.0000
  C   C143      1.0  0.07067  0.19799  0.37592  1.0000
  H   H104      1.0  0.00847  0.09969  0.43073  1.0000
  C   C144      1.0  0.25182  0.04435  0.89553  1.0000
  H   H105      1.0  0.12106  0.17297  0.13351  1.0000
  H   H106      1.0  0.25184  0.01826  0.46762  1.0000
  H   H107      1.0  0.19077  0.17322  0.11439  1.0000
  C   C145      1.0  0.28797  0.04630  0.05014  1.0000
  C   C146      1.0  0.29133  0.04934  0.95729  1.0000
  C   C147      1.0  0.15218  0.20834  0.15496  1.0000
  H   H108      1.0  0.01707  0.19608  0.40061  1.0000
  C   C148      1.0  0.03124  0.21720  0.21620  1.0000
  H   H109      1.0  0.09157  0.21076  0.53280  1.0000
  P   P5        1.0  0.28045  0.04716  0.89413  1.0000
  H   H110      1.0  0.16053  0.03930  0.80544  1.0000
  C   C149      1.0  0.19155  0.07847  0.57617  1.0000
  C   C150      1.0  0.15880  0.22941  0.94022  1.0000
  Fe  Fe9       1.0  0.32229  0.13374  0.04268  1.0000
  C   C151      1.0  0.20600  0.03030  0.33173  1.0000
  H   H111      1.0  0.26427  0.06672  0.64474  1.0000
  C   C152      1.0  0.05319  0.21250  0.83383  1.0000
  H   H112      1.0  0.19429  0.08615  0.65556  1.0000
  C   C153      1.0  0.04063  0.17720  0.43900  1.0000
  C   C154      1.0  0.07118  0.23877  0.63379  1.0000
  C   C155      1.0  0.21413  0.04956  0.54593  1.0000
  C   C156      1.0  0.21588  0.06038  0.63469  1.0000
  C   C157      1.0  0.05025  0.19748  0.79537  1.0000
  H   H113      1.0  0.31627  0.08732  0.18404  1.0000
  C   C158      1.0  0.25100  0.04316  0.69788  1.0000
  C   C159      1.0  0.29395  0.02432  0.86663  1.0000
  C   C160      1.0  0.22274  0.04703  0.59478  1.0000
  C   C161      1.0  0.20020  0.07609  0.62505  1.0000
  H   H114      1.0  0.30475  0.12611  0.33514  1.0000
  H   H115      1.0  0.22497  0.06500  0.80838  1.0000
  C   C162      1.0  0.07070  0.22209  0.67055  1.0000
  H   H116      1.0  0.05662  0.00690  0.48923  1.0000
  C   C163      1.0  0.26931  0.18983  0.01049  1.0000
  C   C164      1.0  0.27606  0.01588  0.72740  1.0000
  C   C165      1.0  0.07801  0.20162  0.65808  1.0000
  H   H117      1.0  0.27960  0.00164  0.75014  1.0000
  H   H118      1.0  0.03286  0.04995  0.66167  1.0000
  C   C166      1.0  0.13450  0.18676  0.84003  1.0000
  C   C167      1.0  0.28977  0.00371  0.88628  1.0000
  H   H119      1.0  0.02888  0.22809  0.64442  1.0000
  C   C168      1.0  0.02578  0.06978  0.43088  1.0000
  C   C169      1.0  0.13717  0.19422  0.78950  1.0000
  C   C170      1.0  0.06990  0.18659  0.92278  1.0000
  C   C171      1.0  0.12012  0.23117  0.28822  1.0000
  H   H120      1.0  0.23533  0.01348  0.31556  1.0000
  H   H121      1.0  0.28443  0.01067  0.51805  1.0000
  C   C172      1.0  0.29928  0.21398  0.95480  1.0000
  C   C173      1.0  0.21682  0.05849  0.91939  1.0000
  H   H122      1.0  0.04874  0.22924  0.95855  1.0000
  H   H123      1.0  0.24351  0.01771  0.75277  1.0000
  H   H124      1.0  0.17015  0.21713  0.24643  1.0000
  H   H125      1.0  0.23848  0.13300  0.71371  1.0000
  C   C174      1.0  0.07731  0.18272  0.41241  1.0000
  H   H126      1.0  0.27809  0.00139  0.91694  1.0000
  C   C175      1.0  0.21975  0.02626  0.86992  1.0000
  H   H127      1.0  0.08201  0.16966  0.04411  1.0000
  P   P6        1.0  0.22490  0.05554  0.69920  1.0000
  C   C176      1.0  0.07746  0.18713  0.97315  1.0000
  C   C177      1.0  0.22763  0.08014  0.73344  1.0000
  H   H128      1.0  0.06727  0.16007  0.47135  1.0000
  C   C178      1.0  0.05522  0.19007  0.25049  1.0000
  H   H129      1.0  0.27587  0.23734  0.87434  1.0000
  C   C179      1.0  0.26734  0.05250  0.66790  1.0000
  C   C180      1.0  0.31300  0.05405  0.96209  1.0000
  H   H130      1.0  0.30810  0.01836  0.69694  1.0000
  H   H131      1.0  0.22883  0.09840  0.85576  1.0000
  H   H132      1.0  0.04016  0.03885  0.43975  1.0000
  C   C181      1.0  0.22719  0.07982  0.78724  1.0000
  H   H133      1.0  0.03919  0.07615  0.40896  1.0000
  C   C182      1.0  0.04247  0.20843  0.25787  1.0000
  H   H134      1.0  0.06394  0.22475  0.70834  1.0000
  C   C183      1.0  0.31017  0.02699  0.82938  1.0000
  H   H135      1.0  0.05485  0.16646  0.86735  1.0000
  H   H136      1.0  0.04907  0.24206  0.49760  1.0000
  C   C184      1.0  0.23347  0.11787  0.78773  1.0000
  C   C185      1.0  0.06606  0.15073  0.98883  1.0000
  H   H137      1.0  0.23559  0.13239  0.80896  1.0000
  H   H138      1.0  0.31368  0.18369  0.93550  1.0000
  C   C186      1.0  0.26748  0.21214  0.00887  1.0000
  H   H139      1.0  0.25799  0.18031  0.03265  1.0000
  H   H140      1.0  0.11940  0.23192  0.05571  1.0000
  H   H141      1.0  0.27834  0.04321  0.08433  1.0000
  C   C187      1.0  0.00850  0.08310  0.44341  1.0000
  C   C188      1.0  0.32486  0.12426  0.26754  1.0000
  C   C189      1.0  0.25557  0.02494  0.72824  1.0000
  C   C190      1.0  0.16420  0.18929  0.15140  1.0000
  Fe  Fe10      1.0  0.12832  0.00256  0.45297  1.0000
  P   P7        1.0  0.07472  0.20886  0.87888  1.0000
  H   H142      1.0  0.20114  0.20482  0.06128  1.0000
  P   P8        1.0  0.01072  0.01365  0.50564  1.0000
  C   C191      1.0  0.08612  0.21403  0.57155  1.0000
  H   H143      1.0  0.06641  0.22406  0.08775  1.0000
  H   H144      1.0  0.18994  0.04060  0.89473  1.0000
  H   H145      1.0  0.19701  0.02034  0.09209  1.0000
  C   C192      1.0  0.13612  0.22250  0.25616  1.0000
  H   H146      1.0  0.05445  0.01905  0.69426  1.0000
  H   H147      1.0  0.10903  0.24099  0.88097  1.0000
  H   H148      1.0  0.31905  0.23769  0.03114  1.0000
  C   C193      1.0  0.08560  0.19754  0.60850  1.0000
  H   H149      1.0  0.00677  0.21930  0.73730  1.0000
  C   C194      1.0  0.15868  0.22634  0.12599  1.0000
  C   C195      1.0  0.06269  0.23898  0.95163  1.0000
  Fe  Fe11      1.0  0.14951  0.99912  0.34758  1.0000
  H   H150      1.0  0.12310  0.21215  0.72714  1.0000
  C   C196      1.0  0.00922  0.04039  0.47840  1.0000
  H   H151      1.0  0.01393  0.04764  0.58128  1.0000
  C   C197      1.0  0.10895  0.22668  0.16681  1.0000
  H   H152      1.0  0.20096  0.01899  0.36144  1.0000
  C   C198      1.0  0.15752  0.22372  0.27043  1.0000
  H   H153      1.0  0.00068  0.19825  0.30762  1.0000
  C   C199      1.0  0.04580  0.01781  0.65894  1.0000
  H   H154      1.0  0.04158  0.24273  0.86370  1.0000
  C   C200      1.0  0.32132  0.00928  0.81034  1.0000
  C   C201      1.0  0.04666  0.99886  0.63145  1.0000
  H   H155      1.0  0.21226  0.01334  0.85024  1.0000
  H   H156      1.0  0.11619  0.00339  0.60719  1.0000
  C   C202      1.0  0.99673  0.21422  0.32036  1.0000
  C   C203      1.0  0.16281  0.23366  0.31597  1.0000
  H   H157      1.0  0.31931  0.00992  0.46789  1.0000
  C   C204      1.0  0.32198  0.05519  0.01054  1.0000
  H   H158      1.0  0.32302  0.05692  0.92834  1.0000
  C   C205      1.0  0.02591  0.99675  0.46257  1.0000
  C   C206      1.0  0.02035  0.24280  0.63588  1.0000
  C   C207      1.0  0.09637  0.24555  0.90749  1.0000
  C   C208      1.0  0.12546  0.24102  0.33379  1.0000
  H   H159      1.0  0.15950  0.00139  0.77948  1.0000
  C   C209      1.0  0.99877  0.24164  0.62397  1.0000
  H   H160      1.0  0.14989  0.24128  0.12792  1.0000
  H   H161      1.0  0.17937  0.23474  0.32659  1.0000
  H   H162      1.0  0.18062  0.23877  0.06860  1.0000
  C   C210      1.0  0.14681  0.24233  0.34759  1.0000
  C   C211      1.0  0.03563  0.99737  0.58556  1.0000
  C   C212      1.0  0.04828  0.99673  0.46336  1.0000
  Fe  Fe12      1.0  0.13352  0.32836  0.05849  1.0000
  S   S20       1.0  0.12326  0.32045  0.97865  1.0000
  S   S21       1.0  0.11843  0.32133  0.13775  1.0000
  Fe  Fe13      1.0  0.17874  0.33994  0.02065  1.0000
  S   S22       1.0  0.17207  0.33319  0.93832  1.0000
  S   S23       1.0  0.21007  0.34971  0.05478  1.0000
  Fe  Fe14      1.0  0.14084  0.35030  0.95237  1.0000
  S   S24       1.0  0.12563  0.36991  0.88734  1.0000
  Fe  Fe15      1.0  0.15512  0.30415  0.96950  1.0000
  S   S25       1.0  0.16114  0.27296  0.92879  1.0000
  S   S26       1.0  0.14868  0.35947  0.03335  1.0000
  S   S27       1.0  0.16424  0.30960  0.05062  1.0000
  S   S28       1.0  0.29819  0.33668  0.93494  1.0000
  Fe  Fe16      1.0  0.15815  0.45360  0.67036  1.0000
  S   S29       1.0  0.17668  0.43527  0.61084  1.0000
  S   S30       1.0  0.16513  0.44744  0.75500  1.0000
  Fe  Fe17      1.0  0.17944  0.46633  0.56657  1.0000
  Fe  Fe18      1.0  0.14503  0.43156  0.57374  1.0000
  S   S31       1.0  0.13833  0.39954  0.53846  1.0000
  S   S32       1.0  0.12623  0.44768  0.63632  1.0000
  Fe  Fe19      1.0  0.01937  0.33854  0.32454  1.0000
  S   S33       1.0  0.04309  0.33067  0.38563  1.0000
  S   S34       1.0  0.02650  0.33827  0.23847  1.0000
  Fe  Fe20      1.0  0.01612  0.31229  0.42470  1.0000
  Fe  Fe21      1.0  0.02971  0.35963  0.42514  1.0000
  S   S35       1.0  0.04433  0.38853  0.46056  1.0000
  S   S36       1.0  0.00805  0.36904  0.36087  1.0000
  C   C213      1.0  0.30505  0.47662  0.32233  1.0000
  C   C214      1.0  0.27310  0.46903  0.81489  1.0000
  C   C215      1.0  0.11197  0.39570  0.51902  1.0000
  C   C216      1.0  0.10696  0.37778  0.49016  1.0000
  C   C217      1.0  0.08605  0.37494  0.47308  1.0000
  C   C218      1.0  0.07022  0.39009  0.48456  1.0000
  C   C219      1.0  0.07517  0.40772  0.51413  1.0000
  C   C220      1.0  0.09595  0.41049  0.53154  1.0000
  H   H163      1.0  0.11931  0.36624  0.48055  1.0000
  H   H164      1.0  0.08217  0.36130  0.45053  1.0000
  H   H165      1.0  0.06284  0.41932  0.52342  1.0000
  H   H166      1.0  0.09962  0.42421  0.55420  1.0000
  C   C221      1.0  0.26942  0.46824  0.45987  1.0000
  C   C222      1.0  0.24714  0.46537  0.46540  1.0000
  H   H167      1.0  0.21634  0.26867  0.08566  1.0000
  C   C223      1.0  0.00466  0.43366  0.57312  1.0000
  C   C224      1.0  0.09291  0.32725  0.16461  1.0000
  C   C225      1.0  0.08991  0.32505  0.21805  1.0000
  C   C226      1.0  0.06977  0.32866  0.24123  1.0000
  C   C227      1.0  0.05226  0.33406  0.21104  1.0000
  C   C228      1.0  0.05523  0.33620  0.15756  1.0000
  C   C229      1.0  0.07550  0.33299  0.13442  1.0000
  H   H168      1.0  0.10324  0.32045  0.24169  1.0000
  H   H169      1.0  0.06770  0.32717  0.28235  1.0000
  H   H170      1.0  0.04178  0.34046  0.13393  1.0000
  H   H171      1.0  0.07757  0.33465  0.09326  1.0000
  C   C230      1.0  0.13715  0.39126  0.85080  1.0000
  C   C231      1.0  0.15329  0.40383  0.87011  1.0000
  C   C232      1.0  0.16162  0.42101  0.84048  1.0000
  C   C233      1.0  0.15407  0.42570  0.79101  1.0000
  C   C234      1.0  0.13782  0.41322  0.77178  1.0000
  C   C235      1.0  0.12929  0.39624  0.80174  1.0000
  H   H172      1.0  0.15880  0.40070  0.90857  1.0000
  H   H173      1.0  0.17385  0.43082  0.85619  1.0000
  H   H174      1.0  0.13169  0.41672  0.73401  1.0000
  H   H175      1.0  0.11660  0.38681  0.78666  1.0000
  C   C236      1.0  0.08217  0.26544  0.73820  1.0000
  C   C237      1.0  0.21915  0.36079  0.79011  1.0000
  H   H176      1.0  0.18809  0.35460  0.82378  1.0000
  H   H177      1.0  0.13354  0.26537  0.01724  1.0000
  C   C238      1.0  0.23459  0.34432  0.02266  1.0000
  C   C239      1.0  0.23528  0.33626  0.97300  1.0000
  C   C240      1.0  0.25495  0.33371  0.94695  1.0000
  C   C241      1.0  0.27409  0.33889  0.97053  1.0000
  C   C242      1.0  0.27349  0.34639  0.02067  1.0000
  C   C243      1.0  0.25377  0.34924  0.04647  1.0000
  H   H178      1.0  0.22063  0.33243  0.95428  1.0000
  H   H179      1.0  0.25533  0.32785  0.90820  1.0000
  H   H180      1.0  0.28815  0.35042  0.03915  1.0000
  H   H181      1.0  0.25334  0.35554  0.08482  1.0000
  H   H182      1.0  0.06570  0.30826  0.49028  1.0000
  C   C244      1.0  0.30851  0.43852  0.00830  1.0000
  C   C245      1.0  0.06197  0.25344  0.36755  1.0000
  H   H183      1.0  0.32697  0.31491  0.24973  1.0000
  H   H184      1.0  0.31583  0.30512  0.86117  1.0000
  H   H185      1.0  0.24767  0.36982  0.74964  1.0000
  C   C246      1.0  0.09530  0.26219  0.14461  1.0000
  C   C247      1.0  0.06246  0.26989  0.71538  1.0000
  C   C248      1.0  0.24682  0.48399  0.54548  1.0000
  C   C249      1.0  0.21551  0.41460  0.52461  1.0000
  C   C250      1.0  0.99752  0.46430  0.71049  1.0000
  H   H186      1.0  0.24594  0.26622  0.90814  1.0000
  S   S37       1.0  0.20701  0.47255  0.50805  1.0000
  C   C251      1.0  0.32167  0.28202  0.10346  1.0000
  H   H187      1.0  0.26723  0.37240  0.83038  1.0000
  C   C252      1.0  0.20998  0.27278  0.00531  1.0000
  C   C253      1.0  0.30271  0.45246  0.76932  1.0000
  H   H188      1.0  0.19339  0.27712  0.01139  1.0000
  H   H189      1.0  0.29526  0.44929  0.93714  1.0000
  C   C254      1.0  0.28977  0.26299  0.91643  1.0000
  C   C255      1.0  0.15617  0.35658  0.18980  1.0000
  C   C256      1.0  0.16988  0.37292  0.17408  1.0000
  C   C257      1.0  0.16943  0.39228  0.19981  1.0000
  C   C258      1.0  0.15526  0.39534  0.24124  1.0000
  C   C259      1.0  0.14134  0.37897  0.25722  1.0000
  C   C260      1.0  0.14192  0.35957  0.23104  1.0000
  P   P9        1.0  0.12304  0.38237  0.31111  1.0000
  C   C261      1.0  0.12527  0.35863  0.35145  1.0000
  C   C262      1.0  0.12964  0.40624  0.34516  1.0000
  C   C263      1.0  0.14053  0.40526  0.39173  1.0000
  C   C264      1.0  0.14643  0.42407  0.41548  1.0000
  C   C265      1.0  0.14123  0.44395  0.39355  1.0000
  C   C266      1.0  0.12991  0.44507  0.34799  1.0000
  C   C267      1.0  0.12408  0.42632  0.32394  1.0000
  C   C268      1.0  0.10717  0.34683  0.36613  1.0000
  C   C269      1.0  0.10914  0.32869  0.39795  1.0000
  C   C270      1.0  0.12920  0.32195  0.41462  1.0000
  C   C271      1.0  0.14736  0.33320  0.39890  1.0000
  C   C272      1.0  0.14543  0.35137  0.36713  1.0000
  C   C273      1.0  0.09585  0.38596  0.29104  1.0000
  C   C274      1.0  0.08024  0.39234  0.32717  1.0000
  C   C275      1.0  0.05887  0.39402  0.31345  1.0000
  C   C276      1.0  0.05295  0.38960  0.26341  1.0000
  C   C277      1.0  0.06848  0.38386  0.22690  1.0000
  C   C278      1.0  0.08986  0.38189  0.24061  1.0000
  H   H190      1.0  0.15650  0.34161  0.16957  1.0000
  H   H191      1.0  0.18081  0.37052  0.14183  1.0000
  H   H192      1.0  0.18012  0.40491  0.18753  1.0000
  H   H193      1.0  0.15543  0.41041  0.26063  1.0000
  H   H194      1.0  0.13130  0.34676  0.24223  1.0000
  H   H195      1.0  0.14444  0.39017  0.41029  1.0000
  H   H196      1.0  0.15492  0.42324  0.45130  1.0000
  H   H197      1.0  0.14579  0.45846  0.41223  1.0000
  H   H198      1.0  0.12564  0.46046  0.33143  1.0000
  H   H199      1.0  0.11545  0.42745  0.28835  1.0000
  H   H200      1.0  0.09143  0.35156  0.35360  1.0000
  H   H201      1.0  0.09501  0.32004  0.41001  1.0000
  H   H202      1.0  0.13067  0.30804  0.43974  1.0000
  H   H203      1.0  0.16295  0.32795  0.41156  1.0000
  H   H204      1.0  0.15964  0.35993  0.35517  1.0000
  H   H205      1.0  0.08448  0.39533  0.36648  1.0000
  H   H206      1.0  0.04683  0.39823  0.34203  1.0000
  H   H207      1.0  0.03628  0.39015  0.25313  1.0000
  H   H208      1.0  0.06380  0.38016  0.18830  1.0000
  H   H209      1.0  0.10145  0.37675  0.21199  1.0000
  C   C279      1.0  0.20755  0.38407  0.60202  1.0000
  H   H210      1.0  0.09014  0.29816  0.66907  1.0000
  C   C280      1.0  0.07349  0.27237  0.36900  1.0000
  C   C281      1.0  0.29146  0.28457  0.04717  1.0000
  C   C282      1.0  0.08277  0.27062  0.97016  1.0000
  C   C283      1.0  0.22186  0.40064  0.61082  1.0000
  H   H211      1.0  0.18476  0.37129  0.55026  1.0000
  P   P10       1.0  0.23498  0.40245  0.67186  1.0000
  C   C284      1.0  0.22025  0.38740  0.72066  1.0000
  C   C285      1.0  0.26199  0.39233  0.66638  1.0000
  C   C286      1.0  0.27686  0.39726  0.70387  1.0000
  C   C287      1.0  0.29785  0.38958  0.69987  1.0000
  C   C288      1.0  0.31436  0.25306  0.04636  1.0000
  C   C289      1.0  0.28946  0.37210  0.62094  1.0000
  C   C290      1.0  0.26841  0.37964  0.62494  1.0000
  C   C291      1.0  0.05643  0.46795  0.60445  1.0000
  S   S38       1.0  0.00489  0.34106  0.46955  1.0000
  C   C292      1.0  0.15241  0.24931  0.95959  1.0000
  C   C293      1.0  0.01259  0.42219  0.71894  1.0000
  C   C294      1.0  0.19801  0.38995  0.72558  1.0000
  C   C295      1.0  0.23619  0.43039  0.68815  1.0000
  C   C296      1.0  0.25227  0.44328  0.66623  1.0000
  C   C297      1.0  0.25271  0.46514  0.67608  1.0000
  C   C298      1.0  0.23719  0.47432  0.70816  1.0000
  C   C299      1.0  0.22137  0.46159  0.73080  1.0000
  C   C300      1.0  0.22086  0.43973  0.72094  1.0000
  C   C301      1.0  0.11002  0.24905  0.17006  1.0000
  H   H212      1.0  0.28564  0.34200  0.78965  1.0000
  C   C302      1.0  0.10190  0.48347  0.72457  1.0000
  H   H213      1.0  0.27219  0.40701  0.73617  1.0000
  P   P11       1.0  0.05877  0.26420  0.64850  1.0000
  C   C303      1.0  0.25290  0.26122  0.98874  1.0000
  H   H214      1.0  0.12250  0.25646  0.19137  1.0000
  H   H215      1.0  0.25728  0.37564  0.59550  1.0000
  C   C304      1.0  0.31369  0.47836  0.27270  1.0000
  H   H216      1.0  0.16940  0.38002  0.76583  1.0000
  C   C305      1.0  0.25502  0.40491  0.89177  1.0000
  H   H217      1.0  0.18945  0.40116  0.70098  1.0000
  H   H218      1.0  0.26420  0.43661  0.64033  1.0000
  C   C306      1.0  0.06372  0.47729  0.72553  1.0000
  C   C307      1.0  0.02699  0.43896  0.71294  1.0000
  H   H219      1.0  0.20904  0.46868  0.75502  1.0000
  H   H220      1.0  0.20817  0.43048  0.73829  1.0000
  C   C308      1.0  0.21900  0.40548  0.85881  1.0000
  C   C309      1.0  0.21155  0.39573  0.90416  1.0000
  C   C310      1.0  0.22568  0.39058  0.94328  1.0000
  C   C311      1.0  0.24736  0.39495  0.93708  1.0000
  C   C312      1.0  0.24069  0.40976  0.85221  1.0000
  H   H221      1.0  0.20795  0.40947  0.82854  1.0000
  H   H222      1.0  0.19486  0.39194  0.90900  1.0000
  H   H223      1.0  0.21979  0.38306  0.97845  1.0000
  H   H224      1.0  0.25796  0.39036  0.96772  1.0000
  H   H225      1.0  0.24618  0.41683  0.81620  1.0000
  C   C313      1.0  0.08495  0.29981  0.62991  1.0000
  H   H226      1.0  0.10353  0.32820  0.61598  1.0000
  C   C314      1.0  0.30416  0.37706  0.65836  1.0000
  C   C315      1.0  0.28050  0.47977  0.49613  1.0000
  H   H227      1.0  0.11242  0.27428  0.92813  1.0000
  C   C316      1.0  0.30737  0.29015  0.86378  1.0000
  C   C317      1.0  0.28483  0.25201  0.87181  1.0000
  C   C318      1.0  0.19707  0.36355  0.79481  1.0000
  H   H228      1.0  0.09136  0.33356  0.52681  1.0000
  C   C319      1.0  0.01892  0.28121  0.62253  1.0000
  C   C320      1.0  0.09262  0.31695  0.59988  1.0000
  H   H229      1.0  0.01844  0.40583  0.72134  1.0000
  H   H230      1.0  0.23873  0.45728  0.43580  1.0000
  C   C321      1.0  0.23559  0.47331  0.50802  1.0000
  H   H231      1.0  0.28718  0.25160  0.78930  1.0000
  C   C322      1.0  0.01764  0.25409  0.48026  1.0000
  C   C323      1.0  0.07040  0.28549  0.60955  1.0000
  H   H232      1.0  0.32514  0.33911  0.79040  1.0000
  S   S39       1.0  0.02746  0.27947  0.45763  1.0000
  S   S40       1.0  0.14832  0.46155  0.52633  1.0000
  C   C324      1.0  0.00461  0.41758  0.53674  1.0000
  H   H233      1.0  0.05269  0.26270  0.00621  1.0000
  C   C325      1.0  0.08553  0.27087  0.78915  1.0000
  H   H234      1.0  0.25965  0.45093  0.87806  1.0000
  H   H235      1.0  0.05235  0.45642  0.34802  1.0000
  C   C326      1.0  0.09843  0.26449  0.93442  1.0000
  P   P12       1.0  0.28310  0.41022  0.88268  1.0000
  C   C327      1.0  0.08580  0.31998  0.54950  1.0000
  C   C328      1.0  0.03066  0.26261  0.63499  1.0000
  C   C329      1.0  0.29915  0.43545  0.96070  1.0000
  C   C330      1.0  0.28583  0.43372  0.84159  1.0000
  C   C331      1.0  0.27177  0.45118  0.84786  1.0000
  C   C332      1.0  0.06455  0.25423  0.27472  1.0000
  H   H236      1.0  0.04387  0.43526  0.70946  1.0000
  C   C333      1.0  0.06394  0.28853  0.55872  1.0000
  C   C334      1.0  0.30043  0.39718  0.97602  1.0000
  C   C335      1.0  0.99740  0.27994  0.61004  1.0000
  C   C336      1.0  0.29506  0.41470  0.94413  1.0000
  C   C337      1.0  0.29625  0.38752  0.85360  1.0000
  H   H237      1.0  0.31375  0.38668  0.04805  1.0000
  C   C338      1.0  0.29634  0.26418  0.02823  1.0000
  H   H238      1.0  0.32050  0.37130  0.65501  1.0000
  H   H239      1.0  0.30684  0.28571  0.78213  1.0000
  C   C339      1.0  0.23981  0.26647  0.94710  1.0000
  H   H240      1.0  0.22729  0.34962  0.81556  1.0000
  C   C340      1.0  0.07148  0.30573  0.52891  1.0000
  C   C341      1.0  0.07450  0.44794  0.40721  1.0000
  C   C342      1.0  0.30222  0.27928  0.81950  1.0000
  H   H241      1.0  0.06805  0.26351  0.09604  1.0000
  H   H242      1.0  0.30927  0.39333  0.72889  1.0000
  H   H243      1.0  0.19166  0.39849  0.48201  1.0000
  C   C343      1.0  0.18653  0.37800  0.76231  1.0000
  H   H244      1.0  0.26482  0.47503  0.65780  1.0000
  C   C344      1.0  0.06922  0.28070  0.81772  1.0000
  H   H245      1.0  0.27788  0.46193  0.42690  1.0000
  H   H246      1.0  0.31469  0.45299  0.73882  1.0000
  C   C345      1.0  0.28444  0.37172  0.82990  1.0000
  C   C346      1.0  0.04613  0.27971  0.74438  1.0000
  H   H247      1.0  0.27821  0.29390  0.03212  1.0000
  C   C347      1.0  0.30144  0.43459  0.80225  1.0000
  H   H248      1.0  0.32109  0.42328  0.07656  1.0000
  P   P13       1.0  0.03804  0.48154  0.69644  1.0000
  C   C348      1.0  0.02611  0.49204  0.59656  1.0000
  H   H249      1.0  0.31174  0.45453  0.02088  1.0000
  H   H250      1.0  0.30424  0.46113  0.34153  1.0000
  C   C349      1.0  0.08174  0.48742  0.70427  1.0000
  H   H251      1.0  0.10093  0.26788  0.80621  1.0000
  C   C350      1.0  0.04953  0.28505  0.79541  1.0000
  C   C351      1.0  0.31708  0.35271  0.80736  1.0000
  Fe  Fe22      1.0  0.13173  0.47851  0.59163  1.0000
  H   H252      1.0  0.25407  0.25814  0.07156  1.0000
  C   C352      1.0  0.28854  0.46966  0.77560  1.0000
  C   C353      1.0  0.19666  0.38337  0.55577  1.0000
  H   H253      1.0  0.08463  0.28519  0.99137  1.0000
  H   H254      1.0  0.21839  0.42662  0.49489  1.0000
  H   H255      1.0  0.30538  0.29080  0.94569  1.0000
  H   H256      1.0  0.15096  0.25012  0.38271  1.0000
  C   C354      1.0  0.21844  0.27219  0.95547  1.0000
  C   C355      1.0  0.30961  0.40031  0.02371  1.0000
  C   C356      1.0  0.26901  0.48734  0.53928  1.0000
  H   H257      1.0  0.07609  0.27980  0.40550  1.0000
  H   H258      1.0  0.29753  0.38104  0.96401  1.0000
  P   P14       1.0  0.28043  0.25324  0.97839  1.0000
  H   H259      1.0  0.07195  0.28524  0.85694  1.0000
  C   C357      1.0  0.29485  0.35441  0.80673  1.0000
  C   C358      1.0  0.13855  0.25010  0.00205  1.0000
  H   H260      1.0  0.20430  0.37193  0.63110  1.0000
  H   H261      1.0  0.05258  0.27784  0.54267  1.0000
  S   S41       1.0  0.16300  0.48562  0.62921  1.0000
  C   C359      1.0  0.23069  0.37252  0.75296  1.0000
  C   C360      1.0  0.07632  0.27302  0.27636  1.0000
  C   C361      1.0  0.00729  0.24945  0.34614  1.0000
  C   C362      1.0  0.05755  0.46627  0.55115  1.0000
  H   H262      1.0  0.08932  0.29701  0.32432  1.0000
  C   C363      1.0  0.22290  0.26785  0.04702  1.0000
  C   C364      1.0  0.31856  0.38556  0.85455  1.0000
  H   H263      1.0  0.20833  0.27621  0.92333  1.0000
  H   H264      1.0  0.01591  0.40436  0.53926  1.0000
  H   H265      1.0  0.02644  0.29669  0.62139  1.0000
  H   H266      1.0  0.09648  0.27944  0.14659  1.0000
  H   H267      1.0  0.06788  0.45908  0.62735  1.0000
  C   C365      1.0  0.10422  0.46954  0.76668  1.0000
  C   C366      1.0  0.99600  0.24897  0.48088  1.0000
  H   H268      1.0  0.11995  0.46614  0.78170  1.0000
  H   H269      1.0  0.23722  0.49134  0.71490  1.0000
  H   H270      1.0  0.29443  0.36252  0.58855  1.0000
  C   C367      1.0  0.01957  0.46021  0.70999  1.0000
  C   C368      1.0  0.08073  0.28213  0.32340  1.0000
  H   H271      1.0  0.08150  0.28091  0.24102  1.0000
  C   C369      1.0  0.20054  0.39870  0.51723  1.0000
  C   C370      1.0  0.24428  0.26203  0.03884  1.0000
  C   C371      1.0  0.04292  0.47729  0.52044  1.0000
  C   C372      1.0  0.06482  0.46207  0.37233  1.0000
  C   C373      1.0  0.22615  0.41560  0.57113  1.0000
  H   H272      1.0  0.23724  0.42843  0.57609  1.0000
  H   H273      1.0  0.06953  0.43141  0.41017  1.0000
  H   H274      1.0  0.03698  0.29289  0.81745  1.0000
  H   H275      1.0  0.30017  0.30913  0.09910  1.0000
  S   S42       1.0  0.30830  0.48599  0.48890  1.0000
  H   H276      1.0  0.10894  0.48173  0.46159  1.0000
  C   C374      1.0  0.09057  0.45518  0.43860  1.0000
  H   H277      1.0  0.26205  0.48233  0.81966  1.0000
  H   H278      1.0  0.09830  0.44426  0.46526  1.0000
  C   C375      1.0  0.29110  0.26011  0.82355  1.0000
  H   H279      1.0  0.09512  0.25824  0.71624  1.0000
  H   H280      1.0  0.04399  0.47600  0.47913  1.0000
  C   C376      1.0  0.04095  0.48118  0.62753  1.0000
  C   C377      1.0  0.30394  0.29332  0.08506  1.0000
  H   H281      1.0  0.28952  0.48347  0.74995  1.0000
  H   H282      1.0  0.07008  0.45668  0.53385  1.0000
  C   C378      1.0  0.30130  0.28199  0.91205  1.0000
  C   C379      1.0  0.02716  0.49016  0.54317  1.0000
  H   H283      1.0  0.03088  0.28355  0.72759  1.0000
  H   H284      1.0  0.31263  0.42156  0.79661  1.0000
  H   H285      1.0  0.01618  0.43299  0.60350  1.0000
  C   C380      1.0  0.09679  0.47651  0.43585  1.0000
  H   H286      1.0  0.31947  0.46419  0.25331  1.0000
  C   C381      1.0  0.08751  0.49072  0.40012  1.0000
  H   H287      1.0  0.05228  0.45682  0.78791  1.0000
  H   H288      1.0  0.32798  0.39730  0.87361  1.0000
  C   C382      1.0  0.31375  0.42096  0.03976  1.0000
  C   C383      1.0  0.06488  0.25788  0.97870  1.0000
  C   C384      1.0  0.32687  0.26194  0.08408  1.0000
  C   C385      1.0  0.07935  0.25320  0.11577  1.0000
  H   H289      1.0  0.06097  0.24782  0.23772  1.0000
  C   C386      1.0  0.08625  0.46003  0.78940  1.0000
  H   H290      1.0  0.01925  0.26121  0.35360  1.0000
  H   H291      1.0  0.08811  0.44940  0.82238  1.0000
  C   C387      1.0  0.06601  0.46410  0.76936  1.0000
  H   H292      1.0  0.23823  0.49060  0.57794  1.0000
  H   H293      1.0  0.29257  0.49351  0.38725  1.0000
  H   H294      1.0  0.11578  0.49099  0.70707  1.0000
  C   C388      1.0  0.07135  0.48336  0.36856  1.0000
  H   H295      1.0  0.10659  0.49248  0.30111  1.0000
  C   C389      1.0  0.29833  0.49496  0.34807  1.0000
  H   H296      1.0  0.11305  0.24775  0.35823  1.0000
  H   H297      1.0  0.05588  0.24643  0.40309  1.0000
  H   H298      1.0  0.01238  0.24678  0.80279  1.0000
  H   H299      1.0  0.07905  0.24697  0.55466  1.0000
  H   H300      1.0  0.06391  0.49406  0.34085  1.0000
  Fe  Fe23      1.0  0.02593  0.60478  0.60267  1.0000
  S   S43       1.0  0.01034  0.61725  0.53038  1.0000
  S   S44       1.0  0.06039  0.59176  0.60924  1.0000
  H   H301      1.0  0.08027  0.49814  0.67146  1.0000
  C   C390      1.0  0.28547  0.56078  0.31713  1.0000
  C   C391      1.0  0.14112  0.51012  0.39294  1.0000
  S   S45       1.0  0.01338  0.63306  0.64819  1.0000
  S   S46       1.0  0.10186  0.49864  0.57197  1.0000
  C   C392      1.0  0.01694  0.70810  0.52673  1.0000
  C   C393      1.0  0.31660  0.53797  0.44807  1.0000
  C   C394      1.0  0.16091  0.50793  0.41657  1.0000
  H   H302      1.0  0.10495  0.53971  0.17986  1.0000
  C   C395      1.0  0.09950  0.52477  0.32522  1.0000
  H   H303      1.0  0.21942  0.52449  0.48851  1.0000
  C   C396      1.0  0.07154  0.57172  0.45808  1.0000
  S   S47       1.0  0.99883  0.58372  0.62650  1.0000
  H   H304      1.0  0.02834  0.69625  0.54018  1.0000
  C   C397      1.0  0.29979  0.51514  0.32410  1.0000
  C   C398      1.0  0.31542  0.54469  0.39653  1.0000
  C   C399      1.0  0.07138  0.56547  0.60080  1.0000
  C   C400      1.0  0.06012  0.54934  0.57727  1.0000
  C   C401      1.0  0.06991  0.52927  0.56819  1.0000
  C   C402      1.0  0.09069  0.52452  0.58471  1.0000
  C   C403      1.0  0.10184  0.54045  0.60937  1.0000
  C   C404      1.0  0.09233  0.56084  0.61672  1.0000
  H   H305      1.0  0.04395  0.55244  0.56533  1.0000
  H   H306      1.0  0.06130  0.51733  0.54820  1.0000
  H   H307      1.0  0.11788  0.53722  0.62213  1.0000
  H   H308      1.0  0.10125  0.57314  0.63502  1.0000
  H   H309      1.0  0.14719  0.52655  0.53450  1.0000
  H   H310      1.0  0.10253  0.56089  0.43348  1.0000
  H   H311      1.0  0.11247  0.53034  0.49348  1.0000
  C   C405      1.0  0.04992  0.56697  0.46299  1.0000
  C   C406      1.0  0.29111  0.58172  0.32894  1.0000
  H   H312      1.0  0.07717  0.58698  0.47104  1.0000
  C   C407      1.0  0.16316  0.51397  0.46744  1.0000
  C   C408      1.0  0.02395  0.72856  0.50989  1.0000
  H   H313      1.0  0.03890  0.57855  0.47959  1.0000
  H   H314      1.0  0.27569  0.56022  0.45068  1.0000
  H   H315      1.0  0.25823  0.57157  0.20745  1.0000
  H   H316      1.0  0.05102  0.51650  0.41799  1.0000
  H   H317      1.0  0.00828  0.56421  0.75506  1.0000
  H   H318      1.0  0.13958  0.50473  0.35410  1.0000
  C   C409      1.0  0.26892  0.53447  0.39948  1.0000
  H   H319      1.0  0.02592  0.54329  0.45349  1.0000
  H   H320      1.0  0.28981  0.61493  0.30566  1.0000
  C   C410      1.0  0.28530  0.59881  0.29653  1.0000
  C   C411      1.0  0.27330  0.55726  0.27355  1.0000
  H   H321      1.0  0.32334  0.49977  0.21140  1.0000
  H   H322      1.0  0.31141  0.53232  0.25645  1.0000
  C   C412      1.0  0.04267  0.54700  0.44853  1.0000
  H   H323      1.0  0.24434  0.55368  0.50730  1.0000
  C   C413      1.0  0.07878  0.53661  0.42263  1.0000
  C   C414      1.0  0.25414  0.51870  0.38779  1.0000
  C   C415      1.0  0.05702  0.53184  0.42859  1.0000
  C   C416      1.0  0.01425  0.50991  0.75771  1.0000
  C   C417      1.0  0.02869  0.50760  0.71629  1.0000
  H   H324      1.0  0.25646  0.50882  0.35453  1.0000
  C   C418      1.0  0.99526  0.70307  0.52630  1.0000
  C   C419      1.0  0.02921  0.54625  0.70501  1.0000
  C   C420      1.0  0.03652  0.52595  0.69107  1.0000
  H   H325      1.0  0.30345  0.52982  0.46690  1.0000
  H   H326      1.0  0.09348  0.55869  0.33495  1.0000
  C   C421      1.0  0.26486  0.54754  0.44182  1.0000
  C   C422      1.0  0.30897  0.51684  0.27466  1.0000
  C   C423      1.0  0.26751  0.57438  0.24121  1.0000
  Fe  Fe24      1.0  0.99541  0.64373  0.57741  1.0000
  H   H327      1.0  0.29987  0.58492  0.36329  1.0000
  C   C424      1.0  0.10621  0.51434  0.23688  1.0000
  C   C425      1.0  0.08589  0.55672  0.43762  1.0000
  H   H328      1.0  0.04842  0.52458  0.66082  1.0000
  C   C426      1.0  0.09887  0.55139  0.25598  1.0000
  H   H329      1.0  0.26907  0.60841  0.22756  1.0000
  H   H330      1.0  0.01373  0.50192  0.61367  1.0000
  C   C427      1.0  0.27358  0.59514  0.25258  1.0000
  P   P15       1.0  0.29236  0.53871  0.35930  1.0000
  H   H331      1.0  0.26826  0.54129  0.26469  1.0000
  C   C428      1.0  0.10347  0.53554  0.22032  1.0000
  C   C429      1.0  0.24704  0.54399  0.47378  1.0000
  H   H332      1.0  0.03537  0.56035  0.68518  1.0000
  C   C430      1.0  0.09694  0.54608  0.30820  1.0000
  C   C431      1.0  0.12593  0.52460  0.47104  1.0000
  C   C432      1.0  0.10429  0.50896  0.28907  1.0000
  C   C433      1.0  0.23630  0.51526  0.41969  1.0000
  C   C434      1.0  0.23290  0.52770  0.46302  1.0000
  H   H333      1.0  0.04076  0.73211  0.51062  1.0000
  P   P16       1.0  0.09714  0.51776  0.39276  1.0000
  H   H334      1.0  0.17833  0.51168  0.48621  1.0000
  C   C435      1.0  0.14569  0.52238  0.49458  1.0000
  H   H335      1.0  0.09682  0.56786  0.24316  1.0000
  C   C436      1.0  0.00952  0.74439  0.49204  1.0000
  C   C437      1.0  0.12343  0.51855  0.42003  1.0000
  H   H336      1.0  0.22536  0.50254  0.41174  1.0000
  C   C438      1.0  0.31580  0.49847  0.24902  1.0000
  H   H337      1.0  0.01595  0.49889  0.51944  1.0000
  H   H338      1.0  0.99539  0.53207  0.80277  1.0000
  H   H339      1.0  0.10984  0.50206  0.20918  1.0000
  H   H340      1.0  0.17444  0.50108  0.39600  1.0000
  C   C439      1.0  0.00676  0.53026  0.77129  1.0000
  C   C440      1.0  0.01409  0.54841  0.74465  1.0000
  H   H341      1.0  0.27728  0.49631  0.56760  1.0000
  H   H342      1.0  0.00883  0.49611  0.77965  1.0000
  Fe  Fe25      1.0  0.01751  0.84943  0.41773  1.0000
  Fe  Fe26      1.0  0.00530  0.80129  0.43659  1.0000
  S   S48       1.0  0.03628  0.88062  0.42785  1.0000
  C   C441      1.0  0.04545  0.85654  0.58400  1.0000
  S   S49       1.0  0.01953  0.77007  0.47160  1.0000
  S   S50       1.0  0.02180  0.81957  0.37105  1.0000
  P   P17       1.0  0.04099  0.88329  0.60770  1.0000
  Fe  Fe27      1.0  0.13960  0.95872  0.41410  1.0000
  S   S51       1.0  0.14782  0.97551  0.48694  1.0000
  S   S52       1.0  0.12894  0.92354  0.41492  1.0000
  C   C442      1.0  0.02393  0.87627  0.70617  1.0000
  H   H343      1.0  0.03370  0.92285  0.31359  1.0000
  S   S53       1.0  0.16956  0.97094  0.37381  1.0000
  C   C443      1.0  0.06077  0.90162  0.58178  1.0000
  S   S54       1.0  0.29414  0.97732  0.59630  1.0000
  H   H344      1.0  0.29755  0.97010  0.88202  1.0000
  C   C444      1.0  0.25216  0.97229  0.56871  1.0000
  C   C445      1.0  0.23350  0.97670  0.54048  1.0000
  C   C446      1.0  0.06164  0.88579  0.75578  1.0000
  C   C447      1.0  0.07045  0.93665  0.54711  1.0000
  H   H345      1.0  0.01360  0.87234  0.52287  1.0000
  H   H346      1.0  0.25223  0.95924  0.59653  1.0000
  H   H347      1.0  0.21943  0.96715  0.54693  1.0000
  C   C448      1.0  0.06223  0.89209  0.42194  1.0000
  C   C449      1.0  0.08081  0.87978  0.41497  1.0000
  C   C450      1.0  0.10098  0.88966  0.41245  1.0000
  C   C451      1.0  0.10293  0.91200  0.41593  1.0000
  C   C452      1.0  0.08428  0.92432  0.42160  1.0000
  C   C453      1.0  0.06415  0.91442  0.42515  1.0000
  H   H348      1.0  0.07971  0.86262  0.41223  1.0000
  H   H349      1.0  0.11523  0.87990  0.40793  1.0000
  H   H350      1.0  0.08551  0.94143  0.42482  1.0000
  H   H351      1.0  0.04995  0.92414  0.43079  1.0000
  C   C454      1.0  0.02472  0.87509  0.75971  1.0000
  C   C455      1.0  0.01678  0.96661  0.19191  1.0000
  H   H352      1.0  0.02880  0.84053  0.64718  1.0000
  H   H353      1.0  0.28729  0.95385  0.41638  1.0000
  H   H354      1.0  0.01966  0.96087  0.36732  1.0000
  C   C456      1.0  0.01479  0.89249  0.58905  1.0000
  H   H355      1.0  0.05146  0.79946  0.52783  1.0000
  C   C457      1.0  0.99496  0.92037  0.38696  1.0000
  H   H356      1.0  0.31434  0.93819  0.57702  1.0000
  H   H357      1.0  0.29401  0.90631  0.53740  1.0000
  C   C458      1.0  0.08217  0.89498  0.57641  1.0000
  H   H358      1.0  0.99848  0.98364  0.42550  1.0000
  C   C459      1.0  0.04196  0.88247  0.67697  1.0000
  H   H359      1.0  0.04420  0.87886  0.82602  1.0000
  C   C460      1.0  0.09165  0.92984  0.54178  1.0000
  H   H360      1.0  0.05919  0.96098  0.36954  1.0000
  H   H361      1.0  0.06169  0.86687  0.51402  1.0000
  C   C461      1.0  0.05503  0.92261  0.56687  1.0000
  C   C462      1.0  0.06090  0.88700  0.70221  1.0000
  C   C463      1.0  0.05821  0.83293  0.51667  1.0000
  C   C464      1.0  0.04356  0.87988  0.78452  1.0000
  H   H362      1.0  0.02796  0.93941  0.23422  1.0000
  C   C465      1.0  0.28426  0.91678  0.51378  1.0000
  C   C466      1.0  0.27082  0.98431  0.56069  1.0000
  H   H363      1.0  0.00138  0.99271  0.15156  1.0000
  H   H364      1.0  0.10348  0.94046  0.52474  1.0000
  C   C467      1.0  0.02763  0.97084  0.39426  1.0000
  C   C468      1.0  0.23323  0.99318  0.50341  1.0000
  H   H365      1.0  0.03646  0.98260  0.56468  1.0000
  H   H366      1.0  0.25491  0.90568  0.54865  1.0000
  H   H367      1.0  0.06593  0.95264  0.53444  1.0000
  H   H368      1.0  0.01103  0.91533  0.65003  1.0000
  C   C469      1.0  0.24912  0.92933  0.48932  1.0000
  H   H369      1.0  0.03868  0.92814  0.56959  1.0000
  C   C470      1.0  0.26208  0.91622  0.51996  1.0000
  C   C471      1.0  0.03971  0.81819  0.59116  1.0000
  H   H370      1.0  0.06017  0.86086  0.28338  1.0000
  C   C472      1.0  0.04682  0.87201  0.28176  1.0000
  H   H371      1.0  0.23194  0.92912  0.49449  1.0000
  C   C473      1.0  0.01397  0.94836  0.22303  1.0000
  C   C474      1.0  0.25832  0.94292  0.45225  1.0000
  H   H372      1.0  0.06581  0.83079  0.47941  1.0000
  H   H373      1.0  0.32538  0.97511  0.81396  1.0000
  C   C475      1.0  0.03731  0.83871  0.61111  1.0000
  H   H374      1.0  0.02506  0.84892  0.25309  1.0000
  C   C476      1.0  0.09747  0.90899  0.55609  1.0000
  H   H375      1.0  0.03317  0.80448  0.61169  1.0000
  H   H376      1.0  0.08701  0.87885  0.58711  1.0000
  H   H377      1.0  0.00927  0.87219  0.68757  1.0000
  C   C477      1.0  0.05013  0.81530  0.54394  1.0000
  H   H378      1.0  0.11381  0.90358  0.55010  1.0000
  C   C478      1.0  0.32813  0.92017  0.36493  1.0000
  H   H379      1.0  0.24822  0.95324  0.42894  1.0000
  C   C479      1.0  0.02709  0.86530  0.26471  1.0000
  C   C480      1.0  0.31657  0.98876  0.82872  1.0000
  C   C481      1.0  0.05585  0.85343  0.53652  1.0000
  H   H380      1.0  0.07515  0.89142  0.68079  1.0000
  C   C482      1.0  0.03176  0.90708  0.29820  1.0000
  H   H381      1.0  0.07631  0.88930  0.77502  1.0000
  P   P18       1.0  0.32224  0.93092  0.46769  1.0000
  C   C483      1.0  0.00973  0.87953  0.26364  1.0000
  H   H382      1.0  0.06442  0.89797  0.31226  1.0000
  C   C484      1.0  0.00377  0.90818  0.61727  1.0000
  C   C485      1.0  0.01190  0.90065  0.28017  1.0000
  C   C486      1.0  0.00523  0.88396  0.54609  1.0000
  C   C487      1.0  0.04920  0.89294  0.29804  1.0000
  H   H383      1.0  0.30560  0.97405  0.48853  1.0000
  H   H384      1.0  0.00025  0.92204  0.46787  1.0000
  H   H385      1.0  0.07741  0.98391  0.43136  1.0000
  H   H386      1.0  0.00681  0.90790  0.38235  1.0000
  H   H387      1.0  0.01076  0.87032  0.78197  1.0000
  S   S55       1.0  0.11929  0.98531  0.38193  1.0000
  C   C488      1.0  0.06017  0.98377  0.43021  1.0000
  C   C489      1.0  0.99914  0.97857  0.17565  1.0000
  C   C490      1.0  0.04988  0.97088  0.39552  1.0000
  H   H388      1.0  0.03272  0.97146  0.18035  1.0000
  C   C491      1.0  0.29366  0.93072  0.47731  1.0000
  C   C492      1.0  0.28048  0.94343  0.44578  1.0000
  C   C493      1.0  0.01566  0.98376  0.42755  1.0000
  S   S56       1.0  0.00332  0.83083  0.48494  1.0000
  C   C494      1.0  0.30085  0.98598  0.86688  1.0000
  H   H389      1.0  0.05603  0.98539  0.64543  1.0000
  Fe  Fe28      1.0  0.17603  0.99001  0.44425  1.0000
  H   H390      1.0  0.18693  0.98722  0.71890  1.0000
  C   C495      1.0  0.32723  0.91268  0.41604  1.0000
  H   H391      1.0  0.32597  0.93700  0.35584  1.0000
  H   H392      1.0  0.32763  0.88446  0.46545  1.0000
  C   C496      1.0  0.32029  0.97554  0.46655  1.0000
  C   C497      1.0  0.32809  0.99593  0.45515  1.0000
  C   C498      1.0  0.46811  0.23955  0.73885  1.0000
  H   H393      1.0  0.56552  0.10866  0.37858  1.0000
  C   C499      1.0  0.52842  0.01069  0.69307  1.0000
  H   H394      1.0  0.58481  0.07375  0.24626  1.0000
  H   H395      1.0  0.40783  0.18121  0.93666  1.0000
  Fe  Fe29      1.0  0.36891  0.13542  0.07982  1.0000
  S   S57       1.0  0.38199  0.13764  0.99865  1.0000
  S   S58       1.0  0.38533  0.13924  0.15713  1.0000
  Fe  Fe30      1.0  0.35491  0.16092  0.98387  1.0000
  S   S59       1.0  0.35685  0.19179  0.93630  1.0000
  Fe  Fe31      1.0  0.35799  0.11226  0.98044  1.0000
  S   S60       1.0  0.36685  0.08142  0.93879  1.0000
  S   S61       1.0  0.34337  0.16049  0.06551  1.0000
  S   S62       1.0  0.34669  0.10853  0.06306  1.0000
  Fe  Fe32      1.0  0.51794  0.10089  0.41686  1.0000
  S   S63       1.0  0.50478  0.12228  0.47916  1.0000
  S   S64       1.0  0.54514  0.07786  0.44204  1.0000
  Fe  Fe33      1.0  0.48347  0.11708  0.34137  1.0000
  S   S65       1.0  0.46808  0.13938  0.39814  1.0000
  S   S66       1.0  0.47353  0.11023  0.25933  1.0000
  Fe  Fe34      1.0  0.50143  0.14859  0.41952  1.0000
  S   S67       1.0  0.51375  0.18317  0.42751  1.0000
  Fe  Fe35      1.0  0.47251  0.11182  0.45419  1.0000
  S   S68       1.0  0.44816  0.10206  0.51506  1.0000
  S   S69       1.0  0.51680  0.12786  0.35811  1.0000
  S   S70       1.0  0.48558  0.08898  0.39652  1.0000
  Fe  Fe36      1.0  0.35339  0.02063  0.66818  1.0000
  H   H396      1.0  0.33388  0.01156  0.78172  1.0000
  C   C500      1.0  0.35398  0.06500  0.48682  1.0000
  Fe  Fe37      1.0  0.37002  0.01029  0.56043  1.0000
  S   S71       1.0  0.38850  0.02179  0.48969  1.0000
  C   C501      1.0  0.43204  0.07945  0.50738  1.0000
  C   C502      1.0  0.41789  0.07339  0.54720  1.0000
  C   C503      1.0  0.40456  0.05571  0.54215  1.0000
  C   C504      1.0  0.40511  0.04408  0.49693  1.0000
  C   C505      1.0  0.41912  0.05023  0.45684  1.0000
  C   C506      1.0  0.43271  0.06772  0.46227  1.0000
  H   H397      1.0  0.41722  0.08242  0.58216  1.0000
  H   H398      1.0  0.39371  0.05127  0.57314  1.0000
  H   H399      1.0  0.41947  0.04152  0.42145  1.0000
  H   H400      1.0  0.44351  0.07227  0.43139  1.0000
  C   C507      1.0  0.50724  0.20630  0.46488  1.0000
  C   C508      1.0  0.49302  0.20573  0.50698  1.0000
  H   H401      1.0  0.53345  0.00404  0.49508  1.0000
  C   C509      1.0  0.36765  0.09520  0.43692  1.0000
  H   H402      1.0  0.48508  0.19097  0.51713  1.0000
  H   H403      1.0  0.51244  0.07052  0.30439  1.0000
  C   C510      1.0  0.52042  0.20647  0.64325  1.0000
  C   C511      1.0  0.36097  0.07348  0.87546  1.0000
  C   C512      1.0  0.34825  0.08596  0.84278  1.0000
  H   H404      1.0  0.56160  0.01171  0.71255  1.0000
  C   C513      1.0  0.35157  0.05897  0.77589  1.0000
  C   C514      1.0  0.36437  0.04654  0.80848  1.0000
  C   C515      1.0  0.36894  0.05373  0.85800  1.0000
  C   C516      1.0  0.36228  0.10861  0.47799  1.0000
  H   H405      1.0  0.37060  0.03130  0.79579  1.0000
  H   H406      1.0  0.37877  0.04393  0.88297  1.0000
  C   C517      1.0  0.41004  0.13078  0.18412  1.0000
  C   C518      1.0  0.42475  0.11764  0.15832  1.0000
  C   C519      1.0  0.44403  0.11143  0.18194  1.0000
  C   C520      1.0  0.44881  0.11817  0.23162  1.0000
  C   C521      1.0  0.43401  0.13117  0.25751  1.0000
  C   C522      1.0  0.41486  0.13749  0.23373  1.0000
  H   H407      1.0  0.42132  0.11235  0.12015  1.0000
  H   H408      1.0  0.45534  0.10142  0.16145  1.0000
  H   H409      1.0  0.43742  0.13657  0.29560  1.0000
  H   H410      1.0  0.40376  0.14787  0.25364  1.0000
  C   C523      1.0  0.36186  0.21645  0.96560  1.0000
  C   C524      1.0  0.37042  0.21723  0.01461  1.0000
  H   H411      1.0  0.60235  0.16096  0.31544  1.0000
  H   H412      1.0  0.37344  0.20255  0.03602  1.0000
  S   S72       1.0  0.33866  0.02339  0.58993  1.0000
  C   C525      1.0  0.59398  0.02937  0.37280  1.0000
  C   C526      1.0  0.58025  0.04133  0.34066  1.0000
  C   C527      1.0  0.56508  0.05597  0.36099  1.0000
  C   C528      1.0  0.56342  0.05900  0.41394  1.0000
  C   C529      1.0  0.57692  0.04681  0.44616  1.0000
  C   C530      1.0  0.59200  0.03206  0.42589  1.0000
  H   H413      1.0  0.58147  0.03930  0.29964  1.0000
  H   H414      1.0  0.55476  0.06504  0.33572  1.0000
  H   H415      1.0  0.57579  0.04892  0.48719  1.0000
  H   H416      1.0  0.60234  0.02304  0.45127  1.0000
  H   H417      1.0  0.36510  0.12562  0.47523  1.0000
  H   H418      1.0  0.48752  0.05959  0.23746  1.0000
  H   H419      1.0  0.48078  0.04502  0.45039  1.0000
  H   H420      1.0  0.50749  0.19841  0.66337  1.0000
  C   C531      1.0  0.34936  0.07832  0.52800  1.0000
  C   C532      1.0  0.49065  0.04897  0.26994  1.0000
  C   C533      1.0  0.49402  0.04116  0.47514  1.0000
  S   S73       1.0  0.33193  0.13569  0.95937  1.0000
  C   C534      1.0  0.47679  0.99850  0.57997  1.0000
  C   C535      1.0  0.62090  0.23721  0.72295  1.0000
  H   H421      1.0  0.49624  0.00518  0.67125  1.0000
  C   C536      1.0  0.41686  0.21374  0.94926  1.0000
  C   C537      1.0  0.41172  0.19651  0.91885  1.0000
  C   C538      1.0  0.55269  0.07612  0.22047  1.0000
  H   H422      1.0  0.41706  0.21169  0.99061  1.0000
  C   C539      1.0  0.53425  0.10969  0.23508  1.0000
  H   H423      1.0  0.55171  0.13205  0.44687  1.0000
  C   C540      1.0  0.50467  0.05518  0.30767  1.0000
  S   S74       1.0  0.38553  0.01004  0.63712  1.0000
  C   C541      1.0  0.35346  0.10014  0.52352  1.0000
  C   C542      1.0  0.52879  0.19803  0.59782  1.0000
  C   C543      1.0  0.58245  0.23999  0.73135  1.0000
  H   H424      1.0  0.35097  0.04805  0.49052  1.0000
  H   H425      1.0  0.52220  0.18361  0.58244  1.0000
  H   H426      1.0  0.47996  0.22682  0.73750  1.0000
  H   H427      1.0  0.45595  0.01828  0.40410  1.0000
  S   S75       1.0  0.61339  0.01169  0.34436  1.0000
  H   H428      1.0  0.52198  0.23150  0.69776  1.0000
  C   C544      1.0  0.34542  0.12020  0.24844  1.0000
  C   C545      1.0  0.48412  0.01591  0.31732  1.0000
  C   C546      1.0  0.52850  0.22543  0.66220  1.0000
  C   C547      1.0  0.57090  0.10487  0.26233  1.0000
  C   C548      1.0  0.55242  0.11765  0.25787  1.0000
  C   C549      1.0  0.48062  0.02919  0.27438  1.0000
  C   C550      1.0  0.42078  0.23378  0.92668  1.0000
  C   C551      1.0  0.35804  0.23565  0.93824  1.0000
  H   H429      1.0  0.41365  0.22109  0.80161  1.0000
  C   C552      1.0  0.45687  0.00271  0.42286  1.0000
  C   C553      1.0  0.50815  0.04199  0.35067  1.0000
  C   C554      1.0  0.53438  0.08896  0.21633  1.0000
  H   H430      1.0  0.42276  0.00076  0.43273  1.0000
  C   C555      1.0  0.51735  0.22581  0.45272  1.0000
  H   H431      1.0  0.34292  0.07168  0.56366  1.0000
  C   C556      1.0  0.36186  0.11479  0.28197  1.0000
  C   C557      1.0  0.45922  0.01088  0.56456  1.0000
  H   H432      1.0  0.37778  0.11211  0.26628  1.0000
  C   C558      1.0  0.34356  0.07870  0.79339  1.0000
  H   H433      1.0  0.36752  0.06245  0.41132  1.0000
  H   H434      1.0  0.64224  0.16465  0.14481  1.0000
  C   C559      1.0  0.49744  0.02252  0.35648  1.0000
  C   C560      1.0  0.50690  0.02303  0.46640  1.0000
  H   H435      1.0  0.43333  0.23198  0.13902  1.0000
  H   H436      1.0  0.40617  0.18594  0.84241  1.0000
  H   H437      1.0  0.35006  0.11043  0.55565  1.0000
  C   C561      1.0  0.54531  0.20845  0.57138  1.0000
  H   H438      1.0  0.54118  0.02840  0.56516  1.0000
  C   C562      1.0  0.52790  0.03184  0.54025  1.0000
  C   C563      1.0  0.41485  0.21918  0.84284  1.0000
  H   H439      1.0  0.52015  0.08284  0.19915  1.0000
  H   H440      1.0  0.65934  0.15063  0.22389  1.0000
  H   H441      1.0  0.52475  0.02642  0.70778  1.0000
  H   H442      1.0  0.52831  0.22660  0.42026  1.0000
  C   C564      1.0  0.40397  0.16669  0.37544  1.0000
  C   C565      1.0  0.41716  0.16618  0.41808  1.0000
  C   C566      1.0  0.41858  0.14766  0.44871  1.0000
  C   C567      1.0  0.40703  0.12961  0.43641  1.0000
  C   C568      1.0  0.39359  0.13005  0.39396  1.0000
  C   C569      1.0  0.39215  0.14873  0.36347  1.0000
  P   P19       1.0  0.37916  0.10636  0.37825  1.0000
  H   H443      1.0  0.51989  0.11951  0.23252  1.0000
  C   C570      1.0  0.35779  0.11322  0.33508  1.0000
  C   C571      1.0  0.37589  0.23699  0.03518  1.0000
  C   C572      1.0  0.41070  0.19923  0.86567  1.0000
  H   H444      1.0  0.44097  0.24151  0.22866  1.0000
  H   H445      1.0  0.64761  0.04735  0.36404  1.0000
  H   H446      1.0  0.64669  0.05646  0.27141  1.0000
  H   H447      1.0  0.55143  0.20207  0.53560  1.0000
  H   H448      1.0  0.51888  0.04725  0.37977  1.0000
  H   H449      1.0  0.35131  0.23515  0.90044  1.0000
  C   C573      1.0  0.39687  0.08748  0.34672  1.0000
  C   C574      1.0  0.38840  0.07050  0.31956  1.0000
  C   C575      1.0  0.40190  0.05632  0.29327  1.0000
  C   C576      1.0  0.42395  0.05906  0.29362  1.0000
  C   C577      1.0  0.43251  0.07592  0.32035  1.0000
  C   C578      1.0  0.41908  0.09013  0.34668  1.0000
  H   H450      1.0  0.40312  0.18094  0.35125  1.0000
  H   H451      1.0  0.42658  0.17997  0.42696  1.0000
  H   H452      1.0  0.42910  0.14701  0.48128  1.0000
  H   H453      1.0  0.40875  0.11522  0.45985  1.0000
  H   H454      1.0  0.38210  0.14945  0.33024  1.0000
  C   C579      1.0  0.57093  0.08406  0.24315  1.0000
  C   C580      1.0  0.48950  0.22413  0.53700  1.0000
  C   C581      1.0  0.49824  0.05468  0.51560  1.0000
  C   C582      1.0  0.64272  0.14739  0.21713  1.0000
  H   H455      1.0  0.38293  0.23737  0.07269  1.0000
  H   H456      1.0  0.48847  0.06892  0.52137  1.0000
  H   H457      1.0  0.47885  0.22321  0.57002  1.0000
  C   C583      1.0  0.51231  0.99866  0.67175  1.0000
  H   H458      1.0  0.37133  0.06840  0.31808  1.0000
  H   H459      1.0  0.39526  0.04340  0.27197  1.0000
  H   H460      1.0  0.43444  0.04835  0.27262  1.0000
  H   H461      1.0  0.44959  0.07825  0.31998  1.0000
  H   H462      1.0  0.42623  0.10320  0.36635  1.0000
  H   H463      1.0  0.55270  0.05993  0.20653  1.0000
  C   C584      1.0  0.63735  0.06587  0.29832  1.0000
  C   C585      1.0  0.63797  0.06077  0.35063  1.0000
  C   C586      1.0  0.62546  0.07237  0.38541  1.0000
  C   C587      1.0  0.61219  0.08899  0.36799  1.0000
  C   C588      1.0  0.61150  0.09430  0.31541  1.0000
  C   C589      1.0  0.62427  0.08262  0.28074  1.0000
  P   P20       1.0  0.59431  0.11556  0.29146  1.0000
  C   C590      1.0  0.58534  0.13281  0.34256  1.0000
  C   C591      1.0  0.60939  0.13097  0.24447  1.0000
  C   C592      1.0  0.59979  0.13904  0.19976  1.0000
  C   C593      1.0  0.63092  0.13532  0.25302  1.0000
  C   C594      1.0  0.59151  0.15430  0.34402  1.0000
  C   C595      1.0  0.58318  0.16768  0.38209  1.0000
  C   C596      1.0  0.56883  0.15968  0.41913  1.0000
  C   C597      1.0  0.56294  0.13827  0.41839  1.0000
  C   C598      1.0  0.57088  0.12500  0.37982  1.0000
  H   H464      1.0  0.45895  0.23275  0.81714  1.0000
  H   H465      1.0  0.33352  0.11650  0.39479  1.0000
  H   H466      1.0  0.34203  0.10117  0.85559  1.0000
  H   H467      1.0  0.60244  0.09731  0.39587  1.0000
  H   H468      1.0  0.62386  0.08622  0.23998  1.0000
  H   H469      1.0  0.58319  0.13608  0.19234  1.0000
  H   H470      1.0  0.63856  0.12941  0.28753  1.0000
  H   H471      1.0  0.58752  0.18435  0.38246  1.0000
  H   H472      1.0  0.56191  0.17014  0.44783  1.0000
  H   H473      1.0  0.55195  0.13377  0.27224  1.0000
  H   H474      1.0  0.33365  0.08844  0.76855  1.0000
  C   C599      1.0  0.52363  0.01820  0.49992  1.0000
  H   H475      1.0  0.46144  0.02652  0.54685  1.0000
  H   H476      1.0  0.51885  0.06096  0.57834  1.0000
  P   P21       1.0  0.50113  0.00606  0.41336  1.0000
  C   C600      1.0  0.51529  0.05013  0.54787  1.0000
  H   H477      1.0  0.62552  0.06797  0.42580  1.0000
  C   C601      1.0  0.41997  0.23664  0.87315  1.0000
  H   H478      1.0  0.42501  0.01273  0.56034  1.0000
  H   H479      1.0  0.47003  0.02425  0.24465  1.0000
  C   C602      1.0  0.36335  0.07330  0.44170  1.0000
  C   C603      1.0  0.43862  0.00315  0.57210  1.0000
  S   S76       1.0  0.34370  0.05004  0.71472  1.0000
  C   C604      1.0  0.54915  0.00236  0.69595  1.0000
  H   H480      1.0  0.54733  0.01177  0.40474  1.0000
  H   H481      1.0  0.34875  0.12159  0.20754  1.0000
  H   H482      1.0  0.33870  0.05910  0.01376  1.0000
  C   C605      1.0  0.54486  0.23623  0.63534  1.0000
  H   H483      1.0  0.49263  0.00463  0.57352  1.0000
  H   H484      1.0  0.60257  0.22362  0.78592  1.0000
  H   H485      1.0  0.60414  0.15730  0.12953  1.0000
  H   H486      1.0  0.63607  0.23156  0.73752  1.0000
  C   C606      1.0  0.33706  0.11734  0.35404  1.0000
  H   H487      1.0  0.35381  0.01404  0.42101  1.0000
  H   H488      1.0  0.47625  0.00063  0.32024  1.0000
  C   C607      1.0  0.49973  0.24360  0.52504  1.0000
  C   C608      1.0  0.55353  0.22731  0.59041  1.0000
  C   C609      1.0  0.45613  0.24295  0.78385  1.0000
  C   C610      1.0  0.61163  0.15114  0.16398  1.0000
  C   C611      1.0  0.63309  0.15529  0.17260  1.0000
  C   C612      1.0  0.60204  0.23278  0.75027  1.0000
  H   H489      1.0  0.56647  0.23508  0.56964  1.0000
  C   C613      1.0  0.51348  0.24434  0.48206  1.0000
  H   H490      1.0  0.56790  0.23617  0.75245  1.0000
  H   H491      1.0  0.38042  0.24603  0.83480  1.0000
  C   C614      1.0  0.34755  0.99824  0.42893  1.0000
  Fe  Fe38      1.0  0.63263  0.46873  0.61117  1.0000
  H   H492      1.0  0.34642  0.26355  0.81407  1.0000
  S   S77       1.0  0.61520  0.43714  0.63091  1.0000
  H   H493      1.0  0.40972  0.38842  0.12682  1.0000
  Fe  Fe39      1.0  0.37644  0.35062  0.93223  1.0000
  S   S78       1.0  0.39036  0.34140  0.00903  1.0000
  S   S79       1.0  0.39091  0.36228  0.85554  1.0000
  C   C615      1.0  0.51455  0.29536  0.78033  1.0000
  S   S80       1.0  0.34153  0.32944  0.04631  1.0000
  Fe  Fe40      1.0  0.36207  0.35875  0.04498  1.0000
  S   S81       1.0  0.36209  0.37327  0.12551  1.0000
  Fe  Fe41      1.0  0.36875  0.31299  0.00585  1.0000
  S   S82       1.0  0.38027  0.28050  0.03452  1.0000
  S   S83       1.0  0.34975  0.37031  0.96820  1.0000
  S   S84       1.0  0.35679  0.32105  0.92760  1.0000
  C   C616      1.0  0.43287  0.36899  0.08627  1.0000
  Fe  Fe42      1.0  0.38120  0.45647  0.45280  1.0000
  S   S85       1.0  0.39749  0.47138  0.38385  1.0000
  S   S86       1.0  0.39737  0.43919  0.51855  1.0000
  Fe  Fe43      1.0  0.36607  0.46638  0.34498  1.0000
  S   S87       1.0  0.36588  0.45829  0.25898  1.0000
  S   S88       1.0  0.35089  0.44855  0.41251  1.0000
  Fe  Fe44      1.0  0.49866  0.30277  0.57173  1.0000
  S   S89       1.0  0.51703  0.32051  0.63157  1.0000
  S   S90       1.0  0.49563  0.26589  0.56682  1.0000
  Fe  Fe45      1.0  0.47493  0.34421  0.54090  1.0000
  S   S91       1.0  0.49059  0.36438  0.59921  1.0000
  S   S92       1.0  0.45370  0.35672  0.47771  1.0000
  Fe  Fe46      1.0  0.52098  0.34787  0.57414  1.0000
  S   S93       1.0  0.54897  0.36913  0.54594  1.0000
  Fe  Fe47      1.0  0.48550  0.33613  0.65307  1.0000
  S   S94       1.0  0.47792  0.33727  0.73931  1.0000
  S   S95       1.0  0.50525  0.32876  0.51256  1.0000
  S   S96       1.0  0.46716  0.31746  0.59649  1.0000
  C   C617      1.0  0.44046  0.25920  0.78554  1.0000
  H   H494      1.0  0.36664  0.45146  0.15041  1.0000
  H   H495      1.0  0.52142  0.25907  0.47184  1.0000
  C   C618      1.0  0.41365  0.41688  0.50579  1.0000
  C   C619      1.0  0.42424  0.40675  0.54656  1.0000
  C   C620      1.0  0.43692  0.38848  0.53819  1.0000
  C   C621      1.0  0.43889  0.38022  0.48891  1.0000
  C   C622      1.0  0.42863  0.39063  0.44788  1.0000
  C   C623      1.0  0.41610  0.40903  0.45623  1.0000
  H   H496      1.0  0.42220  0.41282  0.58483  1.0000
  H   H497      1.0  0.44467  0.38045  0.57001  1.0000
  H   H498      1.0  0.43029  0.38447  0.40956  1.0000
  H   H499      1.0  0.40808  0.41693  0.42458  1.0000
  C   C624      1.0  0.41449  0.35288  0.82386  1.0000
  C   C625      1.0  0.43238  0.34586  0.85092  1.0000
  C   C626      1.0  0.45154  0.34084  0.82430  1.0000
  C   C627      1.0  0.45298  0.34247  0.77042  1.0000
  C   C628      1.0  0.43485  0.34870  0.74327  1.0000
  C   C629      1.0  0.41576  0.35391  0.76991  1.0000
  H   H500      1.0  0.43169  0.34500  0.89238  1.0000
  H   H501      1.0  0.46548  0.33611  0.84563  1.0000
  H   H502      1.0  0.43567  0.34993  0.70184  1.0000
  H   H503      1.0  0.40195  0.35896  0.74850  1.0000
  C   C630      1.0  0.36308  0.39720  0.16158  1.0000
  C   C631      1.0  0.36245  0.39564  0.21560  1.0000
  C   C632      1.0  0.36319  0.41404  0.24607  1.0000
  C   C633      1.0  0.36469  0.43435  0.22288  1.0000
  C   C634      1.0  0.36541  0.43588  0.16885  1.0000
  C   C635      1.0  0.36463  0.41748  0.13838  1.0000
  C   C636      1.0  0.46842  0.29881  0.91418  1.0000
  H   H504      1.0  0.36259  0.41252  0.28747  1.0000
  H   H505      1.0  0.39115  0.30062  0.29477  1.0000
  H   H506      1.0  0.36523  0.41900  0.09700  1.0000
  H   H507      1.0  0.40114  0.36055  0.19144  1.0000
  H   H508      1.0  0.47157  0.40263  0.73870  1.0000
  C   C637      1.0  0.41565  0.40392  0.70915  1.0000
  C   C638      1.0  0.51547  0.45772  0.53030  1.0000
  H   H509      1.0  0.36016  0.27015  0.93780  1.0000
  C   C639      1.0  0.59576  0.41937  0.60663  1.0000
  C   C640      1.0  0.58908  0.42010  0.55562  1.0000
  C   C641      1.0  0.57458  0.40483  0.53807  1.0000
  C   C642      1.0  0.56606  0.38892  0.57133  1.0000
  C   C643      1.0  0.57251  0.38841  0.62243  1.0000
  C   C644      1.0  0.58723  0.40346  0.63979  1.0000
  H   H510      1.0  0.59554  0.43206  0.52937  1.0000
  H   H511      1.0  0.57010  0.40523  0.49823  1.0000
  H   H512      1.0  0.56675  0.37596  0.64825  1.0000
  H   H513      1.0  0.59237  0.40253  0.67915  1.0000
  C   C645      1.0  0.35153  0.32334  0.19452  1.0000
  C   C646      1.0  0.45547  0.33463  0.34679  1.0000
  C   C647      1.0  0.42196  0.33519  0.30208  1.0000
  C   C648      1.0  0.42276  0.33689  0.15907  1.0000
  H   H514      1.0  0.37887  0.32959  0.14648  1.0000
  H   H515      1.0  0.34050  0.32976  0.16647  1.0000
  C   C649      1.0  0.58943  0.46807  0.41511  1.0000
  C   C650      1.0  0.50522  0.28633  0.73786  1.0000
  H   H516      1.0  0.41950  0.47924  0.57449  1.0000
  C   C651      1.0  0.55974  0.28097  0.61182  1.0000
  S   S97       1.0  0.36857  0.48760  0.48119  1.0000
  C   C652      1.0  0.48097  0.44204  0.55018  1.0000
  C   C653      1.0  0.55215  0.46375  0.43830  1.0000
  H   H517      1.0  0.48095  0.43391  0.23175  1.0000
  H   H518      1.0  0.56291  0.49015  0.72826  1.0000
  C   C654      1.0  0.43077  0.27438  0.21896  1.0000
  C   C655      1.0  0.43825  0.33310  0.12062  1.0000
  C   C656      1.0  0.51777  0.27503  0.70248  1.0000
  C   C657      1.0  0.36080  0.27292  0.81423  1.0000
  C   C658      1.0  0.46035  0.47752  0.37095  1.0000
  P   P22       1.0  0.41625  0.31656  0.20664  1.0000
  C   C659      1.0  0.45870  0.28526  0.87984  1.0000
  H   H519      1.0  0.45928  0.43311  0.44884  1.0000
  C   C660      1.0  0.35994  0.29486  0.80336  1.0000
  H   H520      1.0  0.47553  0.39447  0.30139  1.0000
  H   H521      1.0  0.54375  0.30050  0.81989  1.0000
  H   H522      1.0  0.56490  0.45765  0.58527  1.0000
  C   C661      1.0  0.37229  0.25619  0.00765  1.0000
  H   H523      1.0  0.43635  0.38124  0.05749  1.0000
  C   C662      1.0  0.59219  0.48030  0.45864  1.0000
  H   H524      1.0  0.57799  0.46182  0.67270  1.0000
  C   C663      1.0  0.39893  0.27499  0.82736  1.0000
  C   C664      1.0  0.39785  0.29708  0.81713  1.0000
  C   C665      1.0  0.37845  0.30694  0.80492  1.0000
  C   C666      1.0  0.43872  0.46531  0.63443  1.0000
  C   C667      1.0  0.55501  0.47539  0.48305  1.0000
  C   C668      1.0  0.38022  0.26298  0.82607  1.0000
  C   C669      1.0  0.43754  0.27245  0.74202  1.0000
  C   C670      1.0  0.44958  0.26901  0.69714  1.0000
  C   C671      1.0  0.44547  0.46352  0.46715  1.0000
  C   C672      1.0  0.38798  0.31636  0.22055  1.0000
  C   C673      1.0  0.43480  0.25357  0.20225  1.0000
  C   C674      1.0  0.43712  0.28008  0.88660  1.0000
  C   C675      1.0  0.55791  0.47001  0.60901  1.0000
  H   H525      1.0  0.48502  0.30293  0.90852  1.0000
  C   C676      1.0  0.45668  0.30725  0.95533  1.0000
  C   C677      1.0  0.43518  0.30220  0.96218  1.0000
  C   C678      1.0  0.42538  0.28882  0.92774  1.0000
  C   C679      1.0  0.44894  0.49150  0.40263  1.0000
  H   H526      1.0  0.41204  0.30670  0.81852  1.0000
  H   H527      1.0  0.37778  0.32402  0.79741  1.0000
  H   H528      1.0  0.43266  0.44841  0.32154  1.0000
  H   H529      1.0  0.46803  0.27905  0.84800  1.0000
  P   P23       1.0  0.42418  0.26258  0.84301  1.0000
  H   H530      1.0  0.42597  0.28539  0.74222  1.0000
  H   H531      1.0  0.44724  0.27922  0.66355  1.0000
  C   C680      1.0  0.36305  0.25549  0.95933  1.0000
  H   H532      1.0  0.43361  0.27805  0.25863  1.0000
  C   C681      1.0  0.54199  0.48382  0.58994  1.0000
  H   H533      1.0  0.46421  0.31780  0.98172  1.0000
  H   H534      1.0  0.42600  0.30861  0.99410  1.0000
  H   H535      1.0  0.40864  0.28511  0.93358  1.0000
  C   C682      1.0  0.46469  0.25244  0.69536  1.0000
  C   C683      1.0  0.41300  0.35716  0.16185  1.0000
  H   H536      1.0  0.42654  0.34892  0.37636  1.0000
  C   C684      1.0  0.51553  0.47508  0.21996  1.0000
  C   C685      1.0  0.48720  0.45528  0.80228  1.0000
  C   C686      1.0  0.44315  0.34907  0.08411  1.0000
  H   H537      1.0  0.48840  0.28901  0.73114  1.0000
  C   C687      1.0  0.56530  0.47225  0.65880  1.0000
  H   H538      1.0  0.48671  0.47573  0.54806  1.0000
  C   C688      1.0  0.57092  0.29950  0.62356  1.0000
  C   C689      1.0  0.57310  0.31607  0.58711  1.0000
  C   C690      1.0  0.56412  0.31428  0.53881  1.0000
  H   H539      1.0  0.46479  0.48305  0.33271  1.0000
  H   H540      1.0  0.39082  0.39677  0.76495  1.0000
  H   H541      1.0  0.42805  0.45200  0.63963  1.0000
  C   C691      1.0  0.55277  0.29603  0.52706  1.0000
  H   H542      1.0  0.54526  0.29490  0.49016  1.0000
  H   H543      1.0  0.52431  0.43505  0.35390  1.0000
  H   H544      1.0  0.50137  0.45416  0.16596  1.0000
  H   H545      1.0  0.46970  0.39949  0.40933  1.0000
  H   H546      1.0  0.45479  0.34598  0.05392  1.0000
  H   H547      1.0  0.51043  0.26902  0.66853  1.0000
  H   H548      1.0  0.60282  0.46518  0.38921  1.0000
  C   C692      1.0  0.50256  0.45826  0.20598  1.0000
  C   C693      1.0  0.38024  0.30728  0.26681  1.0000
  H   H549      1.0  0.41063  0.39154  0.25261  1.0000
  C   C694      1.0  0.41794  0.37307  0.12536  1.0000
  H   H550      1.0  0.57762  0.30130  0.66115  1.0000
  H   H551      1.0  0.58131  0.33058  0.59651  1.0000
  H   H552      1.0  0.56550  0.32731  0.51096  1.0000
  H   H553      1.0  0.56615  0.28098  0.75735  1.0000
  H   H554      1.0  0.53345  0.43010  0.63763  1.0000
  H   H555      1.0  0.40408  0.42843  0.28249  1.0000
  C   C695      1.0  0.53647  0.29302  0.78762  1.0000
  H   H556      1.0  0.46425  0.44378  0.56025  1.0000
  P   P24       1.0  0.46291  0.44818  0.71554  1.0000
  H   H557      1.0  0.44234  0.41370  0.66212  1.0000
  H   H558      1.0  0.44652  0.31785  0.11864  1.0000
  C   C696      1.0  0.56937  0.45990  0.40474  1.0000
  H   H559      1.0  0.36123  0.38006  0.23406  1.0000
  C   C697      1.0  0.41800  0.28435  0.13461  1.0000
  C   C698      1.0  0.45318  0.31824  0.26376  1.0000
  C   C699      1.0  0.37342  0.32358  0.18364  1.0000
  C   C700      1.0  0.42271  0.29003  0.18489  1.0000
  C   C701      1.0  0.35830  0.30680  0.27736  1.0000
  C   C702      1.0  0.52430  0.43705  0.52663  1.0000
  C   C703      1.0  0.51145  0.41912  0.53363  1.0000
  C   C704      1.0  0.48975  0.42160  0.54481  1.0000
  C   C705      1.0  0.58165  0.25199  0.68536  1.0000
  H   H560      1.0  0.53662  0.45762  0.42955  1.0000
  H   H561      1.0  0.47385  0.24975  0.66029  1.0000
  C   C706      1.0  0.43138  0.32352  0.26193  1.0000
  C   C707      1.0  0.40424  0.40688  0.75506  1.0000
  H   H562      1.0  0.50673  0.47344  0.34892  1.0000
  H   H563      1.0  0.54120  0.43468  0.51950  1.0000
  H   H564      1.0  0.51841  0.40323  0.53145  1.0000
  H   H565      1.0  0.47982  0.40767  0.55014  1.0000
  H   H566      1.0  0.43177  0.49512  0.47414  1.0000
  H   H567      1.0  0.48186  0.31924  0.30798  1.0000
  C   C708      1.0  0.48461  0.40894  0.71548  1.0000
  H   H568      1.0  0.56720  0.45068  0.37058  1.0000
  H   H569      1.0  0.44648  0.37464  0.26205  1.0000
  H   H570      1.0  0.43865  0.45780  0.50314  1.0000
  C   C709      1.0  0.46513  0.32367  0.30621  1.0000
  H   H571      1.0  0.41080  0.29588  0.10840  1.0000
  H   H572      1.0  0.40542  0.34030  0.30072  1.0000
  C   C710      1.0  0.45701  0.46725  0.66431  1.0000
  C   C711      1.0  0.43393  0.34044  0.34466  1.0000
  Fe  Fe48      1.0  0.33878  0.48082  0.43803  1.0000
  C   C712      1.0  0.53085  0.40735  0.40016  1.0000
  C   C713      1.0  0.52241  0.38990  0.42733  1.0000
  C   C714      1.0  0.50038  0.38730  0.43078  1.0000
  C   C715      1.0  0.48672  0.40197  0.40651  1.0000
  C   C716      1.0  0.49503  0.41934  0.37803  1.0000
  C   C717      1.0  0.51727  0.42198  0.37544  1.0000
  P   P25       1.0  0.47731  0.43765  0.34435  1.0000
  C   C718      1.0  0.45628  0.42288  0.31515  1.0000
  C   C719      1.0  0.46482  0.45644  0.38765  1.0000
  C   C720      1.0  0.45713  0.44951  0.43593  1.0000
  C   C721      1.0  0.47012  0.48510  0.65615  1.0000
  C   C722      1.0  0.50247  0.43797  0.67014  1.0000
  C   C723      1.0  0.43602  0.43231  0.30908  1.0000
  C   C724      1.0  0.41968  0.42099  0.28671  1.0000
  C   C725      1.0  0.42342  0.40021  0.26986  1.0000
  C   C726      1.0  0.44359  0.39075  0.27520  1.0000
  C   C727      1.0  0.46000  0.40204  0.29766  1.0000
  C   C728      1.0  0.49229  0.45215  0.29536  1.0000
  C   C729      1.0  0.50547  0.46903  0.30911  1.0000
  C   C730      1.0  0.50174  0.39529  0.70393  1.0000
  C   C731      1.0  0.49374  0.46006  0.54304  1.0000
  H   H573      1.0  0.53222  0.39215  0.66587  1.0000
  C   C732      1.0  0.49097  0.44681  0.24349  1.0000
  H   H574      1.0  0.54797  0.40940  0.39814  1.0000
  H   H575      1.0  0.53292  0.37845  0.44617  1.0000
  H   H576      1.0  0.49392  0.37386  0.45246  1.0000
  H   H577      1.0  0.50144  0.37872  0.71698  1.0000
  C   C733      1.0  0.51916  0.40289  0.67535  1.0000
  H   H578      1.0  0.50483  0.30480  0.80645  1.0000
  H   H579      1.0  0.41103  0.39158  0.68313  1.0000
  C   C734      1.0  0.43959  0.43245  0.73090  1.0000
  H   H580      1.0  0.34611  0.36665  0.83297  1.0000
  C   C735      1.0  0.51969  0.42427  0.65911  1.0000
  P   P26       1.0  0.55618  0.26022  0.66029  1.0000
  S   S98       1.0  0.64929  0.48139  0.53900  1.0000
  C   C736      1.0  0.44152  0.48453  0.45077  1.0000
  H   H581      1.0  0.50328  0.45445  0.65726  1.0000
  P   P27       1.0  0.53262  0.48069  0.52554  1.0000
  C   C737      1.0  0.60060  0.25590  0.65743  1.0000
  H   H582      1.0  0.34495  0.30260  0.79427  1.0000
  C   C738      1.0  0.55046  0.27951  0.56350  1.0000
  H   H583      1.0  0.46465  0.33860  0.38004  1.0000
  C   C739      1.0  0.57502  0.48418  0.49224  1.0000
  C   C740      1.0  0.62017  0.24869  0.67647  1.0000
  H   H584      1.0  0.60035  0.26435  0.62081  1.0000
  C   C741      1.0  0.48455  0.43029  0.69753  1.0000
  H   H585      1.0  0.33175  0.28901  0.13173  1.0000
  C   C742      1.0  0.43335  0.41653  0.69728  1.0000
  H   H586      1.0  0.49547  0.44039  0.79418  1.0000
  H   H587      1.0  0.54097  0.26593  0.55412  1.0000
  H   H588      1.0  0.46092  0.30982  0.23250  1.0000
  C   C743      1.0  0.49318  0.46689  0.84486  1.0000
  H   H589      1.0  0.50596  0.46096  0.86889  1.0000
  C   C744      1.0  0.47071  0.46289  0.77086  1.0000
  H   H590      1.0  0.63477  0.25187  0.65493  1.0000
  C   C745      1.0  0.54909  0.28179  0.75216  1.0000
  C   C746      1.0  0.53978  0.27253  0.70948  1.0000
  H   H591      1.0  0.40181  0.42438  0.82503  1.0000
  C   C747      1.0  0.41046  0.42250  0.78899  1.0000
  C   C748      1.0  0.42801  0.43534  0.77696  1.0000
  H   H592      1.0  0.43258  0.44719  0.80410  1.0000
  C   C749      1.0  0.34395  0.31504  0.24143  1.0000
  H   H593      1.0  0.52439  0.48403  0.19082  1.0000
  S   S99       1.0  0.65997  0.47877  0.66102  1.0000
  C   C750      1.0  0.51700  0.48045  0.27152  1.0000
  C   C751      1.0  0.43372  0.48087  0.59719  1.0000
  H   H594      1.0  0.35243  0.30006  0.31343  1.0000
  H   H595      1.0  0.60764  0.48702  0.46618  1.0000
  Fe  Fe49      1.0  0.33109  0.33991  0.96821  1.0000
  C   C752      1.0  0.55677  0.48821  0.69007  1.0000
  H   H596      1.0  0.48734  0.49503  0.88956  1.0000
  H   H597      1.0  0.52697  0.49358  0.28234  1.0000
  C   C753      1.0  0.42209  0.26356  0.11800  1.0000
  H   H598      1.0  0.48412  0.48717  0.67911  1.0000
  H   H599      1.0  0.34093  0.25346  0.09744  1.0000
  C   C754      1.0  0.46013  0.48210  0.78302  1.0000
  C   C755      1.0  0.48269  0.48607  0.85651  1.0000
  C   C756      1.0  0.46614  0.49365  0.82566  1.0000
  H   H600      1.0  0.49441  0.48957  0.46262  1.0000
  H   H601      1.0  0.44718  0.48811  0.75965  1.0000
  H   H602      1.0  0.57750  0.49412  0.52513  1.0000
  H   H603      1.0  0.41825  0.25930  0.07917  1.0000
  H   H604      1.0  0.42411  0.24690  0.95144  1.0000
  C   C757      1.0  0.43051  0.24818  0.15176  1.0000
  C   C758      1.0  0.32891  0.36825  0.83135  1.0000
  C   C759      1.0  0.53304  0.49944  0.62207  1.0000
  C   C760      1.0  0.52035  0.50500  0.50082  1.0000
  H   H605      1.0  0.57529  0.73748  0.02297  1.0000
  Fe  Fe50      1.0  0.63598  0.66755  0.96983  1.0000
  H   H606      1.0  0.36607  0.56349  0.38125  1.0000
  S   S100      1.0  0.61814  0.69812  0.94891  1.0000
  Fe  Fe51      1.0  0.63480  0.62659  0.03385  1.0000
  S   S101      1.0  0.61607  0.60709  0.09345  1.0000
  S   S102      1.0  0.62150  0.63545  0.95642  1.0000
  C   C761      1.0  0.63945  0.72118  0.02109  1.0000
  Fe  Fe52      1.0  0.63191  0.51219  0.55673  1.0000
  S   S103      1.0  0.61828  0.53105  0.49000  1.0000
  Fe  Fe53      1.0  0.50063  0.61910  0.37764  1.0000
  S   S104      1.0  0.50147  0.63343  0.45632  1.0000
  S   S105      1.0  0.47530  0.59716  0.34343  1.0000
  Fe  Fe54      1.0  0.54477  0.63823  0.34652  1.0000
  S   S106      1.0  0.54884  0.65241  0.42441  1.0000
  S   S107      1.0  0.57002  0.64933  0.28759  1.0000
  Fe  Fe55      1.0  0.53558  0.62139  0.45505  1.0000
  S   S108      1.0  0.54792  0.60331  0.52475  1.0000
  Fe  Fe56      1.0  0.51482  0.66371  0.41912  1.0000
  S   S109      1.0  0.50598  0.69972  0.42489  1.0000
  S   S110      1.0  0.53439  0.60614  0.37800  1.0000
  S   S111      1.0  0.51102  0.65035  0.33980  1.0000
  C   C762      1.0  0.58040  0.73502  0.06215  1.0000
  H   H607      1.0  0.63588  0.62252  0.71487  1.0000
  S   S112      1.0  0.40504  0.53102  0.43208  1.0000
  C   C763      1.0  0.60929  0.74235  0.77815  1.0000
  C   C764      1.0  0.45653  0.57821  0.36939  1.0000
  C   C765      1.0  0.44552  0.56510  0.33564  1.0000
  C   C766      1.0  0.43005  0.55037  0.35390  1.0000
  C   C767      1.0  0.42510  0.54866  0.40642  1.0000
  C   C768      1.0  0.43627  0.56158  0.44024  1.0000
  C   C769      1.0  0.45190  0.57613  0.42202  1.0000
  H   H608      1.0  0.44885  0.56649  0.29488  1.0000
  H   H609      1.0  0.42168  0.54065  0.32721  1.0000
  H   H610      1.0  0.43265  0.56050  0.48091  1.0000
  H   H611      1.0  0.46005  0.58609  0.44863  1.0000
  C   C770      1.0  0.50977  0.72163  0.46727  1.0000
  C   C771      1.0  0.51881  0.71909  0.51581  1.0000
  H   H612      1.0  0.54288  0.72369  0.37822  1.0000
  H   H613      1.0  0.65124  0.64776  0.77438  1.0000
  H   H614      1.0  0.52396  0.70338  0.52875  1.0000
  C   C772      1.0  0.61798  0.74157  0.96116  1.0000
  C   C773      1.0  0.59825  0.55058  0.50049  1.0000
  C   C774      1.0  0.59196  0.56376  0.45922  1.0000
  C   C775      1.0  0.57641  0.57984  0.46618  1.0000
  C   C776      1.0  0.56690  0.58274  0.51447  1.0000
  C   C777      1.0  0.57285  0.56927  0.55560  1.0000
  C   C778      1.0  0.58858  0.55328  0.54877  1.0000
  H   H615      1.0  0.59934  0.56170  0.42177  1.0000
  H   H616      1.0  0.57205  0.59019  0.43433  1.0000
  H   H617      1.0  0.56541  0.57142  0.59287  1.0000
  H   H618      1.0  0.59333  0.54316  0.58075  1.0000
  C   C779      1.0  0.60299  0.61895  0.14692  1.0000
  C   C780      1.0  0.59137  0.60607  0.18199  1.0000
  C   C781      1.0  0.58100  0.61501  0.22518  1.0000
  C   C782      1.0  0.58216  0.63696  0.23356  1.0000
  C   C783      1.0  0.59362  0.64980  0.19816  1.0000
  C   C784      1.0  0.60405  0.64089  0.15526  1.0000
  H   H619      1.0  0.59046  0.58907  0.17588  1.0000
  H   H620      1.0  0.57238  0.60488  0.25224  1.0000
  H   H621      1.0  0.59446  0.66677  0.20392  1.0000
  H   H622      1.0  0.61282  0.65104  0.12862  1.0000
  H   H623      1.0  0.49611  0.74463  0.41429  1.0000
  C   C785      1.0  0.55506  0.72444  0.34810  1.0000
  C   C786      1.0  0.62396  0.68812  0.26846  1.0000
  C   C787      1.0  0.64941  0.66445  0.22663  1.0000
  Fe  Fe57      1.0  0.65368  0.62574  0.92446  1.0000
  C   C788      1.0  0.54400  0.64946  0.63597  1.0000
  C   C789      1.0  0.62525  0.63247  0.73744  1.0000
  C   C790      1.0  0.62588  0.72178  0.97909  1.0000
  C   C791      1.0  0.35200  0.55687  0.40004  1.0000
  H   H624      1.0  0.62685  0.54074  0.84946  1.0000
  C   C792      1.0  0.63236  0.59167  0.55295  1.0000
  C   C793      1.0  0.64492  0.74022  0.04510  1.0000
  H   H625      1.0  0.65187  0.57448  0.60734  1.0000
  C   C794      1.0  0.45518  0.68607  0.03597  1.0000
  C   C795      1.0  0.50317  0.74235  0.45155  1.0000
  C   C796      1.0  0.56797  0.73258  0.69041  1.0000
  H   H626      1.0  0.64304  0.59921  0.18660  1.0000
  C   C797      1.0  0.46502  0.50067  0.61893  1.0000
  C   C798      1.0  0.62087  0.65930  0.80277  1.0000
  H   H627      1.0  0.62432  0.72129  0.83379  1.0000
  C   C799      1.0  0.33342  0.55380  0.37238  1.0000
  C   C800      1.0  0.65951  0.60389  0.19071  1.0000
  H   H628      1.0  0.63582  0.57561  0.88716  1.0000
  C   C801      1.0  0.64120  0.57190  0.84868  1.0000
  C   C802      1.0  0.49308  0.52356  0.45121  1.0000
  C   C803      1.0  0.52704  0.63542  0.63153  1.0000
  C   C804      1.0  0.52069  0.73686  0.54825  1.0000
  H   H629      1.0  0.64108  0.58578  0.51974  1.0000
  H   H630      1.0  0.58699  0.53248  0.71400  1.0000
  C   C805      1.0  0.53040  0.52465  0.50789  1.0000
  H   H631      1.0  0.33331  0.55806  0.33195  1.0000
  H   H632      1.0  0.36739  0.55248  0.47269  1.0000
  H   H633      1.0  0.44280  0.51066  0.56074  1.0000
  H   H634      1.0  0.59447  0.72198  0.55758  1.0000
  H   H635      1.0  0.45793  0.50847  0.83485  1.0000
  C   C806      1.0  0.33519  0.54097  0.47552  1.0000
  C   C807      1.0  0.58696  0.72595  0.27093  1.0000
  C   C808      1.0  0.62284  0.73756  0.81898  1.0000
  H   H636      1.0  0.44093  0.68984  0.01456  1.0000
  C   C809      1.0  0.59601  0.72910  0.16164  1.0000
  H   H637      1.0  0.51232  0.64089  0.61422  1.0000
  H   H638      1.0  0.54931  0.70470  0.67651  1.0000
  C   C810      1.0  0.59533  0.71185  0.12808  1.0000
  H   H639      1.0  0.53401  0.51412  0.69612  1.0000
  C   C811      1.0  0.52308  0.62062  0.23042  1.0000
  C   C812      1.0  0.50520  0.60813  0.22286  1.0000
  C   C813      1.0  0.49076  0.61395  0.18477  1.0000
  C   C814      1.0  0.49413  0.63233  0.15438  1.0000
  C   C815      1.0  0.51196  0.64513  0.16237  1.0000
  C   C816      1.0  0.52638  0.63909  0.20055  1.0000
  P   P28       1.0  0.51592  0.66987  0.12675  1.0000
  C   C817      1.0  0.53804  0.66792  0.08141  1.0000
  C   C818      1.0  0.49214  0.67641  0.09138  1.0000
  C   C819      1.0  0.48885  0.66701  0.04373  1.0000
  C   C820      1.0  0.47048  0.67190  0.01609  1.0000
  H   H640      1.0  0.51646  0.60308  0.64220  1.0000
  H   H641      1.0  0.62780  0.66994  0.83006  1.0000
  C   C821      1.0  0.47658  0.69046  0.11134  1.0000
  C   C822      1.0  0.53931  0.68240  0.03955  1.0000
  C   C823      1.0  0.55598  0.68084  0.00341  1.0000
  C   C824      1.0  0.57157  0.66489  0.00882  1.0000
  C   C825      1.0  0.57052  0.65047  0.05033  1.0000
  C   C826      1.0  0.55387  0.65197  0.08663  1.0000
  C   C827      1.0  0.52032  0.69083  0.17199  1.0000
  C   C828      1.0  0.51050  0.68989  0.22091  1.0000
  C   C829      1.0  0.51259  0.70672  0.25481  1.0000
  C   C830      1.0  0.52432  0.72469  0.24001  1.0000
  C   C831      1.0  0.53447  0.72560  0.19187  1.0000
  C   C832      1.0  0.53253  0.70873  0.15794  1.0000
  H   H642      1.0  0.53415  0.61629  0.26038  1.0000
  H   H643      1.0  0.50233  0.59418  0.24724  1.0000
  H   H644      1.0  0.47673  0.60438  0.17964  1.0000
  H   H645      1.0  0.48254  0.63663  0.12572  1.0000
  H   H646      1.0  0.53994  0.64898  0.20788  1.0000
  H   H647      1.0  0.50047  0.65582  0.02805  1.0000
  H   H648      1.0  0.46807  0.66466  0.97928  1.0000
  P   P29       1.0  0.60842  0.72627  0.22342  1.0000
  H   H649      1.0  0.55116  0.69165  0.32688  1.0000
  H   H650      1.0  0.47848  0.69768  0.14831  1.0000
  H   H651      1.0  0.52741  0.69495  0.03484  1.0000
  H   H652      1.0  0.55704  0.69214  0.97144  1.0000
  H   H653      1.0  0.58463  0.66391  0.98111  1.0000
  H   H654      1.0  0.58265  0.63808  0.05439  1.0000
  H   H655      1.0  0.55354  0.64058  0.11838  1.0000
  H   H656      1.0  0.50102  0.67627  0.23293  1.0000
  H   H657      1.0  0.50515  0.70578  0.29276  1.0000
  C   C833      1.0  0.65504  0.56188  0.74881  1.0000
  H   H658      1.0  0.52581  0.73774  0.26633  1.0000
  H   H659      1.0  0.54043  0.70986  0.12082  1.0000
  C   C834      1.0  0.63407  0.64687  0.77121  1.0000
  H   H660      1.0  0.47876  0.52334  0.42868  1.0000
  C   C835      1.0  0.35283  0.55055  0.45165  1.0000
  H   H661      1.0  0.64072  0.70897  0.15294  1.0000
  H   H662      1.0  0.60063  0.72951  0.76135  1.0000
  C   C836      1.0  0.64283  0.54710  0.77700  1.0000
  H   H663      1.0  0.58857  0.66698  0.82523  1.0000
  H   H664      1.0  0.44496  0.50751  0.38900  1.0000
  H   H665      1.0  0.47509  0.51447  0.61299  1.0000
  C   C837      1.0  0.52160  0.54358  0.48766  1.0000
  C   C838      1.0  0.50290  0.54306  0.45955  1.0000
  H   H666      1.0  0.44627  0.70616  0.09922  1.0000
  C   C839      1.0  0.58726  0.72484  0.59494  1.0000
  Fe  Fe58      1.0  0.38367  0.50265  0.41065  1.0000
  S   S113      1.0  0.65811  0.52549  0.60316  1.0000
  H   H667      1.0  0.58883  0.70196  0.05155  1.0000
  C   C840      1.0  0.58151  0.74435  0.29865  1.0000
  H   H668      1.0  0.54228  0.66582  0.62232  1.0000
  H   H669      1.0  0.60097  0.69609  0.13942  1.0000
  H   H670      1.0  0.52044  0.50999  0.60866  1.0000
  H   H671      1.0  0.52942  0.55870  0.49319  1.0000
  H   H672      1.0  0.49621  0.55777  0.44350  1.0000
  C   C841      1.0  0.56183  0.71505  0.66197  1.0000
  C   C842      1.0  0.55974  0.70637  0.31922  1.0000
  C   C843      1.0  0.63615  0.55215  0.82720  1.0000
  C   C844      1.0  0.57140  0.71124  0.61413  1.0000
  C   C845      1.0  0.54056  0.50172  0.67185  1.0000
  C   C846      1.0  0.58621  0.54760  0.73358  1.0000
  C   C847      1.0  0.54866  0.60671  0.66765  1.0000
  C   C848      1.0  0.63927  0.69798  0.18544  1.0000
  C   C849      1.0  0.58491  0.54786  0.78708  1.0000
  C   C850      1.0  0.50188  0.50453  0.47116  1.0000
  H   H673      1.0  0.56007  0.73561  0.72692  1.0000
  C   C851      1.0  0.63593  0.66911  0.26828  1.0000
  Fe  Fe59      1.0  0.64179  0.50968  0.67078  1.0000
  H   H674      1.0  0.58467  0.53294  0.80883  1.0000
  H   H675      1.0  0.54381  0.73941  0.18082  1.0000
  C   C852      1.0  0.58774  0.56675  0.70544  1.0000
  C   C853      1.0  0.52935  0.61410  0.64755  1.0000
  H   H676      1.0  0.57829  0.69320  0.25745  1.0000
  H   H677      1.0  0.58920  0.56614  0.66410  1.0000
  H   H678      1.0  0.54522  0.52539  0.52849  1.0000
  C   C854      1.0  0.62485  0.70229  0.22600  1.0000
  H   H679      1.0  0.33615  0.53519  0.51487  1.0000
  S   S114      1.0  0.63556  0.52215  0.75161  1.0000
  C   C855      1.0  0.58794  0.71496  0.07828  1.0000
  C   C856      1.0  0.65339  0.58667  0.82043  1.0000
  H   H680      1.0  0.64556  0.70605  0.03544  1.0000
  C   C857      1.0  0.56576  0.62071  0.67237  1.0000
  C   C858      1.0  0.56333  0.64214  0.65612  1.0000
  P   P30       1.0  0.59139  0.61097  0.69377  1.0000
  C   C859      1.0  0.60304  0.63057  0.73455  1.0000
  C   C860      1.0  0.58817  0.58638  0.73062  1.0000
  C   C861      1.0  0.58670  0.58652  0.78444  1.0000
  C   C862      1.0  0.58502  0.56731  0.81247  1.0000
  H   H681      1.0  0.63075  0.58608  0.68267  1.0000
  H   H682      1.0  0.61369  0.69128  0.30129  1.0000
  H   H683      1.0  0.56631  0.69796  0.59150  1.0000
  C   C863      1.0  0.59876  0.65755  0.80013  1.0000
  C   C864      1.0  0.58985  0.64324  0.76624  1.0000
  C   C865      1.0  0.60831  0.60506  0.63873  1.0000
  C   C866      1.0  0.60259  0.61176  0.58905  1.0000
  C   C867      1.0  0.61464  0.60513  0.54642  1.0000
  H   H684      1.0  0.63426  0.65773  0.29994  1.0000
  C   C868      1.0  0.57525  0.70726  0.28003  1.0000
  C   C869      1.0  0.62638  0.59187  0.64491  1.0000
  H   H685      1.0  0.55031  0.58997  0.67799  1.0000
  H   H686      1.0  0.57656  0.65302  0.65778  1.0000
  H   H687      1.0  0.58737  0.60129  0.80507  1.0000
  H   H688      1.0  0.58462  0.56746  0.85401  1.0000
  C   C870      1.0  0.45821  0.69529  0.08362  1.0000
  H   H689      1.0  0.60717  0.74215  0.92933  1.0000
  C   C871      1.0  0.56570  0.74353  0.33727  1.0000
  H   H690      1.0  0.52733  0.73454  0.58594  1.0000
  H   H691      1.0  0.57270  0.64168  0.76576  1.0000
  H   H692      1.0  0.58834  0.62128  0.58249  1.0000
  H   H693      1.0  0.60960  0.60964  0.50814  1.0000
  C   C872      1.0  0.63834  0.58520  0.60224  1.0000
  S   S115      1.0  0.64695  0.65929  0.04914  1.0000
  H   H694      1.0  0.62749  0.74287  0.31571  1.0000
  C   C873      1.0  0.65134  0.67902  0.18558  1.0000
  H   H695      1.0  0.65518  0.73960  0.07795  1.0000
  C   C874      1.0  0.59345  0.74239  0.62329  1.0000
  S   S116      1.0  0.66121  0.61132  0.84630  1.0000
  H   H696      1.0  0.66047  0.55813  0.71039  1.0000
  S   S117      1.0  0.61386  0.49902  0.62502  1.0000
  S   S118      1.0  0.35265  0.49881  0.36865  1.0000
  C   C875      1.0  0.66036  0.58151  0.77053  1.0000
  H   H697      1.0  0.65820  0.64945  0.22605  1.0000
  C   C876      1.0  0.44684  0.49854  0.58942  1.0000
  H   H698      1.0  0.66121  0.61942  0.11659  1.0000
  Fe  Fe60      1.0  0.64070  0.83895  0.91029  1.0000
  S   S119      1.0  0.62534  0.83857  0.98930  1.0000
  S   S120      1.0  0.62808  0.83668  0.82873  1.0000
  Fe  Fe61      1.0  0.65079  0.86194  0.01092  1.0000
  S   S121      1.0  0.64152  0.89203  0.05526  1.0000
  C   C877      1.0  0.54721  0.78145  0.69791  1.0000
  H   H699      1.0  0.57021  0.94932  0.36482  1.0000
  H   H700      1.0  0.38290  0.89832  0.56099  1.0000
  H   H701      1.0  0.63534  0.77614  0.67888  1.0000
  Fe  Fe62      1.0  0.52583  0.85053  0.65461  1.0000
  S   S122      1.0  0.54356  0.83218  0.59384  1.0000
  S   S123      1.0  0.53648  0.85755  0.73575  1.0000
  Fe  Fe63      1.0  0.48733  0.86032  0.58594  1.0000
  S   S124      1.0  0.50205  0.84117  0.52093  1.0000
  S   S125      1.0  0.45783  0.88116  0.56566  1.0000
  Fe  Fe64      1.0  0.51226  0.81614  0.57921  1.0000
  S   S126      1.0  0.51593  0.77919  0.57666  1.0000
  Fe  Fe65      1.0  0.53218  0.85795  0.53965  1.0000
  S   S127      1.0  0.55024  0.87231  0.47206  1.0000
  S   S128      1.0  0.49473  0.83366  0.64342  1.0000
  S   S129      1.0  0.51740  0.87793  0.60128  1.0000
  C   C878      1.0  0.47725  0.97338  0.46006  1.0000
  Fe  Fe66      1.0  0.64457  0.94756  0.44351  1.0000
  S   S130      1.0  0.63188  0.92764  0.51066  1.0000
  S   S131      1.0  0.62966  0.95175  0.36623  1.0000
  Fe  Fe67      1.0  0.37354  0.97620  0.64323  1.0000
  S   S132      1.0  0.35907  0.97612  0.56516  1.0000
  S   S133      1.0  0.39520  0.94929  0.67543  1.0000
  C   C879      1.0  0.60708  0.76350  0.75971  1.0000
  C   C880      1.0  0.33396  0.88401  0.33574  1.0000
  S   S134      1.0  0.34244  0.98679  0.68140  1.0000
  C   C881      1.0  0.44160  0.90090  0.59712  1.0000
  C   C882      1.0  0.42835  0.91441  0.56731  1.0000
  C   C883      1.0  0.41443  0.92955  0.59034  1.0000
  C   C884      1.0  0.41324  0.93119  0.64382  1.0000
  C   C885      1.0  0.42669  0.91789  0.67356  1.0000
  C   C886      1.0  0.44089  0.90301  0.65047  1.0000
  H   H702      1.0  0.42870  0.91298  0.52604  1.0000
  H   H703      1.0  0.40428  0.93962  0.56677  1.0000
  H   H704      1.0  0.42601  0.91898  0.71490  1.0000
  H   H705      1.0  0.45084  0.89276  0.67407  1.0000
  C   C887      1.0  0.57241  0.88814  0.48413  1.0000
  C   C888      1.0  0.58205  0.89944  0.44322  1.0000
  C   C889      1.0  0.60014  0.91175  0.45120  1.0000
  C   C890      1.0  0.60876  0.91281  0.50008  1.0000
  C   C891      1.0  0.59906  0.90156  0.54113  1.0000
  C   C892      1.0  0.58086  0.88926  0.53321  1.0000
  H   H706      1.0  0.57558  0.89860  0.40516  1.0000
  H   H707      1.0  0.60757  0.92007  0.41924  1.0000
  H   H708      1.0  0.60563  0.90236  0.57900  1.0000
  H   H709      1.0  0.57347  0.88050  0.56479  1.0000
  C   C893      1.0  0.64291  0.96026  0.62152  1.0000
  C   C894      1.0  0.60275  0.81906  0.60361  1.0000
  C   C895      1.0  0.49247  0.90957  0.71930  1.0000
  H   H710      1.0  0.63302  0.82973  0.57356  1.0000
  C   C896      1.0  0.65003  0.89962  0.11724  1.0000
  C   C897      1.0  0.63952  0.91665  0.14218  1.0000
  C   C898      1.0  0.52825  0.79151  0.71354  1.0000
  H   H711      1.0  0.63062  0.75651  0.15269  1.0000
  C   C899      1.0  0.49811  0.92373  0.67932  1.0000
  H   H712      1.0  0.49959  0.89367  0.72113  1.0000
  H   H713      1.0  0.62629  0.92470  0.12368  1.0000
  C   C900      1.0  0.65576  0.88507  0.39349  1.0000
  C   C901      1.0  0.47411  0.95052  0.71448  1.0000
  C   C902      1.0  0.60232  0.84216  0.80419  1.0000
  C   C903      1.0  0.58554  0.84981  0.83505  1.0000
  C   C904      1.0  0.56556  0.85460  0.81342  1.0000
  C   C905      1.0  0.56201  0.85145  0.76101  1.0000
  C   C906      1.0  0.57877  0.84368  0.73025  1.0000
  C   C907      1.0  0.59885  0.83925  0.75163  1.0000
  H   H714      1.0  0.58799  0.85223  0.87546  1.0000
  H   H715      1.0  0.55271  0.86065  0.83752  1.0000
  H   H716      1.0  0.57626  0.84133  0.68991  1.0000
  H   H717      1.0  0.61176  0.83355  0.72723  1.0000
  C   C908      1.0  0.63749  0.76005  0.02618  1.0000
  C   C909      1.0  0.62412  0.76069  0.98386  1.0000
  C   C910      1.0  0.62494  0.81829  0.59858  1.0000
  C   C911      1.0  0.59222  0.80440  0.63598  1.0000
  C   C912      1.0  0.51898  0.96686  0.38277  1.0000
  C   C913      1.0  0.48870  0.94416  0.67605  1.0000
  C   C914      1.0  0.63274  0.94428  0.65072  1.0000
  C   C915      1.0  0.55956  0.89279  0.28985  1.0000
  C   C916      1.0  0.56818  0.91315  0.28288  1.0000
  C   C917      1.0  0.59025  0.91577  0.28344  1.0000
  C   C918      1.0  0.60371  0.89808  0.29131  1.0000
  C   C919      1.0  0.59515  0.87762  0.29965  1.0000
  C   C920      1.0  0.57300  0.87504  0.29750  1.0000
  P   P31       1.0  0.61261  0.85461  0.30695  1.0000
  C   C921      1.0  0.61550  0.84337  0.24381  1.0000
  C   C922      1.0  0.63746  0.86383  0.33144  1.0000
  C   C923      1.0  0.63709  0.87599  0.37613  1.0000
  C   C924      1.0  0.62609  0.78812  0.65826  1.0000
  H   H718      1.0  0.57506  0.80521  0.63935  1.0000
  S   S135      1.0  0.65090  0.98250  0.45341  1.0000
  H   H719      1.0  0.37496  0.98207  0.39668  1.0000
  C   C925      1.0  0.62567  0.85513  0.20420  1.0000
  C   C926      1.0  0.62797  0.84662  0.15518  1.0000
  C   C927      1.0  0.61980  0.82656  0.14497  1.0000
  C   C928      1.0  0.60899  0.81508  0.18359  1.0000
  C   C929      1.0  0.60663  0.82351  0.23271  1.0000
  C   C930      1.0  0.60325  0.83538  0.35465  1.0000
  C   C931      1.0  0.61281  0.81497  0.35749  1.0000
  C   C932      1.0  0.60581  0.79992  0.39427  1.0000
  C   C933      1.0  0.58957  0.80532  0.42930  1.0000
  C   C934      1.0  0.58056  0.82583  0.42795  1.0000
  C   C935      1.0  0.58748  0.84089  0.39114  1.0000
  H   H720      1.0  0.54246  0.89071  0.28894  1.0000
  H   H721      1.0  0.55781  0.92686  0.27628  1.0000
  H   H722      1.0  0.59704  0.93147  0.27715  1.0000
  H   H723      1.0  0.62080  0.90051  0.29025  1.0000
  H   H724      1.0  0.56609  0.85933  0.30183  1.0000
  H   H725      1.0  0.62219  0.87910  0.39648  1.0000
  C   C936      1.0  0.58766  0.74903  0.14584  1.0000
  H   H726      1.0  0.53293  0.93656  0.36139  1.0000
  S   S136      1.0  0.64420  0.78362  0.05795  1.0000
  C   C937      1.0  0.50526  0.76014  0.48377  1.0000
  H   H727      1.0  0.63184  0.87090  0.21111  1.0000
  C   C938      1.0  0.35943  0.98017  0.41493  1.0000
  C   C939      1.0  0.62305  0.89746  0.87873  1.0000
  H   H728      1.0  0.59760  0.81461  0.26141  1.0000
  H   H729      1.0  0.62563  0.81073  0.33108  1.0000
  H   H730      1.0  0.61299  0.78410  0.39580  1.0000
  H   H731      1.0  0.58403  0.79373  0.45784  1.0000
  H   H732      1.0  0.56816  0.83014  0.45559  1.0000
  H   H733      1.0  0.58056  0.85680  0.39179  1.0000
  H   H734      1.0  0.64878  0.87210  0.77396  1.0000
  C   C940      1.0  0.35160  0.95974  0.42608  1.0000
  C   C941      1.0  0.53600  0.95294  0.37135  1.0000
  H   H735      1.0  0.58771  0.76244  0.17138  1.0000
  C   C942      1.0  0.33255  0.87639  0.38643  1.0000
  H   H736      1.0  0.63465  0.91355  0.94465  1.0000
  H   H737      1.0  0.50288  0.96109  0.38005  1.0000
  H   H738      1.0  0.41956  0.97680  0.59931  1.0000
  H   H739      1.0  0.66055  0.86793  0.58580  1.0000
  H   H740      1.0  0.45667  0.94110  0.78305  1.0000
  H   H741      1.0  0.60547  0.75292  0.60722  1.0000
  H   H742      1.0  0.47292  0.90471  0.78714  1.0000
  H   H743      1.0  0.63796  0.93676  0.20901  1.0000
  H   H744      1.0  0.36944  0.90951  0.64630  1.0000
  Fe  Fe68      1.0  0.32871  0.98937  0.60194  1.0000
  H   H745      1.0  0.62161  0.82005  0.10686  1.0000
  H   H746      1.0  0.53300  0.96836  0.55288  1.0000
  H   H747      1.0  0.65448  0.78638  0.16763  1.0000
  C   C943      1.0  0.64802  0.88704  0.64743  1.0000
  C   C944      1.0  0.43555  0.98290  0.59412  1.0000
  C   C945      1.0  0.55696  0.96010  0.37312  1.0000
  C   C946      1.0  0.32902  0.92909  0.57305  1.0000
  H   H748      1.0  0.63593  0.85566  0.12480  1.0000
  C   C947      1.0  0.54394  0.99526  0.39649  1.0000
  C   C948      1.0  0.55374  0.98186  0.67816  1.0000
  H   H749      1.0  0.60236  0.79971  0.17512  1.0000
  C   C949      1.0  0.60379  0.78901  0.66407  1.0000
  C   C950      1.0  0.47377  0.97850  0.60422  1.0000
  C   C951      1.0  0.45306  0.97048  0.60945  1.0000
  P   P32       1.0  0.49634  0.96252  0.62483  1.0000
  C   C952      1.0  0.50596  0.94796  0.56977  1.0000
  C   C953      1.0  0.51696  0.97836  0.65211  1.0000
  C   C954      1.0  0.53765  0.96979  0.65688  1.0000
  H   H750      1.0  0.63502  0.96739  0.58856  1.0000
  C   C955      1.0  0.52451  0.95419  0.54269  1.0000
  C   C956      1.0  0.53248  0.94187  0.50230  1.0000
  C   C957      1.0  0.52162  0.92371  0.48755  1.0000
  C   C958      1.0  0.50265  0.91799  0.51280  1.0000
  C   C959      1.0  0.49482  0.93006  0.55373  1.0000
  C   C960      1.0  0.64607  0.92352  0.19068  1.0000
  H   H751      1.0  0.50977  0.91866  0.65094  1.0000
  Fe  Fe69      1.0  0.64999  0.81347  0.00926  1.0000
  H   H752      1.0  0.36123  0.94588  0.41619  1.0000
  H   H753      1.0  0.45035  0.95469  0.62563  1.0000
  H   H754      1.0  0.54137  0.95377  0.64408  1.0000
  C   C961      1.0  0.56417  0.79293  0.77521  1.0000
  C   C962      1.0  0.56090  0.98130  0.38511  1.0000
  H   H755      1.0  0.54724  0.94621  0.48274  1.0000
  H   H756      1.0  0.52801  0.91390  0.45695  1.0000
  H   H757      1.0  0.49428  0.90377  0.50173  1.0000
  H   H758      1.0  0.48032  0.92509  0.57356  1.0000
  H   H759      1.0  0.61530  0.88496  0.90134  1.0000
  H   H760      1.0  0.64276  0.89976  0.62160  1.0000
  C   C963      1.0  0.56534  0.78199  0.72871  1.0000
  H   H761      1.0  0.61809  0.77588  0.96939  1.0000
  H   H762      1.0  0.57715  0.98696  0.38530  1.0000
  H   H763      1.0  0.49980  0.77580  0.47108  1.0000
  C   C964      1.0  0.65696  0.85992  0.30584  1.0000
  C   C965      1.0  0.45831  0.96354  0.47619  1.0000
  H   H764      1.0  0.51272  0.81078  0.77102  1.0000
  C   C966      1.0  0.36772  0.90671  0.56425  1.0000
  C   C967      1.0  0.63265  0.91300  0.79527  1.0000
  H   H765      1.0  0.64051  0.78759  0.84189  1.0000
  P   P33       1.0  0.63114  0.91190  0.72599  1.0000
  C   C968      1.0  0.60301  0.91130  0.71310  1.0000
  C   C969      1.0  0.64318  0.93428  0.69214  1.0000
  H   H766      1.0  0.54444  0.81183  0.82596  1.0000
  H   H767      1.0  0.45881  0.94861  0.49795  1.0000
  C   C970      1.0  0.63200  0.77488  0.82377  1.0000
  C   C971      1.0  0.46838  0.93630  0.75430  1.0000
  C   C972      1.0  0.54511  0.80291  0.79078  1.0000
  C   C973      1.0  0.59424  0.89462  0.68552  1.0000
  C   C974      1.0  0.57225  0.89387  0.67855  1.0000
  C   C975      1.0  0.55883  0.90939  0.69996  1.0000
  C   C976      1.0  0.56741  0.92609  0.72732  1.0000
  C   C977      1.0  0.58946  0.92712  0.73369  1.0000
  C   C978      1.0  0.64449  0.88851  0.70065  1.0000
  C   C979      1.0  0.64839  0.77702  0.20007  1.0000
  H   H768      1.0  0.65505  0.89535  0.42650  1.0000
  C   C980      1.0  0.47750  0.91581  0.75661  1.0000
  C   C981      1.0  0.52721  0.80233  0.75983  1.0000
  C   C982      1.0  0.65117  0.87159  0.73288  1.0000
  C   C983      1.0  0.63394  0.91358  0.90304  1.0000
  C   C984      1.0  0.35617  0.91195  0.52030  1.0000
  H   H769      1.0  0.54775  0.77366  0.66114  1.0000
  H   H770      1.0  0.61352  0.88480  0.80708  1.0000
  H   H771      1.0  0.49229  0.96600  0.47018  1.0000
  H   H772      1.0  0.61708  0.93928  0.63943  1.0000
  C   C985      1.0  0.62223  0.89730  0.82523  1.0000
  H   H773      1.0  0.36282  0.90777  0.48319  1.0000
  C   C986      1.0  0.64368  0.92978  0.87374  1.0000
  H   H774      1.0  0.60411  0.88184  0.67038  1.0000
  H   H775      1.0  0.56542  0.88071  0.65837  1.0000
  H   H776      1.0  0.54176  0.90800  0.69656  1.0000
  H   H777      1.0  0.55690  0.93787  0.74471  1.0000
  H   H778      1.0  0.59590  0.93989  0.75589  1.0000
  C   C987      1.0  0.63660  0.80275  0.62571  1.0000
  C   C988      1.0  0.63432  0.75380  0.84146  1.0000
  H   H779      1.0  0.46694  0.96636  0.71344  1.0000
  H   H780      1.0  0.42402  0.96593  0.47930  1.0000
  C   C989      1.0  0.63462  0.76011  0.19179  1.0000
  H   H781      1.0  0.58940  0.75933  0.29067  1.0000
  H   H782      1.0  0.59365  0.83107  0.58255  1.0000
  C   C990      1.0  0.43868  0.97326  0.46561  1.0000
  P   P34       1.0  0.59015  0.77014  0.70612  1.0000
  C   C991      1.0  0.36009  0.91292  0.61246  1.0000
  C   C992      1.0  0.52287  0.98795  0.39732  1.0000
  Fe  Fe70      1.0  0.63791  0.98659  0.37380  1.0000
  H   H783      1.0  0.64986  0.94281  0.79869  1.0000
  H   H784      1.0  0.61687  0.79620  0.77012  1.0000
  C   C993      1.0  0.61849  0.77972  0.78308  1.0000
  C   C994      1.0  0.62636  0.74808  0.23350  1.0000
  H   H785      1.0  0.65379  0.80201  0.62161  1.0000
  C   C995      1.0  0.63300  0.75253  0.28326  1.0000
  H   H786      1.0  0.51447  0.79126  0.68907  1.0000
  C   C996      1.0  0.51383  0.75754  0.53275  1.0000
  H   H787      1.0  0.57793  0.79428  0.79916  1.0000
  C   C997      1.0  0.64287  0.92966  0.82007  1.0000
  C   C998      1.0  0.33167  0.95729  0.45076  1.0000
  H   H788      1.0  0.57441  0.76763  0.08332  1.0000
  C   C999      1.0  0.47668  0.99268  0.43167  1.0000
  H   H789      1.0  0.33520  0.92952  0.65405  1.0000
  H   H790      1.0  0.65169  0.94253  0.89285  1.0000
  H   H791      1.0  0.65175  0.77293  0.32988  1.0000
  H   H792      1.0  0.65780  0.85050  0.27157  1.0000
  C   C1000     1.0  0.43798  0.99290  0.43929  1.0000
  H   H793      1.0  0.56163  0.75764  0.35902  1.0000
  C   C1001     1.0  0.58001  0.75200  0.09613  1.0000
  H   H794      1.0  0.56974  0.97526  0.68099  1.0000
  C   C1002     1.0  0.33652  0.92287  0.52449  1.0000
  C   C1003     1.0  0.65805  0.86896  0.62693  1.0000
  H   H795      1.0  0.33668  0.87294  0.30477  1.0000
  C   C1004     1.0  0.64678  0.76947  0.29140  1.0000
  H   H796      1.0  0.64473  0.75008  0.87324  1.0000
  C   C1005     1.0  0.65432  0.78184  0.24984  1.0000
  C   C1006     1.0  0.33164  0.90587  0.32499  1.0000
  C   C1007     1.0  0.34078  0.92416  0.61683  1.0000
  H   H797      1.0  0.33244  0.91174  0.28562  1.0000
  H   H798      1.0  0.33412  0.85941  0.39474  1.0000
  C   C1008     1.0  0.58374  0.74648  0.67114  1.0000
  C   C1009     1.0  0.66098  0.85343  0.71224  1.0000
  C   C1010     1.0  0.32901  0.89064  0.42644  1.0000
  C   C1011     1.0  0.98430  0.00281  0.51468  1.0000
  C   C1012     1.0  0.99213  0.05405  0.49171  1.0000
  C   C1013     1.0  0.99172  0.07525  0.47399  1.0000
  H   H799      1.0  0.73809  0.01598  0.60620  1.0000
  S   S137      1.0  0.89204  0.02707  0.61416  1.0000
  H   H800      1.0  0.97243  0.22489  0.49862  1.0000
  H   H801      1.0  0.97145  0.01833  0.44673  1.0000
  H   H802      1.0  0.93531  0.00374  0.45976  1.0000
  H   H803      1.0  0.96292  0.20844  0.32221  1.0000
  S   S138      1.0  0.98167  0.07740  0.61923  1.0000
  C   C1014     1.0  0.94783  0.99944  0.48626  1.0000
  H   H804      1.0  0.78481  0.00321  0.51665  1.0000
  C   C1015     1.0  0.96826  0.00781  0.47936  1.0000
  H   H805      1.0  0.95333  0.24477  0.35212  1.0000
  C   C1016     1.0  0.96989  0.24038  0.34532  1.0000
  C   C1017     1.0  0.98923  0.22857  0.49850  1.0000
  C   C1018     1.0  0.91735  0.04054  0.61313  1.0000
  C   C1019     1.0  0.91767  0.06307  0.60915  1.0000
  C   C1020     1.0  0.93702  0.07454  0.60991  1.0000
  C   C1021     1.0  0.95658  0.06374  0.61556  1.0000
  C   C1022     1.0  0.95631  0.04119  0.61931  1.0000
  C   C1023     1.0  0.93696  0.02972  0.61791  1.0000
  H   H806      1.0  0.90275  0.07178  0.60567  1.0000
  H   H807      1.0  0.93673  0.09180  0.60705  1.0000
  H   H808      1.0  0.97120  0.03251  0.62373  1.0000
  H   H809      1.0  0.93714  0.01252  0.62184  1.0000
  C   C1024     1.0  0.73694  0.99903  0.61497  1.0000
  H   H810      1.0  0.76350  0.99846  0.66591  1.0000
  H   H811      1.0  0.97871  0.08578  0.48558  1.0000
  C   C1025     1.0  0.97532  0.21993  0.32848  1.0000
  H   H812      1.0  0.97942  0.04861  0.51729  1.0000
  H   H813      1.0  0.74873  0.01385  0.48665  1.0000
  H   H814      1.0  0.99109  0.22622  0.62303  1.0000
  C   C1026     1.0  0.75350  0.99719  0.48655  1.0000
  S   S139      1.0  0.99409  0.18775  0.53998  1.0000
  H   H815      1.0  0.90624  0.36531  0.35253  1.0000
  H   H816      1.0  0.84903  0.42557  0.15707  1.0000
  C   C1027     1.0  0.97561  0.43571  0.49317  1.0000
  Fe  Fe71      1.0  0.87474  0.47374  0.39399  1.0000
  S   S140      1.0  0.86060  0.47676  0.47344  1.0000
  S   S141      1.0  0.90369  0.45282  0.36988  1.0000
  C   C1028     1.0  0.81922  0.41338  0.32542  1.0000
  H   H817      1.0  0.81928  0.35431  0.20105  1.0000
  S   S142      1.0  0.84237  0.47710  0.35755  1.0000
  H   H818      1.0  0.89638  0.41558  0.20511  1.0000
  Fe  Fe72      1.0  0.98356  0.34958  0.40312  1.0000
  H   H819      1.0  0.99010  0.40606  0.46856  1.0000
  S   S143      1.0  0.94995  0.36301  0.42204  1.0000
  H   H820      1.0  0.92414  0.48702  0.44879  1.0000
  C   C1029     1.0  0.98586  0.25515  0.35381  1.0000
  H   H821      1.0  0.81117  0.41013  0.29020  1.0000
  C   C1030     1.0  0.91768  0.39359  0.24309  1.0000
  C   C1031     1.0  0.91724  0.42874  0.38952  1.0000
  C   C1032     1.0  0.93705  0.42361  0.36618  1.0000
  C   C1033     1.0  0.94779  0.40411  0.37748  1.0000
  C   C1034     1.0  0.93869  0.38919  0.41180  1.0000
  C   C1035     1.0  0.91916  0.39459  0.43628  1.0000
  C   C1036     1.0  0.90858  0.41425  0.42556  1.0000
  H   H822      1.0  0.94398  0.43466  0.33835  1.0000
  H   H823      1.0  0.96271  0.40028  0.35811  1.0000
  H   H824      1.0  0.91191  0.38325  0.46290  1.0000
  H   H825      1.0  0.89347  0.41790  0.44418  1.0000
  C   C1037     1.0  0.89492  0.47628  0.57314  1.0000
  C   C1038     1.0  0.73508  0.47176  0.51477  1.0000
  C   C1039     1.0  0.75418  0.46488  0.49003  1.0000
  C   C1040     1.0  0.77269  0.47742  0.48975  1.0000
  C   C1041     1.0  0.77866  0.48880  0.33930  1.0000
  H   H826      1.0  0.89328  0.44614  0.26632  1.0000
  H   H827      1.0  0.72115  0.46176  0.51509  1.0000
  H   H828      1.0  0.75468  0.44959  0.47146  1.0000
  H   H829      1.0  0.87220  0.38490  0.34374  1.0000
  H   H830      1.0  0.83120  0.40501  0.09110  1.0000
  C   C1042     1.0  0.85978  0.44433  0.24822  1.0000
  H   H831      1.0  0.70001  0.47711  0.42926  1.0000
  C   C1043     1.0  0.83898  0.42335  0.41698  1.0000
  H   H832      1.0  0.96458  0.43630  0.46162  1.0000
  C   C1044     1.0  0.92393  0.44514  0.53898  1.0000
  C   C1045     1.0  0.88100  0.47649  0.24094  1.0000
  C   C1046     1.0  0.82553  0.37000  0.19179  1.0000
  C   C1047     1.0  0.97537  0.45184  0.52997  1.0000
  C   C1048     1.0  0.81709  0.41968  0.41677  1.0000
  C   C1049     1.0  0.84220  0.41027  0.16757  1.0000
  C   C1050     1.0  0.83550  0.38165  0.22954  1.0000
  C   C1051     1.0  0.98314  0.44751  0.71640  1.0000
  C   C1052     1.0  0.99068  0.42646  0.72087  1.0000
  C   C1053     1.0  0.76347  0.46799  0.25358  1.0000
  C   C1054     1.0  0.77973  0.45860  0.28250  1.0000
  C   C1055     1.0  0.91550  0.48211  0.55762  1.0000
  H   H833      1.0  0.93053  0.39592  0.21530  1.0000
  C   C1056     1.0  0.87937  0.45466  0.25251  1.0000
  H   H834      1.0  0.89834  0.42294  0.55147  1.0000
  C   C1057     1.0  0.84134  0.41657  0.32559  1.0000
  H   H835      1.0  0.82634  0.44886  0.23154  1.0000
  C   C1058     1.0  0.98735  0.26016  0.61068  1.0000
  C   C1059     1.0  0.83223  0.39857  0.12989  1.0000
  C   C1060     1.0  0.93036  0.46650  0.54163  1.0000
  H   H836      1.0  0.86786  0.42542  0.37196  1.0000
  C   C1061     1.0  0.96049  0.49271  0.35155  1.0000
  Fe  Fe73      1.0  0.82861  0.48310  0.43695  1.0000
  H   H837      1.0  0.80769  0.42126  0.45189  1.0000
  H   H838      1.0  0.95217  0.47983  0.63381  1.0000
  C   C1062     1.0  0.89841  0.40485  0.23779  1.0000
  C   C1063     1.0  0.84357  0.40202  0.21791  1.0000
  C   C1064     1.0  0.88198  0.40242  0.27471  1.0000
  P   P35       1.0  0.95710  0.47431  0.52336  1.0000
  H   H839      1.0  0.98442  0.26071  0.46784  1.0000
  H   H840      1.0  0.75750  0.45987  0.22059  1.0000
  H   H841      1.0  0.78638  0.44321  0.27209  1.0000
  H   H842      1.0  0.79943  0.46145  0.34865  1.0000
  H   H843      1.0  0.87270  0.45055  0.58271  1.0000
  H   H844      1.0  0.82949  0.48751  0.21122  1.0000
  C   C1065     1.0  0.99008  0.41858  0.49683  1.0000
  P   P36       1.0  0.85691  0.41654  0.26668  1.0000
  H   H845      1.0  0.89606  0.48443  0.24549  1.0000
  C   C1066     1.0  0.84177  0.45630  0.23317  1.0000
  C   C1067     1.0  0.82383  0.37849  0.14202  1.0000
  C   C1068     1.0  0.85103  0.42197  0.37151  1.0000
  C   C1069     1.0  0.88474  0.38768  0.31549  1.0000
  H   H846      1.0  0.93467  0.43282  0.52512  1.0000
  H   H847      1.0  0.79010  0.41253  0.37093  1.0000
  H   H848      1.0  0.81620  0.36940  0.11272  1.0000
  C   C1070     1.0  0.88881  0.45493  0.57162  1.0000
  H   H849      1.0  0.83701  0.37476  0.26779  1.0000
  S   S144      1.0  0.79667  0.46735  0.45987  1.0000
  C   C1071     1.0  0.80719  0.41477  0.37101  1.0000
  C   C1072     1.0  0.90324  0.43941  0.55404  1.0000
  C   C1073     1.0  0.96452  0.49562  0.56507  1.0000
  H   H850      1.0  0.84653  0.42780  0.45219  1.0000
  C   C1074     1.0  0.84347  0.47814  0.22155  1.0000
  C   C1075     1.0  0.90393  0.37628  0.32032  1.0000
  C   C1076     1.0  0.75466  0.48770  0.26770  1.0000
  S   S145      1.0  0.99281  0.31915  0.36124  1.0000
  C   C1077     1.0  0.92048  0.37940  0.28452  1.0000
  H   H851      1.0  0.99045  0.46289  0.59852  1.0000
  C   C1078     1.0  0.73417  0.49133  0.53991  1.0000
  H   H852      1.0  0.72919  0.48354  0.36667  1.0000
  H   H853      1.0  0.93552  0.37092  0.28935  1.0000
  C   C1079     1.0  0.86310  0.48820  0.22525  1.0000
  C   C1080     1.0  0.78721  0.46894  0.32542  1.0000
  H   H854      1.0  0.99266  0.47961  0.45092  1.0000
  H   H855      1.0  0.97953  0.41343  0.72510  1.0000
  H   H856      1.0  0.98863  0.29425  0.59874  1.0000
  C   C1081     1.0  0.99002  0.45066  0.57002  1.0000
  H   H857      1.0  0.96613  0.45078  0.71691  1.0000
  H   H858      1.0  0.92626  0.49544  0.35663  1.0000
  H   H859      1.0  0.88354  0.48850  0.58504  1.0000
  C   C1082     1.0  0.97811  0.48343  0.43084  1.0000
  H   H860      1.0  0.99139  0.48039  0.70515  1.0000
  C   C1083     1.0  0.97918  0.48839  0.37835  1.0000
  H   H861      1.0  0.98170  0.27097  0.36726  1.0000
  C   C1084     1.0  0.94081  0.49251  0.37745  1.0000
  C   C1085     1.0  0.70477  0.49332  0.41988  1.0000
  H   H862      1.0  0.97083  0.25909  0.59969  1.0000
  Fe  Fe74      1.0  0.67505  0.49393  0.58972  1.0000
  H   H863      1.0  0.74171  0.49449  0.24560  1.0000
  C   C1086     1.0  0.95831  0.48278  0.45688  1.0000
  C   C1087     1.0  0.96002  0.49386  0.61799  1.0000
  C   C1088     1.0  0.93966  0.48761  0.42995  1.0000
  H   H864      1.0  0.99443  0.48844  0.35824  1.0000
  H   H865      1.0  0.96119  0.49595  0.31062  1.0000
  Fe  Fe75      1.0  0.87013  0.62625  0.93912  1.0000
  S   S146      1.0  0.88366  0.63641  0.01417  1.0000
  S   S147      1.0  0.88387  0.62607  0.85726  1.0000
  Fe  Fe76      1.0  0.82536  0.62079  0.98697  1.0000
  S   S148      1.0  0.83540  0.63034  0.06541  1.0000
  S   S149      1.0  0.79244  0.61010  0.96479  1.0000
  Fe  Fe77      1.0  0.85374  0.65625  0.02336  1.0000
  S   S150      1.0  0.85307  0.68904  0.05934  1.0000
  Fe  Fe78      1.0  0.86434  0.60971  0.05078  1.0000
  S   S151      1.0  0.88043  0.58917  0.11260  1.0000
  S   S152      1.0  0.84143  0.64818  0.94613  1.0000
  S   S153      1.0  0.85304  0.59806  0.97485  1.0000
  Fe  Fe79      1.0  0.67718  0.64801  0.00987  1.0000
  S   S154      1.0  0.70857  0.65801  0.04265  1.0000
  C   C1089     1.0  0.73688  0.63959  0.80802  1.0000
  C   C1090     1.0  0.72154  0.56046  0.74498  1.0000
  C   C1091     1.0  0.84393  0.66089  0.78518  1.0000
  Fe  Fe80      1.0  0.84795  0.51254  0.35292  1.0000
  S   S155      1.0  0.83311  0.51848  0.43079  1.0000
  S   S156      1.0  0.83410  0.53226  0.28626  1.0000
  Fe  Fe81      1.0  0.86605  0.51194  0.46087  1.0000
  S   S157      1.0  0.87991  0.53086  0.52522  1.0000
  H   H866      1.0  0.70849  0.54231  0.29995  1.0000
  S   S158      1.0  0.96642  0.62412  0.60004  1.0000
  S   S159      1.0  0.97532  0.60864  0.75251  1.0000
  H   H867      1.0  0.75908  0.52778  0.43927  1.0000
  S   S160      1.0  0.96947  0.57620  0.49575  1.0000
  C   C1092     1.0  0.90521  0.54275  0.51726  1.0000
  C   C1093     1.0  0.91294  0.55553  0.55628  1.0000
  C   C1094     1.0  0.93268  0.56582  0.55036  1.0000
  C   C1095     1.0  0.94486  0.56325  0.50542  1.0000
  C   C1096     1.0  0.93732  0.55018  0.46680  1.0000
  C   C1097     1.0  0.91755  0.54003  0.47258  1.0000
  H   H868      1.0  0.90353  0.55769  0.59103  1.0000
  H   H869      1.0  0.93841  0.57578  0.58048  1.0000
  H   H870      1.0  0.94675  0.54799  0.43217  1.0000
  H   H871      1.0  0.91188  0.53022  0.44235  1.0000
  C   C1098     1.0  0.71864  0.55380  0.79639  1.0000
  C   C1099     1.0  0.78453  0.55136  0.33671  1.0000
  H   H872      1.0  0.69312  0.52221  0.68640  1.0000
  C   C1100     1.0  0.96520  0.51039  0.65064  1.0000
  H   H873      1.0  0.86269  0.64183  0.24361  1.0000
  H   H874      1.0  0.88221  0.63366  0.16265  1.0000
  H   H875      1.0  0.93097  0.60092  0.24738  1.0000
  C   C1101     1.0  0.90950  0.62082  0.82960  1.0000
  C   C1102     1.0  0.92772  0.61783  0.85911  1.0000
  C   C1103     1.0  0.94772  0.61405  0.83491  1.0000
  C   C1104     1.0  0.94976  0.61341  0.78108  1.0000
  C   C1105     1.0  0.93156  0.61651  0.75163  1.0000
  C   C1106     1.0  0.91158  0.62002  0.77581  1.0000
  H   H876      1.0  0.92641  0.61840  0.90047  1.0000
  H   H877      1.0  0.96170  0.61167  0.85805  1.0000
  H   H878      1.0  0.93285  0.61598  0.71024  1.0000
  H   H879      1.0  0.89759  0.62194  0.75259  1.0000
  C   C1107     1.0  0.86723  0.57414  0.16192  1.0000
  C   C1108     1.0  0.87936  0.56381  0.20019  1.0000
  C   C1109     1.0  0.86951  0.55112  0.23894  1.0000
  C   C1110     1.0  0.84738  0.54867  0.23979  1.0000
  C   C1111     1.0  0.83523  0.55924  0.20198  1.0000
  C   C1112     1.0  0.84508  0.57191  0.16324  1.0000
  H   H880      1.0  0.89650  0.56546  0.19947  1.0000
  H   H881      1.0  0.87904  0.54305  0.26772  1.0000
  H   H882      1.0  0.81812  0.55736  0.20217  1.0000
  H   H883      1.0  0.83564  0.57961  0.13377  1.0000
  C   C1113     1.0  0.85694  0.71319  0.02439  1.0000
  C   C1114     1.0  0.66980  0.61525  0.15110  1.0000
  C   C1115     1.0  0.86060  0.71358  0.97132  1.0000
  H   H884      1.0  0.87850  0.72170  0.72825  1.0000
  H   H885      1.0  0.86098  0.69879  0.95066  1.0000
  C   C1116     1.0  0.76946  0.62444  0.98471  1.0000
  C   C1117     1.0  0.77054  0.64077  0.02031  1.0000
  C   C1118     1.0  0.75178  0.65126  0.03700  1.0000
  C   C1119     1.0  0.73185  0.64526  0.01898  1.0000
  C   C1120     1.0  0.73077  0.62902  0.98317  1.0000
  C   C1121     1.0  0.74953  0.61874  0.96595  1.0000
  H   H886      1.0  0.78580  0.64525  0.03513  1.0000
  H   H887      1.0  0.75273  0.66407  0.06384  1.0000
  H   H888      1.0  0.71549  0.62432  0.96888  1.0000
  H   H889      1.0  0.74851  0.60614  0.93850  1.0000
  H   H890      1.0  0.71478  0.55409  0.66584  1.0000
  C   C1122     1.0  0.75712  0.59409  0.08654  1.0000
  C   C1123     1.0  0.77816  0.59123  0.10203  1.0000
  C   C1124     1.0  0.78416  0.59800  0.15027  1.0000
  C   C1125     1.0  0.76917  0.60778  0.18286  1.0000
  C   C1126     1.0  0.74792  0.61075  0.16761  1.0000
  C   C1127     1.0  0.74213  0.60412  0.11870  1.0000
  P   P37       1.0  0.72924  0.62533  0.20811  1.0000
  C   C1128     1.0  0.70215  0.61621  0.20095  1.0000
  C   C1129     1.0  0.73671  0.62145  0.27429  1.0000
  C   C1130     1.0  0.73625  0.63862  0.30817  1.0000
  C   C1131     1.0  0.74160  0.63533  0.35961  1.0000
  C   C1132     1.0  0.74729  0.61490  0.37763  1.0000
  C   C1133     1.0  0.74765  0.59773  0.34423  1.0000
  C   C1134     1.0  0.74245  0.60096  0.29271  1.0000
  C   C1135     1.0  0.69155  0.60495  0.24093  1.0000
  C   C1136     1.0  0.88315  0.73732  0.20253  1.0000
  H   H891      1.0  0.90784  0.72735  0.03674  1.0000
  H   H892      1.0  0.91618  0.61324  0.16492  1.0000
  C   C1137     1.0  0.69095  0.62147  0.15623  1.0000
  C   C1138     1.0  0.73061  0.65337  0.19054  1.0000
  C   C1139     1.0  0.71249  0.66667  0.19540  1.0000
  H   H893      1.0  0.90101  0.67842  0.98830  1.0000
  Fe  Fe82      1.0  0.98252  0.59737  0.55711  1.0000
  C   C1140     1.0  0.75089  0.68391  0.15901  1.0000
  C   C1141     1.0  0.74989  0.66222  0.17279  1.0000
  H   H894      1.0  0.75271  0.58937  0.04850  1.0000
  H   H895      1.0  0.78993  0.58433  0.07594  1.0000
  H   H896      1.0  0.80060  0.59616  0.16184  1.0000
  H   H897      1.0  0.77441  0.61353  0.21934  1.0000
  H   H898      1.0  0.72629  0.60706  0.10447  1.0000
  H   H899      1.0  0.73171  0.65453  0.29514  1.0000
  H   H900      1.0  0.74125  0.64863  0.38561  1.0000
  H   H901      1.0  0.75138  0.61235  0.41752  1.0000
  H   H902      1.0  0.75192  0.58191  0.35841  1.0000
  H   H903      1.0  0.74278  0.58748  0.26730  1.0000
  H   H904      1.0  0.69940  0.60096  0.27642  1.0000
  C   C1142     1.0  0.84381  0.67846  0.81739  1.0000
  C   C1143     1.0  0.88387  0.73357  0.75463  1.0000
  H   H905      1.0  0.74120  0.72796  0.04385  1.0000
  H   H906      1.0  0.69843  0.63071  0.12554  1.0000
  H   H907      1.0  0.69753  0.66034  0.20969  1.0000
  H   H908      1.0  0.76572  0.69050  0.14420  1.0000
  H   H909      1.0  0.76410  0.65239  0.16854  1.0000
  C   C1144     1.0  0.71350  0.68830  0.18118  1.0000
  C   C1145     1.0  0.72682  0.55707  0.18158  1.0000
  C   C1146     1.0  0.79902  0.56356  0.36332  1.0000
  C   C1147     1.0  0.71239  0.54907  0.70551  1.0000
  H   H910      1.0  0.78563  0.55154  0.29542  1.0000
  H   H911      1.0  0.76510  0.63096  0.76444  1.0000
  C   C1148     1.0  0.93511  0.66316  0.39763  1.0000
  H   H912      1.0  0.95690  0.67304  0.15327  1.0000
  H   H913      1.0  0.69933  0.69834  0.18379  1.0000
  C   C1149     1.0  0.80103  0.71712  0.97515  1.0000
  C   C1150     1.0  0.80562  0.69582  0.96372  1.0000
  C   C1151     1.0  0.78936  0.68225  0.94954  1.0000
  H   H914      1.0  0.95553  0.67068  0.46042  1.0000
  H   H915      1.0  0.95988  0.70641  0.93637  1.0000
  H   H916      1.0  0.82986  0.65117  0.78256  1.0000
  C   C1152     1.0  0.95383  0.66771  0.73178  1.0000
  C   C1153     1.0  0.67034  0.59883  0.23569  1.0000
  H   H917      1.0  0.91970  0.49886  0.55788  1.0000
  H   H918      1.0  0.97704  0.51653  0.50461  1.0000
  C   C1154     1.0  0.76977  0.53806  0.41742  1.0000
  H   H919      1.0  0.72124  0.56453  0.14638  1.0000
  C   C1155     1.0  0.79877  0.56319  0.41689  1.0000
  H   H920      1.0  0.76208  0.59238  0.78367  1.0000
  H   H921      1.0  0.96400  0.71537  0.50798  1.0000
  H   H922      1.0  0.86202  0.70386  0.84780  1.0000
  H   H923      1.0  0.86429  0.50520  0.21719  1.0000
  C   C1156     1.0  0.96355  0.54970  0.32306  1.0000
  C   C1157     1.0  0.70139  0.53125  0.43457  1.0000
  H   H924      1.0  0.77117  0.58486  0.88781  1.0000
  H   H925      1.0  0.79735  0.73004  0.07309  1.0000
  C   C1158     1.0  0.94927  0.63702  0.45777  1.0000
  H   H926      1.0  0.82180  0.68980  0.96636  1.0000
  H   H927      1.0  0.79295  0.66567  0.94105  1.0000
  C   C1159     1.0  0.76377  0.71136  0.95797  1.0000
  C   C1160     1.0  0.69483  0.51037  0.44499  1.0000
  H   H928      1.0  0.66219  0.59024  0.26662  1.0000
  C   C1161     1.0  0.71987  0.54458  0.26877  1.0000
  C   C1162     1.0  0.79967  0.53946  0.86563  1.0000
  H   H929      1.0  0.88775  0.67974  0.90036  1.0000
  H   H930      1.0  0.75109  0.52573  0.82236  1.0000
  C   C1163     1.0  0.77995  0.72489  0.97405  1.0000
  C   C1164     1.0  0.98080  0.71893  0.50859  1.0000
  C   C1165     1.0  0.76937  0.53891  0.36352  1.0000
  H   H931      1.0  0.93617  0.53090  0.30555  1.0000
  H   H932      1.0  0.95903  0.63314  0.49058  1.0000
  C   C1166     1.0  0.97063  0.56967  0.33788  1.0000
  C   C1167     1.0  0.71280  0.55432  0.22332  1.0000
  H   H933      1.0  0.70417  0.52979  0.84660  1.0000
  H   H934      1.0  0.70515  0.60502  0.87437  1.0000
  C   C1168     1.0  0.74110  0.53734  0.27272  1.0000
  C   C1169     1.0  0.71829  0.61029  0.85012  1.0000
  C   C1170     1.0  0.76845  0.69004  0.94646  1.0000
  S   S161      1.0  0.88119  0.50903  0.38272  1.0000
  C   C1171     1.0  0.69389  0.56201  0.00038  1.0000
  C   C1172     1.0  0.74789  0.54978  0.18493  1.0000
  H   H935      1.0  0.78456  0.54931  0.48546  1.0000
  C   C1173     1.0  0.75022  0.60331  0.79923  1.0000
  H   H936      1.0  0.93379  0.67960  0.38419  1.0000
  C   C1174     1.0  0.86055  0.57107  0.39056  1.0000
  C   C1175     1.0  0.85993  0.57130  0.44410  1.0000
  C   C1176     1.0  0.87535  0.58236  0.47040  1.0000
  C   C1177     1.0  0.89173  0.59281  0.44340  1.0000
  C   C1178     1.0  0.89252  0.59271  0.38954  1.0000
  C   C1179     1.0  0.87667  0.58185  0.36336  1.0000
  P   P38       1.0  0.91481  0.60410  0.35400  1.0000
  C   C1180     1.0  0.92675  0.62555  0.38882  1.0000
  C   C1181     1.0  0.93401  0.58282  0.34254  1.0000
  C   C1182     1.0  0.92706  0.56273  0.32718  1.0000
  C   C1183     1.0  0.94177  0.54630  0.31732  1.0000
  H   H937      1.0  0.95415  0.71207  0.16052  1.0000
  H   H938      1.0  0.96347  0.65351  0.73900  1.0000
  C   C1184     1.0  0.95599  0.58626  0.34693  1.0000
  C   C1185     1.0  0.92489  0.64693  0.37169  1.0000
  S   S162      1.0  0.71078  0.50073  0.57363  1.0000
  C   C1186     1.0  0.86358  0.73320  0.94496  1.0000
  H   H939      1.0  0.94773  0.70736  0.64234  1.0000
  C   C1187     1.0  0.93895  0.62081  0.43228  1.0000
  C   C1188     1.0  0.90504  0.61420  0.29339  1.0000
  C   C1189     1.0  0.88581  0.62594  0.29184  1.0000
  C   C1190     1.0  0.87774  0.63317  0.24487  1.0000
  C   C1191     1.0  0.88881  0.62875  0.19925  1.0000
  C   C1192     1.0  0.90804  0.61726  0.20056  1.0000
  C   C1193     1.0  0.91620  0.61005  0.24741  1.0000
  H   H940      1.0  0.84896  0.56198  0.37011  1.0000
  H   H941      1.0  0.84800  0.56231  0.46556  1.0000
  H   H942      1.0  0.87522  0.58189  0.51200  1.0000
  H   H943      1.0  0.90391  0.60037  0.46507  1.0000
  H   H944      1.0  0.87707  0.58110  0.32188  1.0000
  H   H945      1.0  0.91031  0.55965  0.32261  1.0000
  H   H946      1.0  0.74499  0.56313  0.95517  1.0000
  H   H947      1.0  0.78743  0.51102  0.83225  1.0000
  C   C1194     1.0  0.73420  0.74294  0.03066  1.0000
  H   H948      1.0  0.96197  0.60163  0.35759  1.0000
  H   H949      1.0  0.91585  0.65119  0.33808  1.0000
  C   C1195     1.0  0.72777  0.56302  0.95415  1.0000
  C   C1196     1.0  0.70643  0.53555  0.80751  1.0000
  C   C1197     1.0  0.70019  0.53104  0.71701  1.0000
  H   H950      1.0  0.94085  0.60447  0.44590  1.0000
  H   H951      1.0  0.87695  0.62923  0.32692  1.0000
  H   H952      1.0  0.73102  0.57427  0.73510  1.0000
  H   H953      1.0  0.72311  0.55137  0.39212  1.0000
  C   C1198     1.0  0.78378  0.52714  0.84441  1.0000
  P   P39       1.0  0.91903  0.74304  0.13899  1.0000
  S   S163      1.0  0.66615  0.61433  0.00089  1.0000
  H   H954      1.0  0.93521  0.66388  0.80115  1.0000
  C   C1199     1.0  0.71793  0.53512  0.39904  1.0000
  C   C1200     1.0  0.85625  0.73251  0.05081  1.0000
  S   S164      1.0  0.98518  0.67754  0.54758  1.0000
  H   H955      1.0  0.86265  0.64155  0.73343  1.0000
  C   C1201     1.0  0.72000  0.63211  0.83880  1.0000
  H   H956      1.0  0.81089  0.57278  0.34217  1.0000
  H   H957      1.0  0.73336  0.71358  0.15101  1.0000
  P   P40       1.0  0.73176  0.56755  0.84725  1.0000
  H   H958      1.0  0.81024  0.57236  0.43743  1.0000
  H   H959      1.0  0.82957  0.68249  0.83946  1.0000
  C   C1202     1.0  0.77443  0.56874  0.87540  1.0000
  C   C1203     1.0  0.88099  0.66729  0.76269  1.0000
  C   C1204     1.0  0.75196  0.62518  0.78816  1.0000
  H   H960      1.0  0.68620  0.56670  0.87215  1.0000
  C   C1205     1.0  0.79496  0.56023  0.88129  1.0000
  H   H961      1.0  0.91403  0.73924  0.86072  1.0000
  C   C1206     1.0  0.90385  0.70222  0.12059  1.0000
  C   C1207     1.0  0.97412  0.51425  0.54535  1.0000
  C   C1208     1.0  0.90556  0.68003  0.11656  1.0000
  H   H962      1.0  0.78579  0.50686  0.51502  1.0000
  C   C1209     1.0  0.86241  0.65548  0.75740  1.0000
  H   H963      1.0  0.69630  0.55944  0.22014  1.0000
  H   H964      1.0  0.89201  0.67098  0.10424  1.0000
  C   C1210     1.0  0.92468  0.66952  0.12811  1.0000
  H   H965      1.0  0.75872  0.55161  0.15228  1.0000
  C   C1211     1.0  0.94494  0.69812  0.67740  1.0000
  C   C1212     1.0  0.91559  0.69561  0.86791  1.0000
  H   H966      1.0  0.92598  0.65232  0.12468  1.0000
  C   C1213     1.0  0.94044  0.70346  0.14802  1.0000
  H   H967      1.0  0.75583  0.67945  0.93559  1.0000
  H   H968      1.0  0.98749  0.57233  0.34281  1.0000
  C   C1214     1.0  0.94209  0.68122  0.14404  1.0000
  H   H969      1.0  0.88890  0.71006  0.11118  1.0000
  C   C1215     1.0  0.75840  0.55658  0.85362  1.0000
  C   C1216     1.0  0.73267  0.69690  0.16277  1.0000
  H   H970      1.0  0.75226  0.51905  0.55862  1.0000
  C   C1217     1.0  0.69473  0.56496  0.90769  1.0000
  C   C1218     1.0  0.78427  0.55029  0.44391  1.0000
  H   H971      1.0  0.96952  0.67491  0.65937  1.0000
  P   P41       1.0  0.75021  0.52326  0.32983  1.0000
  H   H972      1.0  0.73825  0.65653  0.79966  1.0000
  H   H973      1.0  0.70819  0.64317  0.85420  1.0000
  H   H974      1.0  0.80720  0.56985  0.89809  1.0000
  C   C1219     1.0  0.91089  0.68509  0.95763  1.0000
  H   H975      1.0  0.81565  0.53296  0.86996  1.0000
  H   H976      1.0  0.91983  0.71865  0.70451  1.0000
  H   H977      1.0  0.68487  0.56128  0.03620  1.0000
  C   C1220     1.0  0.75493  0.53970  0.22997  1.0000
  C   C1221     1.0  0.68319  0.56362  0.95396  1.0000
  H   H978      1.0  0.81395  0.72747  0.98521  1.0000
  H   H979      1.0  0.74755  0.71712  0.95395  1.0000
  H   H980      1.0  0.88983  0.72179  0.21250  1.0000
  C   C1222     1.0  0.73343  0.59569  0.83069  1.0000
  C   C1223     1.0  0.93123  0.69244  0.96810  1.0000
  C   C1224     1.0  0.92546  0.69224  0.75798  1.0000
  H   H981      1.0  0.89527  0.66240  0.74193  1.0000
  P   P42       1.0  0.90504  0.69988  0.80431  1.0000
  C   C1225     1.0  0.76317  0.53558  0.83869  1.0000
  H   H982      1.0  0.97493  0.53689  0.31618  1.0000
  C   C1226     1.0  0.69705  0.52441  0.76799  1.0000
  C   C1227     1.0  0.71618  0.56168  0.00048  1.0000
  H   H983      1.0  0.72447  0.56056  0.03645  1.0000
  H   H984      1.0  0.93714  0.69131  0.00685  1.0000
  C   C1228     1.0  0.77172  0.49710  0.51432  1.0000
  C   C1229     1.0  0.92131  0.71419  0.13600  1.0000
  C   C1230     1.0  0.90324  0.68625  0.90760  1.0000
  C   C1231     1.0  0.93790  0.67376  0.76705  1.0000
  C   C1232     1.0  0.88113  0.68470  0.79572  1.0000
  H   H985      1.0  0.85611  0.73338  0.25380  1.0000
  C   C1233     1.0  0.86228  0.69043  0.82231  1.0000
  H   H986      1.0  0.86649  0.73346  0.90398  1.0000
  C   C1234     1.0  0.71710  0.56457  0.90731  1.0000
  H   H987      1.0  0.77107  0.53330  0.23092  1.0000
  C   C1235     1.0  0.92910  0.70439  0.71279  1.0000
  C   C1236     1.0  0.89741  0.72763  0.79493  1.0000
  C   C1237     1.0  0.93620  0.70258  0.87856  1.0000
  H   H988      1.0  0.94617  0.70946  0.84830  1.0000
  H   H989      1.0  0.96122  0.50925  0.69121  1.0000
  H   H990      1.0  0.69387  0.54432  0.45502  1.0000
  C   C1238     1.0  0.95729  0.67980  0.68691  1.0000
  H   H991      1.0  0.85349  0.73236  0.09189  1.0000
  H   H992      1.0  0.70298  0.73524  0.06135  1.0000
  Fe  Fe83      1.0  0.98516  0.61226  0.66779  1.0000
  C   C1239     1.0  0.94397  0.70099  0.92846  1.0000
  H   H993      1.0  0.67003  0.59272  0.74859  1.0000
  H   H994      1.0  0.66592  0.56423  0.95369  1.0000
  C   C1240     1.0  0.94735  0.65820  0.44057  1.0000
  S   S165      1.0  0.66707  0.65880  0.93160  1.0000
  H   H995      1.0  0.68240  0.50735  0.47360  1.0000
  C   C1241     1.0  0.76234  0.49833  0.31044  1.0000
  C   C1242     1.0  0.72136  0.49709  0.38438  1.0000
  C   C1243     1.0  0.86410  0.74392  0.22642  1.0000
  H   H996      1.0  0.68721  0.51065  0.77673  1.0000
  H   H997      1.0  0.98715  0.54484  0.56300  1.0000
  C   C1244     1.0  0.97516  0.52866  0.63087  1.0000
  H   H998      1.0  0.81705  0.74350  0.14610  1.0000
  C   C1245     1.0  0.98782  0.73935  0.49154  1.0000
  C   C1246     1.0  0.91450  0.74312  0.03242  1.0000
  C   C1247     1.0  0.97971  0.53051  0.57835  1.0000
  H   H999      1.0  0.97905  0.54155  0.65611  1.0000
  C   C1248     1.0  0.72801  0.51807  0.37349  1.0000
  C   C1249     1.0  0.75264  0.50394  0.53919  1.0000
  C   C1250     1.0  0.90391  0.74329  0.82892  1.0000
  H   H1000     1.0  0.90994  0.74363  0.95102  1.0000
  H   H1001     1.0  0.78458  0.49643  0.37305  1.0000
  H   H1002     1.0  0.66186  0.67542  0.15332  1.0000
  Fe  Fe84      1.0  0.87840  0.83302  0.07311  1.0000
  S   S166      1.0  0.89380  0.82716  0.99579  1.0000
  S   S167      1.0  0.88987  0.83092  0.15591  1.0000
  Fe  Fe85      1.0  0.83436  0.84071  0.02560  1.0000
  S   S168      1.0  0.84603  0.83524  0.94487  1.0000
  S   S169      1.0  0.80116  0.84940  0.05415  1.0000
  Fe  Fe86      1.0  0.86473  0.80783  0.98009  1.0000
  S   S170      1.0  0.86731  0.77677  0.93724  1.0000
  Fe  Fe87      1.0  0.87401  0.85506  0.96588  1.0000
  S   S171      1.0  0.88930  0.88068  0.91402  1.0000
  S   S172      1.0  0.85062  0.81169  0.05888  1.0000
  S   S173      1.0  0.86106  0.86252  0.04486  1.0000
  Fe  Fe88      1.0  0.68600  0.83733  0.95372  1.0000
  H   H1003     1.0  0.76725  0.93468  0.96322  1.0000
  S   S174      1.0  0.71956  0.83447  0.92010  1.0000
  H   H1004     1.0  0.92542  0.87397  0.30196  1.0000
  S   S175      1.0  0.97242  0.80603  0.40443  1.0000
  S   S176      1.0  0.98182  0.82546  0.25662  1.0000
  Fe  Fe89      1.0  0.97170  0.83665  0.44849  1.0000
  S   S177      1.0  0.94405  0.84641  0.50027  1.0000
  H   H1005     1.0  0.99170  0.98495  0.58425  1.0000
  C   C1251     1.0  0.66454  0.85216  0.65933  1.0000
  Fe  Fe90      1.0  0.68309  0.97539  0.41612  1.0000
  Fe  Fe91      1.0  0.86485  0.94886  0.64872  1.0000
  S   S178      1.0  0.85680  0.93755  0.57019  1.0000
  S   S179      1.0  0.85315  0.92379  0.70822  1.0000
  Fe  Fe92      1.0  0.83949  0.96896  0.55815  1.0000
  Fe  Fe93      1.0  0.88647  0.95352  0.54230  1.0000
  S   S180      1.0  0.90937  0.94154  0.48097  1.0000
  S   S181      1.0  0.89658  0.96236  0.62131  1.0000
  H   H1006     1.0  0.87793  0.78665  0.77851  1.0000
  C   C1252     1.0  0.79953  0.78756  0.84341  1.0000
  H   H1007     1.0  0.95516  0.89501  0.33399  1.0000
  Fe  Fe94      1.0  0.66288  0.94691  0.33416  1.0000
  C   C1253     1.0  0.93382  0.87261  0.49324  1.0000
  C   C1254     1.0  0.93904  0.88539  0.45046  1.0000
  C   C1255     1.0  0.93125  0.90645  0.44677  1.0000
  C   C1256     1.0  0.91804  0.91481  0.48563  1.0000
  C   C1257     1.0  0.91242  0.90192  0.52793  1.0000
  C   C1258     1.0  0.92042  0.88090  0.53167  1.0000
  H   H1008     1.0  0.94910  0.87911  0.42029  1.0000
  H   H1009     1.0  0.93554  0.91625  0.41375  1.0000
  H   H1010     1.0  0.90215  0.90823  0.55796  1.0000
  H   H1011     1.0  0.91657  0.87113  0.56478  1.0000
  H   H1012     1.0  0.73075  0.89906  0.46838  1.0000
  H   H1013     1.0  0.74977  0.91082  0.54433  1.0000
  C   C1259     1.0  0.87889  0.89238  0.85683  1.0000
  C   C1260     1.0  0.85970  0.88585  0.83605  1.0000
  C   C1261     1.0  0.85217  0.89558  0.79047  1.0000
  C   C1262     1.0  0.86362  0.91205  0.76527  1.0000
  C   C1263     1.0  0.88279  0.91856  0.78603  1.0000
  C   C1264     1.0  0.89029  0.90883  0.83164  1.0000
  H   H1014     1.0  0.85063  0.87339  0.85525  1.0000
  H   H1015     1.0  0.83739  0.89032  0.77465  1.0000
  H   H1016     1.0  0.89176  0.93121  0.76719  1.0000
  H   H1017     1.0  0.90497  0.91419  0.84780  1.0000
  C   C1265     1.0  0.91565  0.82836  0.18247  1.0000
  C   C1266     1.0  0.93425  0.82816  0.15210  1.0000
  C   C1267     1.0  0.95437  0.82710  0.17541  1.0000
  C   C1268     1.0  0.95611  0.82637  0.22917  1.0000
  C   C1269     1.0  0.93748  0.82637  0.25948  1.0000
  C   C1270     1.0  0.91739  0.82729  0.23619  1.0000
  H   H1018     1.0  0.93317  0.82907  0.11078  1.0000
  H   H1019     1.0  0.96870  0.82703  0.15168  1.0000
  H   H1020     1.0  0.93858  0.82580  0.30082  1.0000
  H   H1021     1.0  0.90310  0.82753  0.25995  1.0000
  C   C1271     1.0  0.77865  0.84439  0.01695  1.0000
  C   C1272     1.0  0.75828  0.84910  0.03719  1.0000
  C   C1273     1.0  0.73999  0.84568  0.00832  1.0000
  C   C1274     1.0  0.74200  0.83779  0.95871  1.0000
  C   C1275     1.0  0.76237  0.83290  0.93859  1.0000
  C   C1276     1.0  0.78066  0.83607  0.96770  1.0000
  H   H1022     1.0  0.75663  0.85552  0.07529  1.0000
  H   H1023     1.0  0.72438  0.84953  0.02415  1.0000
  H   H1024     1.0  0.76398  0.82662  0.90036  1.0000
  H   H1025     1.0  0.79626  0.83222  0.95196  1.0000
  H   H1026     1.0  0.88106  0.90098  0.23097  1.0000
  H   H1027     1.0  0.88712  0.91523  0.39164  1.0000
  H   H1028     1.0  0.69130  0.89711  0.47030  1.0000
  H   H1029     1.0  0.85892  0.76676  0.04549  1.0000
  C   C1277     1.0  0.79802  0.74711  0.07849  1.0000
  C   C1278     1.0  0.82163  0.90972  0.46623  1.0000
  H   H1030     1.0  0.81987  0.89233  0.04101  1.0000
  C   C1279     1.0  0.86715  0.87805  0.62072  1.0000
  C   C1280     1.0  0.86486  0.86245  0.58374  1.0000
  C   C1281     1.0  0.87834  0.84449  0.58372  1.0000
  C   C1282     1.0  0.89438  0.84232  0.62008  1.0000
  C   C1283     1.0  0.89728  0.85836  0.65615  1.0000
  C   C1284     1.0  0.88311  0.87592  0.65713  1.0000
  P   P43       1.0  0.91892  0.85653  0.70083  1.0000
  C   C1285     1.0  0.90959  0.84345  0.75932  1.0000
  C   C1286     1.0  0.94062  0.84154  0.67126  1.0000
  C   C1287     1.0  0.95605  0.85194  0.64036  1.0000
  C   C1288     1.0  0.97212  0.84015  0.61548  1.0000
  H   H1031     1.0  0.97644  0.75121  0.47809  1.0000
  C   C1289     1.0  0.95757  0.80741  0.65122  1.0000
  C   C1290     1.0  0.94146  0.81913  0.67620  1.0000
  C   C1291     1.0  0.88789  0.84429  0.77352  1.0000
  C   C1292     1.0  0.88070  0.83413  0.81871  1.0000
  C   C1293     1.0  0.89510  0.82327  0.85035  1.0000
  C   C1294     1.0  0.91678  0.82270  0.83707  1.0000
  C   C1295     1.0  0.92403  0.83280  0.79180  1.0000
  C   C1296     1.0  0.92791  0.88315  0.71439  1.0000
  C   C1297     1.0  0.92842  0.89897  0.67539  1.0000
  C   C1298     1.0  0.93451  0.91978  0.68606  1.0000
  C   C1299     1.0  0.94054  0.92491  0.73556  1.0000
  C   C1300     1.0  0.94048  0.90920  0.77438  1.0000
  C   C1301     1.0  0.93406  0.88843  0.76402  1.0000
  H   H1032     1.0  0.85685  0.89209  0.62074  1.0000
  H   H1033     1.0  0.85281  0.86442  0.55481  1.0000
  H   H1034     1.0  0.87680  0.83253  0.55461  1.0000
  H   H1035     1.0  0.90501  0.82859  0.61834  1.0000
  H   H1036     1.0  0.88466  0.88825  0.68532  1.0000
  H   H1037     1.0  0.95542  0.86903  0.63387  1.0000
  H   H1038     1.0  0.95778  0.91084  0.54980  1.0000
  C   C1302     1.0  0.70335  0.76652  0.02562  1.0000
  H   H1039     1.0  0.95796  0.79012  0.65438  1.0000
  H   H1040     1.0  0.92937  0.81063  0.69825  1.0000
  H   H1041     1.0  0.87651  0.85309  0.75036  1.0000
  H   H1042     1.0  0.86402  0.83508  0.82988  1.0000
  H   H1043     1.0  0.88946  0.81555  0.88551  1.0000
  H   H1044     1.0  0.92797  0.81468  0.86228  1.0000
  H   H1045     1.0  0.94092  0.83250  0.78244  1.0000
  H   H1046     1.0  0.92374  0.89535  0.63687  1.0000
  H   H1047     1.0  0.93416  0.93202  0.65608  1.0000
  H   H1048     1.0  0.94486  0.94115  0.74406  1.0000
  H   H1049     1.0  0.94474  0.91326  0.81304  1.0000
  H   H1050     1.0  0.93345  0.87676  0.79518  1.0000
  C   C1303     1.0  0.71551  0.92630  0.79589  1.0000
  C   C1304     1.0  0.70490  0.90692  0.80199  1.0000
  C   C1305     1.0  0.70283  0.89360  0.76008  1.0000
  C   C1306     1.0  0.71123  0.89969  0.71196  1.0000
  C   C1307     1.0  0.72165  0.91933  0.70522  1.0000
  C   C1308     1.0  0.72397  0.93245  0.74783  1.0000
  P   P44       1.0  0.73476  0.92605  0.64462  1.0000
  C   C1309     1.0  0.73499  0.95474  0.63408  1.0000
  C   C1310     1.0  0.76191  0.91601  0.64705  1.0000
  C   C1311     1.0  0.76715  0.89837  0.67877  1.0000
  C   C1312     1.0  0.78836  0.89144  0.68276  1.0000
  C   C1313     1.0  0.85922  0.75208  0.02450  1.0000
  H   H1051     1.0  0.80863  0.94077  0.72404  1.0000
  C   C1314     1.0  0.66341  0.91354  0.21472  1.0000
  C   C1315     1.0  0.72075  0.96486  0.60007  1.0000
  H   H1052     1.0  0.78112  0.79498  0.02800  1.0000
  C   C1316     1.0  0.73721  0.77771  0.98876  1.0000
  C   C1317     1.0  0.73907  0.98192  0.46934  1.0000
  C   C1318     1.0  0.75021  0.96711  0.65821  1.0000
  C   C1319     1.0  0.72116  0.91472  0.59134  1.0000
  C   C1320     1.0  0.69880  0.91359  0.59191  1.0000
  C   C1321     1.0  0.68813  0.90713  0.54843  1.0000
  C   C1322     1.0  0.69966  0.90162  0.50424  1.0000
  C   C1323     1.0  0.72188  0.90267  0.50329  1.0000
  C   C1324     1.0  0.73262  0.90928  0.54659  1.0000
  H   H1053     1.0  0.71740  0.93646  0.82865  1.0000
  H   H1054     1.0  0.69846  0.90207  0.83933  1.0000
  H   H1055     1.0  0.94910  0.77682  0.29170  1.0000
  H   H1056     1.0  0.70990  0.88886  0.68032  1.0000
  H   H1057     1.0  0.73254  0.94730  0.74435  1.0000
  H   H1058     1.0  0.75497  0.89009  0.70083  1.0000
  H   H1059     1.0  0.79248  0.87811  0.70792  1.0000
  C   C1325     1.0  0.80445  0.90198  0.65505  1.0000
  H   H1060     1.0  0.97134  0.94899  0.48251  1.0000
  C   C1326     1.0  0.85558  0.76421  0.21563  1.0000
  H   H1061     1.0  0.70923  0.95592  0.57925  1.0000
  C   C1327     1.0  0.71261  0.74709  0.04124  1.0000
  H   H1062     1.0  0.78848  0.89043  0.98638  1.0000
  C   C1328     1.0  0.83989  0.91777  0.93460  1.0000
  C   C1329     1.0  0.95926  0.98050  0.56288  1.0000
  H   H1063     1.0  0.68952  0.91849  0.62508  1.0000
  C   C1330     1.0  0.77072  0.77013  0.89029  1.0000
  C   C1331     1.0  0.78066  0.96974  0.50356  1.0000
  C   C1332     1.0  0.88349  0.77025  0.78265  1.0000
  P   P45       1.0  0.98920  0.91896  0.28074  1.0000
  C   C1333     1.0  0.92878  0.77537  0.06752  1.0000
  C   C1334     1.0  0.97968  0.98899  0.55640  1.0000
  H   H1064     1.0  0.68718  0.88852  0.20815  1.0000
  H   H1065     1.0  0.84815  0.85335  0.16275  1.0000
  H   H1066     1.0  0.91921  0.87186  0.20881  1.0000
  C   C1335     1.0  0.76681  0.85686  0.78577  1.0000
  C   C1336     1.0  0.87705  0.75482  0.74838  1.0000
  C   C1337     1.0  0.97575  0.95404  0.22150  1.0000
  C   C1338     1.0  0.84193  0.86334  0.19323  1.0000
  H   H1067     1.0  0.87027  0.86027  0.23754  1.0000
  H   H1068     1.0  0.90300  0.87728  0.38424  1.0000
  H   H1069     1.0  0.97414  0.91029  0.17772  1.0000
  C   C1339     1.0  0.93567  0.88253  0.27520  1.0000
  H   H1070     1.0  0.79035  0.97534  0.74003  1.0000
  C   C1340     1.0  0.85438  0.86725  0.23588  1.0000
  H   H1071     1.0  0.81196  0.86933  0.15633  1.0000
  H   H1072     1.0  0.87196  0.80692  0.34712  1.0000
  H   H1073     1.0  0.90714  0.80896  0.38877  1.0000
  H   H1074     1.0  0.82225  0.87720  0.49433  1.0000
  H   H1075     1.0  0.84415  0.86386  0.42182  1.0000
  C   C1341     1.0  0.93230  0.88115  0.22258  1.0000
  C   C1342     1.0  0.82153  0.87237  0.18960  1.0000
  C   C1343     1.0  0.87865  0.82234  0.35509  1.0000
  C   C1344     1.0  0.89843  0.82345  0.37850  1.0000
  H   H1076     1.0  0.92243  0.84410  0.40671  1.0000
  H   H1077     1.0  0.81221  0.91563  0.49837  1.0000
  H   H1078     1.0  0.70675  0.90997  0.01406  1.0000
  C   C1345     1.0  0.95257  0.89445  0.29312  1.0000
  C   C1346     1.0  0.86770  0.84111  0.34105  1.0000
  C   C1347     1.0  0.90708  0.84331  0.38866  1.0000
  C   C1348     1.0  0.89607  0.86211  0.37531  1.0000
  C   C1349     1.0  0.82737  0.88811  0.46396  1.0000
  C   C1350     1.0  0.83977  0.88063  0.42270  1.0000
  H   H1079     1.0  0.85241  0.83991  0.32287  1.0000
  H   H1080     1.0  0.77110  0.93781  0.48580  1.0000
  C   C1351     1.0  0.87656  0.86117  0.35010  1.0000
  C   C1352     1.0  0.81357  0.88539  0.22866  1.0000
  C   C1353     1.0  0.84640  0.88011  0.27571  1.0000
  C   C1354     1.0  0.84648  0.89478  0.38330  1.0000
  C   C1355     1.0  0.94609  0.89134  0.18765  1.0000
  C   C1356     1.0  0.75462  0.92324  0.95909  1.0000
  C   C1357     1.0  0.79455  0.92497  0.79036  1.0000
  H   H1081     1.0  0.73547  0.93660  0.02049  1.0000
  H   H1082     1.0  0.69007  0.96123  0.68338  1.0000
  P   P46       1.0  0.86285  0.88546  0.33021  1.0000
  H   H1083     1.0  0.81947  0.89956  0.30104  1.0000
  C   C1358     1.0  0.82810  0.92385  0.42706  1.0000
  C   C1359     1.0  0.89688  0.76445  0.82289  1.0000
  C   C1360     1.0  0.84039  0.91644  0.38563  1.0000
  C   C1361     1.0  0.79767  0.94228  0.75651  1.0000
  C   C1362     1.0  0.79755  0.86543  0.85865  1.0000
  C   C1363     1.0  0.78370  0.76755  0.93328  1.0000
  C   C1364     1.0  0.73668  0.92435  0.99173  1.0000
  H   H1084     1.0  0.84523  0.92769  0.35566  1.0000
  C   C1365     1.0  0.82595  0.88932  0.27150  1.0000
  S   S182      1.0  0.86915  0.98418  0.52371  1.0000
  H   H1085     1.0  0.89286  0.78225  0.12997  1.0000
  H   H1086     1.0  0.97755  0.88350  0.49923  1.0000
  H   H1087     1.0  0.79779  0.89251  0.22559  1.0000
  H   H1088     1.0  0.92158  0.95135  0.27693  1.0000
  H   H1089     1.0  0.95811  0.95010  0.32201  1.0000
  H   H1090     1.0  0.71009  0.88117  0.95044  1.0000
  C   C1366     1.0  0.72050  0.90937  0.98818  1.0000
  C   C1367     1.0  0.75643  0.90723  0.92215  1.0000
  C   C1368     1.0  0.88200  0.90589  0.31308  1.0000
  C   C1369     1.0  0.97490  0.94344  0.44417  1.0000
  S   S183      1.0  0.67064  0.98207  0.33616  1.0000
  C   C1370     1.0  0.89111  0.91810  0.35146  1.0000
  H   H1091     1.0  0.95969  0.94933  0.23198  1.0000
  C   C1371     1.0  0.88765  0.91011  0.26149  1.0000
  C   C1372     1.0  0.77405  0.99119  0.50369  1.0000
  H   H1092     1.0  0.74137  0.87882  0.89355  1.0000
  H   H1093     1.0  0.96453  0.74914  0.11773  1.0000
  C   C1373     1.0  0.72229  0.89323  0.95210  1.0000
  C   C1374     1.0  0.90199  0.92636  0.24859  1.0000
  H   H1094     1.0  0.80336  0.91027  0.78362  1.0000
  C   C1375     1.0  0.80314  0.90754  0.92193  1.0000
  H   H1095     1.0  0.82095  0.89702  0.65919  1.0000
  H   H1096     1.0  0.80940  0.86820  0.88733  1.0000
  C   C1376     1.0  0.76623  0.95443  0.48641  1.0000
  C   C1377     1.0  0.80257  0.89851  0.97168  1.0000
  H   H1097     1.0  0.94379  0.88968  0.14684  1.0000
  Fe  Fe95      1.0  0.98845  0.82603  0.34242  1.0000
  H   H1098     1.0  0.69047  0.86697  0.30199  1.0000
  H   H1099     1.0  0.81183  0.92755  0.60154  1.0000
  H   H1100     1.0  0.80577  0.79503  0.80861  1.0000
  C   C1378     1.0  0.81263  0.78480  0.88581  1.0000
  H   H1101     1.0  0.75463  0.85334  0.75841  1.0000
  C   C1379     1.0  0.77815  0.92614  0.61833  1.0000
  H   H1102     1.0  0.81048  0.83436  0.84177  1.0000
  C   C1380     1.0  0.74019  0.89205  0.91944  1.0000
  C   C1381     1.0  0.96317  0.90307  0.20534  1.0000
  H   H1103     1.0  0.92362  0.78038  0.93818  1.0000
  C   C1382     1.0  0.78820  0.76155  0.04412  1.0000
  H   H1104     1.0  0.93560  0.80072  0.01297  1.0000
  H   H1105     1.0  0.81824  0.78258  0.16151  1.0000
  C   C1383     1.0  0.90532  0.93442  0.33835  1.0000
  H   H1106     1.0  0.85310  0.90929  0.00784  1.0000
  C   C1384     1.0  0.78153  0.88069  0.84803  1.0000
  C   C1385     1.0  0.92335  0.77305  0.97614  1.0000
  C   C1386     1.0  0.82203  0.91708  0.90351  1.0000
  C   C1387     1.0  0.82042  0.89944  0.00278  1.0000
  C   C1388     1.0  0.83909  0.90900  0.98420  1.0000
  P   P47       1.0  0.78016  0.90563  0.88153  1.0000
  H   H1107     1.0  0.66498  0.79500  0.25595  1.0000
  S   S184      1.0  0.80654  0.96108  0.52450  1.0000
  C   C1389     1.0  0.96636  0.90493  0.25826  1.0000
  C   C1390     1.0  0.77043  0.94655  0.84197  1.0000
  H   H1108     1.0  0.85457  0.92471  0.91981  1.0000
  H   H1109     1.0  0.82333  0.92371  0.86504  1.0000
  C   C1391     1.0  0.66415  0.94011  0.70273  1.0000
  C   C1392     1.0  0.78738  0.96178  0.76560  1.0000
  C   C1393     1.0  0.77855  0.78033  0.84573  1.0000
  S   S185      1.0  0.67444  0.83669  0.03595  1.0000
  H   H1110     1.0  0.84104  0.76947  0.23483  1.0000
  C   C1394     1.0  0.78128  0.92709  0.83405  1.0000
  C   C1395     1.0  0.79822  0.84610  0.83272  1.0000
  C   C1396     1.0  0.79932  0.91923  0.62266  1.0000
  H   H1111     1.0  0.73479  0.94844  0.45672  1.0000
  H   H1112     1.0  0.69492  0.87839  0.76522  1.0000
  H   H1113     1.0  0.76837  0.78238  0.81288  1.0000
  C   C1397     1.0  0.78278  0.84175  0.79655  1.0000
  C   C1398     1.0  0.78883  0.78354  0.05355  1.0000
  H   H1114     1.0  0.67542  0.87633  0.12322  1.0000
  S   S186      1.0  0.98528  0.85684  0.38440  1.0000
  H   H1115     1.0  0.76007  0.94873  0.87504  1.0000
  H   H1116     1.0  0.80002  0.80800  0.10280  1.0000
  C   C1399     1.0  0.86598  0.77784  0.18054  1.0000
  C   C1400     1.0  0.94333  0.98581  0.52796  1.0000
  H   H1117     1.0  0.93342  0.78477  0.09985  1.0000
  H   H1118     1.0  0.74649  0.78999  0.96937  1.0000
  C   C1401     1.0  0.86290  0.75251  0.97144  1.0000
  C   C1402     1.0  0.92997  0.78453  0.01825  1.0000
  C   C1403     1.0  0.80976  0.77661  0.12917  1.0000
  C   C1404     1.0  0.97303  0.77129  0.23330  1.0000
  C   C1405     1.0  0.77346  0.96381  0.80777  1.0000
  S   S187      1.0  0.67727  0.94023  0.41186  1.0000
  H   H1119     1.0  0.95034  0.96278  0.40942  1.0000
  H   H1120     1.0  0.67130  0.97885  0.61059  1.0000
  S   S188      1.0  0.84706  0.98019  0.63758  1.0000
  C   C1406     1.0  0.79952  0.79099  0.09597  1.0000
  C   C1407     1.0  0.95238  0.77034  0.25409  1.0000
  C   C1408     1.0  0.89362  0.75087  0.16692  1.0000
  C   C1409     1.0  0.74649  0.75795  0.00281  1.0000
  H   H1121     1.0  0.76172  0.95959  0.68318  1.0000
  H   H1122     1.0  0.76550  0.97898  0.81474  1.0000
  C   C1410     1.0  0.67404  0.95654  0.67440  1.0000
  C   C1411     1.0  0.71569  0.78189  0.99989  1.0000
  C   C1412     1.0  0.76637  0.87641  0.81082  1.0000
  C   C1413     1.0  0.97286  0.81792  0.62074  1.0000
  H   H1123     1.0  0.82898  0.79016  0.88398  1.0000
  H   H1124     1.0  0.75391  0.88801  0.80223  1.0000
  C   C1414     1.0  0.99095  0.92814  0.43610  1.0000
  H   H1125     1.0  0.70857  0.79709  0.98849  1.0000
  S   S189      1.0  0.71307  0.99071  0.44949  1.0000
  S   S190      1.0  0.67323  0.92198  0.27472  1.0000
  H   H1126     1.0  0.81550  0.77219  0.96234  1.0000
  H   H1127     1.0  0.66551  0.84025  0.73759  1.0000
  H   H1128     1.0  0.82367  0.94064  0.42914  1.0000
  C   C1415     1.0  0.97365  0.90578  0.56093  1.0000
  C   C1416     1.0  0.80484  0.77469  0.93047  1.0000
  H   H1129     1.0  0.90141  0.77625  0.85030  1.0000
  H   H1130     1.0  0.86655  0.75925  0.71732  1.0000
  C   C1417     1.0  0.96755  0.94396  0.35328  1.0000
  H   H1131     1.0  0.75461  0.76412  0.89107  1.0000
  H   H1132     1.0  0.85965  0.79374  0.17257  1.0000
  C   C1418     1.0  0.91571  0.75234  0.98327  1.0000
  H   H1133     1.0  0.78299  0.82658  0.77733  1.0000
  C   C1419     1.0  0.88491  0.77122  0.15622  1.0000
  C   C1420     1.0  0.67374  0.89634  0.19006  1.0000
  H   H1134     1.0  0.68663  0.76974  0.03365  1.0000
  C   C1421     1.0  0.93599  0.76156  0.22600  1.0000
  C   C1422     1.0  0.74560  0.96041  0.46965  1.0000
  C   C1423     1.0  0.96316  0.95131  0.40278  1.0000
  C   C1424     1.0  0.96099  0.75484  0.15593  1.0000
  H   H1135     1.0  0.77460  0.93964  0.59314  1.0000
  H   H1136     1.0  0.91192  0.94398  0.36827  1.0000
  H   H1137     1.0  0.95555  0.97019  0.59557  1.0000
  C   C1425     1.0  0.91074  0.93857  0.28698  1.0000
  H   H1138     1.0  0.90625  0.92949  0.20871  1.0000
  H   H1139     1.0  0.92010  0.76126  0.24274  1.0000
  C   C1426     1.0  0.67500  0.88177  0.36675  1.0000
  H   H1140     1.0  0.96492  0.98147  0.17742  1.0000
  C   C1427     1.0  0.98469  0.89037  0.53248  1.0000
  H   H1141     1.0  0.92737  0.97961  0.53350  1.0000
  C   C1428     1.0  0.94019  0.75368  0.17668  1.0000
  H   H1142     1.0  0.98349  0.84814  0.59026  1.0000
  C   C1429     1.0  0.92127  0.75445  0.07495  1.0000
  C   C1430     1.0  0.67564  0.86898  0.32341  1.0000
  P   P48       1.0  0.77434  0.75252  0.98876  1.0000
  C   C1431     1.0  0.80901  0.75467  0.12050  1.0000
  H   H1143     1.0  0.67085  0.90711  0.54828  1.0000
  C   C1432     1.0  0.97733  0.76359  0.18423  1.0000
  H   H1144     1.0  0.67214  0.83807  0.64350  1.0000
  H   H1145     1.0  0.68929  0.88976  0.37826  1.0000
  H   H1146     1.0  0.98496  0.80880  0.60002  1.0000
  C   C1433     1.0  0.72163  0.98692  0.59105  1.0000
  Fe  Fe96      1.0  0.87847  0.99305  0.60387  1.0000
  C   C1434     1.0  0.66710  0.88938  0.14178  1.0000
  H   H1147     1.0  0.67298  0.93176  0.73242  1.0000
  C   C1435     1.0  0.98364  0.92851  0.34483  1.0000
  C   C1436     1.0  0.66346  0.96653  0.63359  1.0000
  H   H1148     1.0  0.98563  0.77839  0.25495  1.0000
  H   H1149     1.0  0.99331  0.76470  0.16802  1.0000
  C   C1437     1.0  0.97862  0.97225  0.19030  1.0000
  H   H1150     1.0  0.97481  0.92690  0.62493  1.0000
  C   C1438     1.0  0.98326  0.91480  0.60317  1.0000
  C   C1439     1.0  0.99339  0.94193  0.23841  1.0000
  S   S191      1.0  0.66352  0.81207  0.92951  1.0000
  S   S192      1.0  0.66419  0.86432  0.92987  1.0000
  C   C1440     1.0  0.75124  0.98913  0.64856  1.0000
  H   H1151     1.0  0.99463  0.87362  0.25091  1.0000
  H   H1152     1.0  0.71102  0.99451  0.56356  1.0000
