data_image0
_chemical_formula_structural       HFeSC2SCFeSCSFeS2FeS2FeSFeS3CH2C2HCHC6H4C2HC7H6CHSCH6CH5CHCHC7FeHC2HCH2C2HCHSHCHC2H3CHCHC4HC2H3C3HC3HCH3PCH4C13SH3C3HCSH5C3HCH2CFeC8H3C4HFeHSH2CH4CPC3HC2HC3HC4SCH2CHC2HC3H2CH2CH4C4HCH2CFeC4PC6H2PC3HC2H4CH3SCFeSC3HC2SCFeSHCHC2SHC2HCSPCHSC2SFeSFeSCFeCHC7H4SHSCHCSC2H2C2HSHC6H5CH2C5HC3H6C2FeC4H2CH3CH2CFeCH2CHCH5C4HCHC3H3CH4C4HC3H3CHC4HC3PC9HC4HC3H7SPHCHC2H3SCPH2FeCH2CHCH2SH3C2HCHC3FeS2FeS2FeSFeS5FeHFeSCS2FeSC6H3C6H4C6H4SCH2C5HCH7CHFeS2CPC5HC8HSC3H2CHC3H5C2H2PHCH2PC2PC2SCHC4HCH3CH5CH2C3PC6HC11H3CH2CH13C2H2CHC4HC5HC3HCHC3H6CH3C3HCH2CH2C5HC5HC2HCHCHC6HCHC4H2CHCH2CHFeC3PCHCH3CHC3H6C2H2CHCH5CH4C2HC6HC2PH2SH2FeS2FeS2FeSFeS3HSC2H2FeSC7H4C6H4CHCH3CH2C4HC2HCH3C3HC3H2CHCFeCFeCH3C4HSPCHC2HC6HCH4C2HCSCH2C3H3C3HCH2CFeC3PCHCHC6HCH4C3SCSHC3HC2HCHCH2CFeCHC5HC2HCHC3HC4HC2H3CH4CHC2HCHC3H7CHC3H2CH3SHPH2SHCH4C2SCSHSH3SHSHC2HC3H6C4HCHCPH3CHC7H4PC4HC3HC3H2CHCH3C3H3CHSC2HC3HC3H3FeCHC2FeCSCHSC2FeH2CHC3HC6HC2HCH2C4SH2FeS2FeS2FeSFeS3H2FeHSHCHSHSC4H5CH3C2H2C2SH2C6H4C6H4C2HC3PCSHCH3C3HC7HCFeH3CHC2HCH2CHCHCHC2PC3HCHC2H5C2HC2HCHC2H2C2H2CFeC2HC3HCH2C3H2CSCHC5H2CH3CH2CSH3CHC3H2CHC2H4FeHC8HCHC2HFeCSFeSHPS2FeS2FeS2FeSFeS3C2H2SCH2PC2HC2H2C3H2C6H4CH4C6H6CHCH3C3HCHC3HC5H2SCHCHCHC2H2CH3C3H2CHC4H3C5HCHCFeCPC9HC3HC2H11C4HCH2C2H2C7PC10H11CHC7HC5HC4H2CH2PH3C8HCH3CH3C2HCH2PC7HCHCHCH3C2H2C2H2C2H3CH2C2HCHC5H3CH2PC3H3CH4C2H2CH2FeSFeSHCSH2SHCFeS2CHS2C2SCHC8H4C3H2C7H4C2S2CHC4HCH2CFeHCSCH3C2HCSCH2FeC2H3CSFeC2H4C2SCHCHC2HC3HCHCH2C3HC2PC4H4CPHC2H3CH6CHC5H2CHC4HFeHC4H5CH2C2SC4HC3H3CPH2CHC3HC2HC3H3CHSH3CFeCHCFeCS2C2SFeS2FeS2FeSFeS3HCFeCSFeHS2C6H4FeC5H4CHC6H4PCH2C3H2CH3CSH2CH2CH2CHCH3CHC3HC6PC8H2C8H17CH2C4PC3HCSC6H7FeC2HC6H2C4HC3HC8H2CHC2PHP2C2H3CH3CFeHC3HCSH2C2HC4SCH4C4H2CH2CH2C3H2CHCHC2HCH4CHCH4C2H3CHFeSHSFeSFeSHFeSHFeS2FeSFeS3HSHCFeSCSC2HCFeC6H5CHC6H4SHCH2C3H2C2PHC5H4C7PC9H2C7H10CSH7C6PC2HCHC3PH3C6H10FeHC3HCH2C3HC3H4CHCSHCH2C4HC2SHCH2CH2SHC4H2C2H2C7HC2HC5HC2HC2HCHCHSHCH2C4HC2HC2HCHC3SC3H2SH2C2SCSHC9H4C2HCFeCH2C7H5C6H2CHC2H6PCHCH2C10HC6HC2H9CH2CH2SHC3H4CHCHCH2CH2C4FeHCPC2HCSH8C5SH2CHC2FeH2CH2C3SHFeSH2FeS2FeS2FeSFeS3FeSFeS2H2S2HCHCHC2HC6H6CHC8H4C3H3CHC4HCHC2H2C2HCPH2C2H2CH2CH3SH2SH4FeHCHCSC2PC14H2C2H10C3FeCHC2SH2SHC8H2CH2CHCH3C3H2C3HC2FeCPC3FeCH2C2H2C2H2CH2C4HC2HC2HCH2CSH3C5HC4HC3HCPC2HCHC3
_chemical_formula_sum              "H1152 Fe96 S192 C1440 P48"
_cell_length_a       36.1895
_cell_length_b       36.148
_cell_length_c       80.285
_cell_angle_alpha    89.0873
_cell_angle_beta     89.9014
_cell_angle_gamma    90.0417

_space_group_name_H-M_alt    "P 1"
_space_group_IT_number       1

loop_
  _space_group_symop_operation_xyz
  'x, y, z'

loop_
  _atom_site_type_symbol
  _atom_site_label
  _atom_site_symmetry_multiplicity
  _atom_site_fract_x
  _atom_site_fract_y
  _atom_site_fract_z
  _atom_site_occupancy
  H   H1        1.0  0.46799  0.21132  0.12138  1.0000
  Fe  Fe1       1.0  0.42572  0.27338  0.09230  1.0000
  S   S1        1.0  0.37604  0.24639  0.10570  1.0000
  C   C1        1.0  0.06570  0.40425  0.15145  1.0000
  C   C2        1.0  0.47412  0.21083  0.13461  1.0000
  S   S2        1.0  0.42637  0.32615  0.07711  1.0000
  C   C3        1.0  0.22699  0.09196  0.27925  1.0000
  Fe  Fe2       1.0  0.31657  0.21331  0.28248  1.0000
  S   S3        1.0  0.31177  0.24927  0.25928  1.0000
  C   C4        1.0  0.25404  0.39951  0.26740  1.0000
  S   S4        1.0  0.36119  0.17075  0.28532  1.0000
  Fe  Fe3       1.0  0.18748  0.30390  0.15790  1.0000
  S   S5        1.0  0.19692  0.31669  0.18493  1.0000
  S   S6        1.0  0.23488  0.32177  0.14022  1.0000
  Fe  Fe4       1.0  0.10341  0.28448  0.16472  1.0000
  S   S7        1.0  0.10938  0.29518  0.19196  1.0000
  S   S8        1.0  0.04643  0.27029  0.15334  1.0000
  Fe  Fe5       1.0  0.14203  0.34524  0.18405  1.0000
  S   S9        1.0  0.12583  0.39975  0.19526  1.0000
  Fe  Fe6       1.0  0.16374  0.26533  0.19022  1.0000
  S   S10       1.0  0.17882  0.22177  0.20971  1.0000
  S   S11       1.0  0.13402  0.33630  0.15678  1.0000
  S   S12       1.0  0.15636  0.25057  0.16320  1.0000
  C   C5        1.0  0.15767  0.43635  0.19359  1.0000
  H   H2        1.0  0.04927  0.34735  0.15472  1.0000
  H   H3        1.0  0.17483  0.14317  0.30559  1.0000
  C   C6        1.0  0.46907  0.30807  0.30739  1.0000
  C   C7        1.0  0.19498  0.43002  0.19014  1.0000
  H   H4        1.0  0.02324  0.46624  0.12539  1.0000
  C   C8        1.0  0.05538  0.47967  0.17750  1.0000
  H   H5        1.0  0.20454  0.40211  0.18821  1.0000
  C   C9        1.0  0.27311  0.24298  0.24634  1.0000
  C   C10       1.0  0.24793  0.21431  0.24931  1.0000
  C   C11       1.0  0.21864  0.20862  0.23819  1.0000
  C   C12       1.0  0.21414  0.23164  0.22411  1.0000
  C   C13       1.0  0.23847  0.26126  0.22155  1.0000
  C   C14       1.0  0.26791  0.26685  0.23261  1.0000
  H   H6        1.0  0.25129  0.19612  0.26000  1.0000
  H   H7        1.0  0.19935  0.18642  0.24056  1.0000
  H   H8        1.0  0.23495  0.27957  0.21096  1.0000
  H   H9        1.0  0.28676  0.28961  0.23047  1.0000
  C   C15       1.0  0.46574  0.19044  0.31092  1.0000
  C   C16       1.0  0.37046  0.41096  0.12982  1.0000
  H   H10       1.0  0.30708  0.21577  0.99209  1.0000
  C   C17       1.0  0.46860  0.32192  0.99713  1.0000
  C   C18       1.0  0.33688  0.26786  0.11519  1.0000
  C   C19       1.0  0.31217  0.24608  0.12478  1.0000
  C   C20       1.0  0.28121  0.26199  0.13274  1.0000
  C   C21       1.0  0.27424  0.29998  0.13107  1.0000
  C   C22       1.0  0.29910  0.32177  0.12158  1.0000
  C   C23       1.0  0.33013  0.30591  0.11370  1.0000
  H   H11       1.0  0.31692  0.21664  0.12601  1.0000
  H   H12       1.0  0.26242  0.24478  0.13993  1.0000
  H   H13       1.0  0.29410  0.35115  0.12014  1.0000
  H   H14       1.0  0.34852  0.32306  0.10629  1.0000
  H   H15       1.0  0.00043  0.36904  0.23292  1.0000
  H   H16       1.0  0.05297  0.36712  0.18505  1.0000
  C   C24       1.0  0.37277  0.21255  0.02213  1.0000
  H   H17       1.0  0.01462  0.29145  0.18585  1.0000
  S   S13       1.0  0.46273  0.24396  0.07389  1.0000
  C   C25       1.0  0.46370  0.17763  0.29461  1.0000
  H   H18       1.0  0.43871  0.18134  0.28749  1.0000
  H   H19       1.0  0.11679  0.47736  0.19912  1.0000
  H   H20       1.0  0.33060  0.47094  0.25631  1.0000
  H   H21       1.0  0.47428  0.23126  0.21151  1.0000
  H   H22       1.0  0.42629  0.23824  0.02055  1.0000
  H   H23       1.0  0.28494  0.44889  0.10306  1.0000
  C   C26       1.0  0.38584  0.39548  0.11556  1.0000
  H   H24       1.0  0.37075  0.39549  0.14149  1.0000
  H   H25       1.0  0.39861  0.36846  0.11613  1.0000
  H   H26       1.0  0.32121  0.32658  0.30885  1.0000
  H   H27       1.0  0.40395  0.30365  0.12779  1.0000
  H   H28       1.0  0.39693  0.40284  0.08939  1.0000
  C   C27       1.0  0.35472  0.44632  0.12900  1.0000
  H   H29       1.0  0.26399  0.04003  0.31045  1.0000
  C   C28       1.0  0.02938  0.44046  0.13184  1.0000
  H   H30       1.0  0.28446  0.12494  0.26111  1.0000
  C   C29       1.0  0.17950  0.12546  0.26409  1.0000
  C   C30       1.0  0.15018  0.11097  0.20931  1.0000
  C   C31       1.0  0.36942  0.24961  0.21720  1.0000
  C   C32       1.0  0.48963  0.48810  0.06942  1.0000
  C   C33       1.0  0.45740  0.04682  0.30628  1.0000
  C   C34       1.0  0.00709  0.40955  0.12894  1.0000
  C   C35       1.0  0.48546  0.45821  0.99518  1.0000
  Fe  Fe7       1.0  0.47627  0.33967  0.09232  1.0000
  H   H31       1.0  0.41648  0.29658  0.29613  1.0000
  C   C36       1.0  0.01461  0.37585  0.13701  1.0000
  C   C37       1.0  0.03001  0.36607  0.20971  1.0000
  H   H32       1.0  0.32716  0.44429  0.28470  1.0000
  C   C38       1.0  0.31498  0.15162  0.24144  1.0000
  H   H33       1.0  0.21987  0.44791  0.29060  1.0000
  H   H34       1.0  0.19630  0.47409  0.26173  1.0000
  C   C39       1.0  0.20282  0.47591  0.15030  1.0000
  C   C40       1.0  0.20855  0.30489  0.31437  1.0000
  H   H35       1.0  0.02720  0.48244  0.20107  1.0000
  C   C41       1.0  0.20964  0.10099  0.26409  1.0000
  H   H36       1.0  0.24907  0.26606  0.28069  1.0000
  S   S14       1.0  0.46171  0.31302  0.03137  1.0000
  H   H37       1.0  0.28011  0.32670  0.27957  1.0000
  C   C42       1.0  0.30541  0.33360  0.18049  1.0000
  H   H38       1.0  0.42185  0.18652  0.14132  1.0000
  C   C43       1.0  0.43811  0.31703  0.29778  1.0000
  C   C44       1.0  0.28235  0.36266  0.18514  1.0000
  H   H39       1.0  0.46169  0.36166  0.16602  1.0000
  H   H40       1.0  0.33254  0.16657  0.24992  1.0000
  H   H41       1.0  0.25070  0.07372  0.27958  1.0000
  C   C45       1.0  0.18427  0.13119  0.29405  1.0000
  H   H42       1.0  0.08784  0.40207  0.16050  1.0000
  C   C46       1.0  0.43581  0.33403  0.14559  1.0000
  H   H43       1.0  0.39770  0.07441  0.27569  1.0000
  C   C47       1.0  0.24376  0.03535  0.24940  1.0000
  C   C48       1.0  0.39493  0.24710  0.99802  1.0000
  C   C49       1.0  0.25148  0.34806  0.30120  1.0000
  C   C50       1.0  0.38995  0.23360  0.23018  1.0000
  H   H44       1.0  0.19348  0.13765  0.22263  1.0000
  C   C51       1.0  0.33930  0.20626  0.01401  1.0000
  C   C52       1.0  0.44812  0.19668  0.14588  1.0000
  H   H45       1.0  0.47106  0.28050  0.31282  1.0000
  H   H46       1.0  0.17676  0.02148  0.23378  1.0000
  H   H47       1.0  0.36749  0.46393  0.08748  1.0000
  C   C53       1.0  0.46338  0.37804  0.29234  1.0000
  C   C54       1.0  0.28071  0.01848  0.30511  1.0000
  C   C55       1.0  0.30749  0.43536  0.27547  1.0000
  H   H48       1.0  0.99902  0.39919  0.17247  1.0000
  C   C56       1.0  0.30940  0.45075  0.25938  1.0000
  C   C57       1.0  0.28381  0.44041  0.24728  1.0000
  C   C58       1.0  0.25615  0.41479  0.25130  1.0000
  H   H49       1.0  0.42100  0.33279  0.18739  1.0000
  C   C59       1.0  0.22514  0.01201  0.26081  1.0000
  H   H50       1.0  0.33445  0.16670  0.15408  1.0000
  H   H51       1.0  0.99782  0.35161  0.13467  1.0000
  H   H52       1.0  0.22793  0.09979  0.30577  1.0000
  P   P1        1.0  0.27508  0.39219  0.30081  1.0000
  C   C60       1.0  0.28450  0.37683  0.20121  1.0000
  H   H53       1.0  0.31183  0.37334  0.22499  1.0000
  H   H54       1.0  0.23175  0.38044  0.27033  1.0000
  H   H55       1.0  0.26231  0.37361  0.17631  1.0000
  H   H56       1.0  0.41071  0.35915  0.28315  1.0000
  C   C61       1.0  0.99896  0.39243  0.18562  1.0000
  C   C62       1.0  0.24236  0.28674  0.28983  1.0000
  C   C63       1.0  0.31028  0.36245  0.21252  1.0000
  C   C64       1.0  0.05936  0.43774  0.14290  1.0000
  C   C65       1.0  0.13773  0.46221  0.14587  1.0000
  C   C66       1.0  0.14805  0.42830  0.13883  1.0000
  C   C67       1.0  0.18519  0.41772  0.13825  1.0000
  C   C68       1.0  0.21257  0.44143  0.14407  1.0000
  C   C69       1.0  0.44505  0.23663  0.21312  1.0000
  C   C70       1.0  0.48984  0.46482  0.09792  1.0000
  C   C71       1.0  0.33380  0.99915  0.28927  1.0000
  C   C72       1.0  0.42391  0.05405  0.29806  1.0000
  C   C73       1.0  0.16562  0.48609  0.15136  1.0000
  S   S15       1.0  0.27354  0.17774  0.29499  1.0000
  H   H57       1.0  0.28519  0.45243  0.23482  1.0000
  H   H58       1.0  0.26600  0.39879  0.20490  1.0000
  H   H59       1.0  0.31768  0.19059  0.02028  1.0000
  C   C74       1.0  0.31255  0.02792  0.29607  1.0000
  C   C75       1.0  0.22392  0.44970  0.30389  1.0000
  C   C76       1.0  0.31985  0.38644  0.31061  1.0000
  H   H60       1.0  0.44347  0.21477  0.23829  1.0000
  C   C77       1.0  0.24860  0.42582  0.31222  1.0000
  S   S16       1.0  0.47366  0.28910  0.10846  1.0000
  H   H61       1.0  0.29952  0.14167  0.20000  1.0000
  H   H62       1.0  0.12770  0.40981  0.13371  1.0000
  H   H63       1.0  0.19278  0.39102  0.13330  1.0000
  H   H64       1.0  0.24130  0.43313  0.14361  1.0000
  H   H65       1.0  0.34284  0.45787  0.14014  1.0000
  C   C78       1.0  0.21692  0.27848  0.30244  1.0000
  C   C79       1.0  0.48641  0.45189  0.06370  1.0000
  C   C80       1.0  0.42377  0.06842  0.28180  1.0000
  H   H66       1.0  0.46119  0.40509  0.28643  1.0000
  C   C81       1.0  0.43502  0.35215  0.29041  1.0000
  H   H67       1.0  0.45329  0.34704  0.13619  1.0000
  H   H68       1.0  0.04544  0.45208  0.17531  1.0000
  C   C82       1.0  0.33087  0.24382  0.17799  1.0000
  Fe  Fe8       1.0  0.46699  0.29837  0.05961  1.0000
  C   C83       1.0  0.42775  0.22724  0.22818  1.0000
  C   C84       1.0  0.33532  0.35110  0.31302  1.0000
  C   C85       1.0  0.28010  0.40916  0.27957  1.0000
  C   C86       1.0  0.21981  0.45994  0.18925  1.0000
  C   C87       1.0  0.04382  0.37331  0.14828  1.0000
  C   C88       1.0  0.16973  0.04666  0.22706  1.0000
  C   C89       1.0  0.44051  0.34221  0.16240  1.0000
  C   C90       1.0  0.40794  0.30966  0.14084  1.0000
  H   H69       1.0  0.37710  0.20194  0.03469  1.0000
  H   H70       1.0  0.43844  0.25913  0.18848  1.0000
  H   H71       1.0  0.14407  0.15984  0.27888  1.0000
  C   C91       1.0  0.00006  0.27337  0.16133  1.0000
  C   C92       1.0  0.35428  0.46633  0.11386  1.0000
  C   C93       1.0  0.47697  0.29918  0.01106  1.0000
  C   C94       1.0  0.27127  0.21266  0.17735  1.0000
  H   H72       1.0  0.35364  0.32318  0.21676  1.0000
  Fe  Fe9       1.0  0.37320  0.19770  0.30958  1.0000
  H   H73       1.0  0.05393  0.35232  0.21508  1.0000
  S   S17       1.0  0.32651  0.07490  0.29231  1.0000
  H   H74       1.0  0.45431  0.34776  0.99905  1.0000
  H   H75       1.0  0.23612  0.40689  0.24195  1.0000
  C   C95       1.0  0.32320  0.18738  0.16229  1.0000
  H   H76       1.0  0.41660  0.26331  0.99215  1.0000
  H   H77       1.0  0.16559  0.13314  0.25265  1.0000
  H   H78       1.0  0.30283  0.32251  0.16805  1.0000
  H   H79       1.0  0.36236  0.27597  0.14867  1.0000
  C   C96       1.0  0.21411  0.10670  0.29417  1.0000
  P   P2        1.0  0.22623  0.08128  0.24489  1.0000
  C   C97       1.0  0.18909  0.07968  0.22983  1.0000
  C   C98       1.0  0.25975  0.32130  0.28922  1.0000
  C   C99       1.0  0.16703  0.14061  0.27901  1.0000
  H   H80       1.0  0.21727  0.44277  0.10103  1.0000
  C   C100      1.0  0.14089  0.04587  0.21547  1.0000
  C   C101      1.0  0.33883  0.41735  0.31667  1.0000
  H   H81       1.0  0.38966  0.38088  0.99455  1.0000
  C   C102      1.0  0.17903  0.11181  0.22083  1.0000
  C   C103      1.0  0.26337  0.10997  0.23685  1.0000
  C   C104      1.0  0.28732  0.12823  0.24775  1.0000
  H   H82       1.0  0.34015  0.17524  0.21940  1.0000
  C   C105      1.0  0.31921  0.15663  0.22425  1.0000
  C   C106      1.0  0.29627  0.13772  0.21332  1.0000
  C   C107      1.0  0.26874  0.11413  0.21957  1.0000
  C   C108      1.0  0.22591  0.33946  0.31387  1.0000
  S   S18       1.0  0.33251  0.24333  0.30558  1.0000
  C   C109      1.0  0.38483  0.41488  0.10041  1.0000
  H   H83       1.0  0.24867  0.45508  0.18655  1.0000
  H   H84       1.0  0.45690  0.08775  0.26116  1.0000
  C   C110      1.0  0.27574  0.02238  0.24147  1.0000
  H   H85       1.0  0.10875  0.07744  0.19765  1.0000
  C   C111      1.0  0.48624  0.42873  0.09218  1.0000
  C   C112      1.0  0.49080  0.05395  0.29789  1.0000
  H   H86       1.0  0.39777  0.04907  0.30431  1.0000
  C   C113      1.0  0.48019  0.44070  0.01076  1.0000
  C   C114      1.0  0.33347  0.22061  0.99794  1.0000
  C   C115      1.0  0.29363  0.24147  0.18289  1.0000
  H   H87       1.0  0.35839  0.00593  0.28220  1.0000
  H   H88       1.0  0.25142  0.09956  0.21086  1.0000
  C   C116      1.0  0.34570  0.21606  0.16795  1.0000
  H   H89       1.0  0.37443  0.21697  0.16423  1.0000
  H   H90       1.0  0.28158  0.26184  0.19097  1.0000
  C   C117      1.0  0.99994  0.37561  0.21972  1.0000
  H   H91       1.0  0.43615  0.18401  0.17162  1.0000
  H   H92       1.0  0.24240  0.21145  0.18106  1.0000
  H   H93       1.0  0.37644  0.22599  0.24181  1.0000
  H   H94       1.0  0.33999  0.25369  0.21890  1.0000
  C   C118      1.0  0.26771  0.47248  0.10584  1.0000
  C   C119      1.0  0.42462  0.25280  0.20013  1.0000
  C   C120      1.0  0.45707  0.07582  0.27362  1.0000
  C   C121      1.0  0.36860  0.44987  0.09947  1.0000
  H   H95       1.0  0.26834  0.16393  0.16235  1.0000
  C   C122      1.0  0.28595  0.18580  0.16692  1.0000
  H   H96       1.0  0.38643  0.44454  0.01320  1.0000
  H   H97       1.0  0.44068  0.42203  0.02918  1.0000
  C   C123      1.0  0.20400  0.47611  0.31274  1.0000
  Fe  Fe10      1.0  0.31947  0.13607  0.29962  1.0000
  C   C124      1.0  0.02948  0.37448  0.19269  1.0000
  C   C125      1.0  0.41751  0.32574  0.17443  1.0000
  C   C126      1.0  0.38997  0.30052  0.16974  1.0000
  C   C127      1.0  0.38467  0.29346  0.15279  1.0000
  P   P3        1.0  0.35990  0.28070  0.18549  1.0000
  C   C128      1.0  0.38675  0.26021  0.20222  1.0000
  C   C129      1.0  0.33092  0.31853  0.19188  1.0000
  C   C130      1.0  0.33375  0.33365  0.20784  1.0000
  C   C131      1.0  0.13110  0.07801  0.20661  1.0000
  C   C132      1.0  0.36899  0.34685  0.32137  1.0000
  C   C133      1.0  0.14534  0.47255  0.19604  1.0000
  H   H98       1.0  0.29049  0.03964  0.23255  1.0000
  H   H99       1.0  0.14268  0.13608  0.20251  1.0000
  P   P4        1.0  0.08970  0.47667  0.14617  1.0000
  C   C134      1.0  0.40056  0.23292  0.01413  1.0000
  C   C135      1.0  0.44455  0.43548  0.01713  1.0000
  C   C136      1.0  0.41396  0.44801  0.00808  1.0000
  H   H100      1.0  0.12611  0.02031  0.21334  1.0000
  C   C137      1.0  0.45615  0.19548  0.16291  1.0000
  C   C138      1.0  0.22931  0.46895  0.10459  1.0000
  H   H101      1.0  0.32701  0.44468  0.31546  1.0000
  H   H102      1.0  0.48191  0.39427  0.07059  1.0000
  H   H103      1.0  0.20435  0.25128  0.30320  1.0000
  H   H104      1.0  0.20032  0.02128  0.26703  1.0000
  C   C139      1.0  0.49053  0.06864  0.28167  1.0000
  H   H105      1.0  0.11274  0.47275  0.11159  1.0000
  H   H106      1.0  0.49109  0.46989  0.11115  1.0000
  H   H107      1.0  0.48509  0.44688  0.05048  1.0000
  S   S19       1.0  0.42839  0.21332  0.32006  1.0000
  C   C140      1.0  0.48468  0.42217  0.07508  1.0000
  Fe  Fe11      1.0  0.29306  0.20538  0.31855  1.0000
  S   S20       1.0  0.48374  0.39186  0.10643  1.0000
  C   C141      1.0  0.49006  0.20880  0.16867  1.0000
  C   C142      1.0  0.36123  0.24133  0.98980  1.0000
  C   C143      1.0  0.41892  0.46474  0.99241  1.0000
  H   H108      1.0  0.36622  0.31723  0.99569  1.0000
  C   C144      1.0  0.18035  0.38645  0.54352  1.0000
  C   C145      1.0  0.22768  0.34720  0.49027  1.0000
  S   S21       1.0  0.32999  0.41593  0.56285  1.0000
  C   C146      1.0  0.32933  0.37953  0.64910  1.0000
  Fe  Fe12      1.0  0.30525  0.43422  0.58679  1.0000
  S   S22       1.0  0.27102  0.39506  0.60350  1.0000
  H   H109      1.0  0.23219  0.47263  0.54375  1.0000
  C   C147      1.0  0.24094  0.35228  0.50644  1.0000
  H   H110      1.0  0.31884  0.40649  0.44759  1.0000
  C   C148      1.0  0.48853  0.41722  0.46086  1.0000
  C   C149      1.0  0.43913  0.36117  0.62382  1.0000
  S   S23       1.0  0.31798  0.23254  0.62897  1.0000
  H   H111      1.0  0.37828  0.48517  0.46496  1.0000
  C   C150      1.0  0.43982  0.28793  0.59808  1.0000
  C   C151      1.0  0.38788  0.37786  0.32710  1.0000
  H   H112      1.0  0.19344  0.43341  0.48265  1.0000
  C   C152      1.0  0.45877  0.21074  0.63848  1.0000
  S   S24       1.0  0.25442  0.22917  0.33792  1.0000
  P   P5        1.0  0.45628  0.02883  0.32741  1.0000
  C   C153      1.0  0.28042  0.43817  0.53493  1.0000
  H   H113      1.0  0.41668  0.34340  0.61999  1.0000
  S   S25       1.0  0.34224  0.42389  0.39413  1.0000
  C   C154      1.0  0.21570  0.39768  0.54864  1.0000
  C   C155      1.0  0.41864  0.08062  0.36895  1.0000
  S   S26       1.0  0.32594  0.46257  0.35746  1.0000
  Fe  Fe13      1.0  0.29361  0.43361  0.37739  1.0000
  S   S27       1.0  0.25194  0.38830  0.37165  1.0000
  Fe  Fe14      1.0  0.37341  0.45665  0.37486  1.0000
  S   S28       1.0  0.42755  0.43854  0.36414  1.0000
  C   C156      1.0  0.15541  0.40116  0.57067  1.0000
  Fe  Fe15      1.0  0.38036  0.44395  0.57180  1.0000
  C   C157      1.0  0.45963  0.43834  0.38042  1.0000
  H   H114      1.0  0.13225  0.40243  0.57920  1.0000
  C   C158      1.0  0.20850  0.47882  0.32997  1.0000
  C   C159      1.0  0.25697  0.27399  0.34680  1.0000
  C   C160      1.0  0.22701  0.28515  0.35653  1.0000
  C   C161      1.0  0.22653  0.31999  0.36392  1.0000
  C   C162      1.0  0.25624  0.34448  0.36200  1.0000
  C   C163      1.0  0.28682  0.33356  0.35240  1.0000
  C   C164      1.0  0.28714  0.29830  0.34477  1.0000
  H   H115      1.0  0.20368  0.26675  0.35828  1.0000
  H   H116      1.0  0.20278  0.32800  0.37122  1.0000
  H   H117      1.0  0.30988  0.35229  0.35072  1.0000
  H   H118      1.0  0.31060  0.28989  0.33741  1.0000
  S   S29       1.0  0.35757  0.45865  0.59673  1.0000
  H   H119      1.0  0.21555  0.44220  0.51128  1.0000
  S   S30       1.0  0.43246  0.41457  0.56556  1.0000
  C   C165      1.0  0.46922  0.44035  0.57303  1.0000
  H   H120      1.0  0.20100  0.37276  0.46901  1.0000
  C   C166      1.0  0.23252  0.45477  0.33836  1.0000
  S   S31       1.0  0.28029  0.48240  0.50854  1.0000
  C   C167      1.0  0.45591  0.32305  0.57326  1.0000
  C   C168      1.0  0.42916  0.30652  0.58349  1.0000
  H   H121      1.0  0.35118  0.34971  0.43897  1.0000
  H   H122      1.0  0.21985  0.35887  0.32362  1.0000
  C   C169      1.0  0.48078  0.38358  0.64500  1.0000
  C   C170      1.0  0.47713  0.28620  0.60252  1.0000
  H   H123      1.0  0.24941  0.20043  0.37390  1.0000
  S   S32       1.0  0.28509  0.48797  0.57482  1.0000
  H   H124      1.0  0.47531  0.31753  0.34375  1.0000
  C   C171      1.0  0.28559  0.35070  0.61112  1.0000
  C   C172      1.0  0.26277  0.33090  0.62237  1.0000
  C   C173      1.0  0.27299  0.29550  0.62856  1.0000
  C   C174      1.0  0.30589  0.27899  0.62328  1.0000
  C   C175      1.0  0.32849  0.29866  0.61189  1.0000
  C   C176      1.0  0.31878  0.33444  0.60605  1.0000
  H   H125      1.0  0.23692  0.34299  0.62630  1.0000
  H   H126      1.0  0.25488  0.28053  0.63701  1.0000
  H   H127      1.0  0.35352  0.28592  0.60743  1.0000
  H   H128      1.0  0.33657  0.34910  0.59733  1.0000
  H   H129      1.0  0.29882  0.29666  0.57428  1.0000
  C   C177      1.0  0.21972  0.41574  0.50544  1.0000
  H   H130      1.0  0.25289  0.32890  0.51302  1.0000
  H   H131      1.0  0.18951  0.29803  0.32439  1.0000
  C   C178      1.0  0.37274  0.41307  0.32481  1.0000
  C   C179      1.0  0.31368  0.34450  0.53116  1.0000
  C   C180      1.0  0.33736  0.31608  0.53644  1.0000
  C   C181      1.0  0.33206  0.29886  0.55197  1.0000
  C   C182      1.0  0.30293  0.30987  0.56218  1.0000
  H   H132      1.0  0.46535  0.18251  0.63520  1.0000
  C   C183      1.0  0.32005  0.44065  0.52852  1.0000
  C   C184      1.0  0.47420  0.44736  0.40954  1.0000
  C   C185      1.0  0.38104  0.33850  0.65514  1.0000
  H   H133      1.0  0.31798  0.35725  0.51902  1.0000
  H   H134      1.0  0.35993  0.30752  0.52852  1.0000
  H   H135      1.0  0.35047  0.27697  0.55613  1.0000
  H   H136      1.0  0.40260  0.13761  0.37184  1.0000
  H   H137      1.0  0.33441  0.41645  0.52435  1.0000
  H   H138      1.0  0.42012  0.45488  0.39901  1.0000
  C   C186      1.0  0.47025  0.43372  0.47428  1.0000
  C   C187      1.0  0.43929  0.06375  0.34126  1.0000
  Fe  Fe16      1.0  0.32864  0.47911  0.40538  1.0000
  C   C188      1.0  0.25157  0.23563  0.39533  1.0000
  C   C189      1.0  0.46287  0.47347  0.58133  1.0000
  C   C190      1.0  0.27920  0.33825  0.55694  1.0000
  C   C191      1.0  0.42297  0.22434  0.63617  1.0000
  H   H139      1.0  0.48493  0.48753  0.52352  1.0000
  H   H140      1.0  0.38022  0.31938  0.32352  1.0000
  C   C192      1.0  0.26643  0.21846  0.38137  1.0000
  H   H141      1.0  0.22309  0.23047  0.39882  1.0000
  H   H142      1.0  0.40176  0.20684  0.63088  1.0000
  H   H143      1.0  0.44752  0.33807  0.56212  1.0000
  C   C193      1.0  0.20666  0.41066  0.48926  1.0000
  H   H144      1.0  0.45869  0.27474  0.36678  1.0000
  H   H145      1.0  0.40014  0.30876  0.58028  1.0000
  C   C194      1.0  0.15032  0.38844  0.55448  1.0000
  Fe  Fe17      1.0  0.31320  0.47138  0.54941  1.0000
  C   C195      1.0  0.42989  0.39652  0.44981  1.0000
  H   H146      1.0  0.26331  0.42796  0.43236  1.0000
  H   H147      1.0  0.43500  0.48327  0.58327  1.0000
  C   C196      1.0  0.45204  0.35987  0.64030  1.0000
  H   H148      1.0  0.41255  0.07290  0.38175  1.0000
  C   C197      1.0  0.44849  0.44746  0.39653  1.0000
  H   H149      1.0  0.43610  0.02595  0.36238  1.0000
  H   H150      1.0  0.31414  0.21241  0.36565  1.0000
  H   H151      1.0  0.41418  0.38409  0.43987  1.0000
  H   H152      1.0  0.23569  0.45651  0.35177  1.0000
  H   H153      1.0  0.38692  0.43693  0.32978  1.0000
  C   C198      1.0  0.42109  0.12695  0.34690  1.0000
  C   C199      1.0  0.33950  0.47765  0.52721  1.0000
  C   C200      1.0  0.41310  0.11702  0.36340  1.0000
  C   C201      1.0  0.47721  0.26936  0.65008  1.0000
  H   H154      1.0  0.37766  0.02134  0.33714  1.0000
  C   C202      1.0  0.23818  0.38705  0.51396  1.0000
  H   H155      1.0  0.23987  0.39263  0.40837  1.0000
  C   C203      1.0  0.45423  0.38631  0.61230  1.0000
  C   C204      1.0  0.32418  0.48445  0.45401  1.0000
  C   C205      1.0  0.26339  0.38244  0.41542  1.0000
  H   H156      1.0  0.26668  0.48526  0.44733  1.0000
  H   H157      1.0  0.12311  0.37990  0.55044  1.0000
  H   H158      1.0  0.24761  0.41777  0.56934  1.0000
  C   C206      1.0  0.28455  0.35618  0.54142  1.0000
  H   H159      1.0  0.45424  0.36091  0.37321  1.0000
  H   H160      1.0  0.38623  0.27014  0.63894  1.0000
  H   H161      1.0  0.27181  0.33637  0.39945  1.0000
  H   H162      1.0  0.41688  0.15519  0.34265  1.0000
  C   C207      1.0  0.22049  0.41015  0.56495  1.0000
  C   C208      1.0  0.26084  0.47335  0.53994  1.0000
  C   C209      1.0  0.27663  0.40239  0.42892  1.0000
  C   C210      1.0  0.48424  0.27074  0.36000  1.0000
  H   H163      1.0  0.41911  0.27534  0.60610  1.0000
  C   C211      1.0  0.30799  0.39019  0.43750  1.0000
  C   C212      1.0  0.46829  0.39916  0.44857  1.0000
  C   C213      1.0  0.19055  0.41186  0.57591  1.0000
  H   H164      1.0  0.25726  0.34628  0.56528  1.0000
  H   H165      1.0  0.17578  0.37604  0.53114  1.0000
  H   H166      1.0  0.35613  0.48286  0.49412  1.0000
  C   C214      1.0  0.41410  0.26029  0.64096  1.0000
  H   H167      1.0  0.19492  0.42103  0.58856  1.0000
  C   C215      1.0  0.43183  0.42910  0.47593  1.0000
  C   C216      1.0  0.44098  0.28282  0.64825  1.0000
  C   C217      1.0  0.27353  0.48349  0.47418  1.0000
  C   C218      1.0  0.30302  0.22530  0.37670  1.0000
  H   H168      1.0  0.23027  0.32049  0.48445  1.0000
  C   C219      1.0  0.27324  0.25988  0.40457  1.0000
  C   C220      1.0  0.30969  0.26779  0.39965  1.0000
  C   C221      1.0  0.32474  0.24959  0.38588  1.0000
  P   P6        1.0  0.33801  0.29778  0.41209  1.0000
  C   C222      1.0  0.31273  0.33754  0.41916  1.0000
  C   C223      1.0  0.35463  0.26923  0.42909  1.0000
  C   C224      1.0  0.33711  0.26970  0.44470  1.0000
  C   C225      1.0  0.34944  0.24650  0.45765  1.0000
  C   C226      1.0  0.37892  0.22231  0.45501  1.0000
  C   C227      1.0  0.39591  0.22108  0.43938  1.0000
  C   C228      1.0  0.38363  0.24423  0.42642  1.0000
  C   C229      1.0  0.29838  0.48271  0.48769  1.0000
  C   C230      1.0  0.43430  0.10054  0.33583  1.0000
  H   H169      1.0  0.27056  0.40963  0.33636  1.0000
  C   C231      1.0  0.28154  0.35031  0.41045  1.0000
  C   C232      1.0  0.37533  0.31708  0.39985  1.0000
  C   C233      1.0  0.36835  0.33009  0.38361  1.0000
  C   C234      1.0  0.39683  0.34551  0.37402  1.0000
  H   H170      1.0  0.46647  0.34101  0.40231  1.0000
  C   C235      1.0  0.43923  0.33703  0.39703  1.0000
  C   C236      1.0  0.41075  0.32155  0.40669  1.0000
  C   C237      1.0  0.41174  0.41085  0.46365  1.0000
  H   H171      1.0  0.26140  0.27276  0.41543  1.0000
  H   H172      1.0  0.35307  0.25427  0.38206  1.0000
  H   H173      1.0  0.31362  0.28757  0.44684  1.0000
  H   H174      1.0  0.33586  0.24700  0.46968  1.0000
  H   H175      1.0  0.38830  0.20418  0.46502  1.0000
  H   H176      1.0  0.41839  0.20191  0.43726  1.0000
  H   H177      1.0  0.39655  0.24247  0.41426  1.0000
  S   S33       1.0  0.34271  0.48457  0.43333  1.0000
  P   P7        1.0  0.25517  0.39443  0.53486  1.0000
  H   H178      1.0  0.46557  0.45520  0.42190  1.0000
  C   C238      1.0  0.21095  0.37652  0.48160  1.0000
  H   H179      1.0  0.34072  0.32886  0.37845  1.0000
  C   C239      1.0  0.32619  0.35804  0.43258  1.0000
  C   C240      1.0  0.43235  0.34850  0.38063  1.0000
  H   H180      1.0  0.39104  0.35626  0.36165  1.0000
  H   H181      1.0  0.41632  0.31373  0.41949  1.0000
  H   H182      1.0  0.48227  0.38871  0.43768  1.0000
  S   S34       1.0  0.27700  0.48723  0.38966  1.0000
  C   C241      1.0  0.48597  0.23335  0.64530  1.0000
  P   P8        1.0  0.43000  0.32893  0.65508  1.0000
  H   H183      1.0  0.48476  0.27276  0.61413  1.0000
  H   H184      1.0  0.38190  0.40909  0.46455  1.0000
  Fe  Fe18      1.0  0.31176  0.19849  0.65335  1.0000
  C   C242      1.0  0.43190  0.05410  0.35794  1.0000
  H   H185      1.0  0.45870  0.42139  0.51648  1.0000
  H   H186      1.0  0.41399  0.37467  0.33357  1.0000
  C   C243      1.0  0.48190  0.41067  0.61724  1.0000
  H   H187      1.0  0.41707  0.44055  0.48639  1.0000
  C   C244      1.0  0.33633  0.48299  0.48415  1.0000
  H   H188      1.0  0.36748  0.47917  0.52252  1.0000
  H   H189      1.0  0.48142  0.37995  0.53877  1.0000
  S   S35       1.0  0.33500  0.16087  0.32432  1.0000
  H   H190      1.0  0.24415  0.48391  0.47663  1.0000
  H   H191      1.0  0.44402  0.38734  0.59962  1.0000
  H   H192      1.0  0.31857  0.40465  0.64335  1.0000
  C   C245      1.0  0.25239  0.42828  0.32956  1.0000
  C   C246      1.0  0.28624  0.48418  0.45748  1.0000
  H   H193      1.0  0.44045  0.10911  0.32313  1.0000
  C   C247      1.0  0.34896  0.48424  0.46749  1.0000
  H   H194      1.0  0.38524  0.39254  0.64291  1.0000
  C   C248      1.0  0.36719  0.37206  0.64858  1.0000
  C   C249      1.0  0.48770  0.41391  0.51670  1.0000
  C   C250      1.0  0.38717  0.99523  0.33232  1.0000
  Fe  Fe19      1.0  0.21589  0.30026  0.83395  1.0000
  S   S36       1.0  0.22980  0.32286  0.80848  1.0000
  S   S37       1.0  0.25755  0.31428  0.85467  1.0000
  Fe  Fe20      1.0  0.13674  0.27629  0.82195  1.0000
  S   S38       1.0  0.14803  0.29538  0.79564  1.0000
  S   S39       1.0  0.07984  0.25201  0.82927  1.0000
  Fe  Fe21      1.0  0.20468  0.27051  0.79867  1.0000
  S   S40       1.0  0.24154  0.23745  0.78109  1.0000
  Fe  Fe22      1.0  0.17210  0.34533  0.80792  1.0000
  S   S41       1.0  0.15003  0.40144  0.80054  1.0000
  S   S42       1.0  0.19221  0.24684  0.82433  1.0000
  S   S43       1.0  0.15937  0.32713  0.83403  1.0000
  S   S44       1.0  0.32650  0.14230  0.69539  1.0000
  S   S45       1.0  0.31627  0.22538  0.67818  1.0000
  Fe  Fe23      1.0  0.36251  0.18586  0.68354  1.0000
  H   H195      1.0  0.39533  0.37688  0.94113  1.0000
  Fe  Fe24      1.0  0.27959  0.17980  0.68790  1.0000
  S   S46       1.0  0.23082  0.19698  0.70418  1.0000
  C   C251      1.0  0.32905  0.27203  0.71295  1.0000
  S   S47       1.0  0.44053  0.30324  0.92301  1.0000
  S   S48       1.0  0.44099  0.40742  0.91477  1.0000
  Fe  Fe25      1.0  0.45260  0.27797  0.89819  1.0000
  S   S49       1.0  0.41062  0.24699  0.88215  1.0000
  C   C252      1.0  0.39329  0.26771  0.74999  1.0000
  C   C253      1.0  0.45409  0.18627  0.68593  1.0000
  C   C254      1.0  0.44953  0.15533  0.67595  1.0000
  C   C255      1.0  0.25139  0.07220  0.69681  1.0000
  C   C256      1.0  0.03421  0.26866  0.82461  1.0000
  C   C257      1.0  0.02796  0.30311  0.81691  1.0000
  H   H196      1.0  0.43017  0.07504  0.68821  1.0000
  H   H197      1.0  0.05126  0.32057  0.81371  1.0000
  H   H198      1.0  0.24194  0.06967  0.68408  1.0000
  C   C258      1.0  0.30045  0.29514  0.86174  1.0000
  C   C259      1.0  0.31164  0.25918  0.85797  1.0000
  C   C260      1.0  0.34516  0.24482  0.86439  1.0000
  C   C261      1.0  0.36827  0.26628  0.87452  1.0000
  C   C262      1.0  0.35732  0.30242  0.87814  1.0000
  C   C263      1.0  0.32359  0.31660  0.87188  1.0000
  H   H199      1.0  0.29392  0.24210  0.85048  1.0000
  H   H200      1.0  0.35311  0.21678  0.86158  1.0000
  H   H201      1.0  0.37460  0.31927  0.88596  1.0000
  H   H202      1.0  0.31527  0.34439  0.87500  1.0000
  C   C264      1.0  0.23866  0.22895  0.75941  1.0000
  C   C265      1.0  0.26770  0.20969  0.75176  1.0000
  C   C266      1.0  0.26603  0.20047  0.73479  1.0000
  C   C267      1.0  0.23492  0.20989  0.72533  1.0000
  C   C268      1.0  0.20614  0.22980  0.73288  1.0000
  C   C269      1.0  0.20819  0.23973  0.74979  1.0000
  H   H203      1.0  0.29147  0.20145  0.75907  1.0000
  H   H204      1.0  0.28841  0.18528  0.72913  1.0000
  H   H205      1.0  0.18214  0.23750  0.72561  1.0000
  H   H206      1.0  0.18591  0.25497  0.75548  1.0000
  S   S50       1.0  0.27194  0.15390  0.66251  1.0000
  C   C270      1.0  0.41217  0.10717  0.72699  1.0000
  H   H207      1.0  0.11900  0.30018  0.70765  1.0000
  H   H208      1.0  0.37172  0.31311  0.94201  1.0000
  C   C271      1.0  0.29467  0.28944  0.71387  1.0000
  C   C272      1.0  0.22241  0.48111  0.84192  1.0000
  C   C273      1.0  0.18063  0.43904  0.80085  1.0000
  C   C274      1.0  0.21872  0.43415  0.79897  1.0000
  C   C275      1.0  0.23580  0.09870  0.70717  1.0000
  H   H209      1.0  0.23010  0.40664  0.79849  1.0000
  C   C276      1.0  0.30519  0.35414  0.65658  1.0000
  H   H210      1.0  0.45187  0.30414  0.79541  1.0000
  H   H211      1.0  0.39765  0.26342  0.73681  1.0000
  H   H212      1.0  0.42568  0.36864  0.85962  1.0000
  H   H213      1.0  0.25619  0.30500  0.74178  1.0000
  H   H214      1.0  0.04220  0.26702  0.70079  1.0000
  H   H215      1.0  0.29392  0.31807  0.97091  1.0000
  H   H216      1.0  0.41337  0.40493  0.83370  1.0000
  C   C277      1.0  0.32262  0.34727  0.70494  1.0000
  H   H217      1.0  0.22478  0.42595  0.66030  1.0000
  Fe  Fe26      1.0  0.46900  0.35285  0.91217  1.0000
  S   S51       1.0  0.34135  0.05817  0.66598  1.0000
  S   S52       1.0  0.36037  0.16118  0.65821  1.0000
  C   C278      1.0  0.10052  0.40875  0.84226  1.0000
  P   P9        1.0  0.05987  0.24516  0.76127  1.0000
  C   C279      1.0  0.09449  0.21787  0.77198  1.0000
  C   C280      1.0  0.05524  0.23119  0.73992  1.0000
  C   C281      1.0  0.05625  0.19352  0.73597  1.0000
  C   C282      1.0  0.00329  0.24662  0.82881  1.0000
  C   C283      1.0  0.04951  0.25762  0.72717  1.0000
  H   H218      1.0  0.25391  0.48208  0.67184  1.0000
  C   C284      1.0  0.33059  0.01695  0.74789  1.0000
  C   C285      1.0  0.09365  0.21462  0.78940  1.0000
  C   C286      1.0  0.12176  0.19582  0.79793  1.0000
  C   C287      1.0  0.15125  0.18061  0.78915  1.0000
  C   C288      1.0  0.15246  0.18388  0.77180  1.0000
  C   C289      1.0  0.12440  0.20273  0.76323  1.0000
  C   C290      1.0  0.07705  0.29190  0.76256  1.0000
  C   C291      1.0  0.38428  0.21977  0.92444  1.0000
  H   H219      1.0  0.47109  0.32930  0.97025  1.0000
  S   S53       1.0  0.47758  0.32909  0.88700  1.0000
  C   C292      1.0  0.07884  0.35129  0.77634  1.0000
  C   C293      1.0  0.06383  0.31586  0.77481  1.0000
  C   C294      1.0  0.46340  0.30995  0.70320  1.0000
  H   H220      1.0  0.27014  0.01869  0.66241  1.0000
  H   H221      1.0  0.14426  0.34748  0.74605  1.0000
  C   C295      1.0  0.36405  0.23647  0.93711  1.0000
  H   H222      1.0  0.45187  0.12229  0.70805  1.0000
  C   C296      1.0  0.38860  0.05310  0.70486  1.0000
  C   C297      1.0  0.48437  0.30697  0.81753  1.0000
  C   C298      1.0  0.40061  0.41296  0.84529  1.0000
  H   H223      1.0  0.19874  0.24928  0.67562  1.0000
  H   H224      1.0  0.26837  0.99548  0.77853  1.0000
  H   H225      1.0  0.17360  0.16707  0.79583  1.0000
  H   H226      1.0  0.17586  0.17285  0.76506  1.0000
  H   H227      1.0  0.12678  0.20629  0.74986  1.0000
  C   C299      1.0  0.44544  0.37107  0.68301  1.0000
  C   C300      1.0  0.07797  0.46384  0.82808  1.0000
  H   H228      1.0  0.30000  0.30139  0.66904  1.0000
  H   H229      1.0  0.06962  0.36911  0.78627  1.0000
  P   P10       1.0  0.35309  0.26213  0.96944  1.0000
  H   H230      1.0  0.20823  0.41077  0.72810  1.0000
  C   C301      1.0  0.24233  0.33044  0.74485  1.0000
  H   H231      1.0  0.37277  0.21254  0.75446  1.0000
  H   H232      1.0  0.30451  0.20302  0.95802  1.0000
  P   P11       1.0  0.01281  0.46755  0.80975  1.0000
  C   C302      1.0  0.24690  0.39201  0.69895  1.0000
  C   C303      1.0  0.23289  0.39299  0.68264  1.0000
  P   P12       1.0  0.24633  0.34941  0.71108  1.0000
  C   C304      1.0  0.21086  0.31931  0.70305  1.0000
  C   C305      1.0  0.29108  0.32722  0.70990  1.0000
  S   S54       1.0  0.41529  0.20709  0.69514  1.0000
  C   C306      1.0  0.17435  0.32205  0.70887  1.0000
  H   H233      1.0  0.43751  0.39488  0.67545  1.0000
  C   C307      1.0  0.15568  0.27228  0.69086  1.0000
  C   C308      1.0  0.19171  0.27007  0.68469  1.0000
  C   C309      1.0  0.21921  0.29344  0.69074  1.0000
  C   C310      1.0  0.23475  0.35764  0.73264  1.0000
  H   H234      1.0  0.08147  0.49297  0.82499  1.0000
  C   C311      1.0  0.10449  0.44618  0.83801  1.0000
  H   H235      1.0  0.22036  0.36874  0.67728  1.0000
  H   H236      1.0  0.27075  0.27322  0.71740  1.0000
  H   H237      1.0  0.16704  0.34229  0.71806  1.0000
  C   C312      1.0  0.39416  0.38306  0.96777  1.0000
  H   H238      1.0  0.46215  0.19814  0.94611  1.0000
  H   H239      1.0  0.12820  0.46159  0.84232  1.0000
  H   H240      1.0  0.24700  0.29066  0.68598  1.0000
  H   H241      1.0  0.36912  0.08727  0.74321  1.0000
  H   H242      1.0  0.11845  0.28469  0.74337  1.0000
  C   C313      1.0  0.40119  0.30196  0.75700  1.0000
  H   H243      1.0  0.38084  0.34508  0.69968  1.0000
  H   H244      1.0  0.33139  0.24267  0.71579  1.0000
  C   C314      1.0  0.37416  0.24400  0.77704  1.0000
  C   C315      1.0  0.38235  0.27823  0.78428  1.0000
  C   C316      1.0  0.39573  0.30724  0.77407  1.0000
  P   P13       1.0  0.37555  0.28501  0.80641  1.0000
  C   C317      1.0  0.35080  0.24549  0.81479  1.0000
  C   C318      1.0  0.41906  0.29059  0.81732  1.0000
  C   C319      1.0  0.42045  0.28575  0.83471  1.0000
  C   C320      1.0  0.45155  0.30080  0.80878  1.0000
  C   C321      1.0  0.37167  0.05567  0.72054  1.0000
  C   C322      1.0  0.44492  0.33545  0.67627  1.0000
  H   H245      1.0  0.42272  0.14287  0.67466  1.0000
  C   C323      1.0  0.31237  0.24318  0.81279  1.0000
  C   C324      1.0  0.29325  0.21157  0.81816  1.0000
  C   C325      1.0  0.31220  0.18225  0.82579  1.0000
  C   C326      1.0  0.35051  0.18421  0.82774  1.0000
  C   C327      1.0  0.36986  0.21551  0.82209  1.0000
  C   C328      1.0  0.34737  0.32547  0.81010  1.0000
  C   C329      1.0  0.32876  0.34380  0.79700  1.0000
  C   C330      1.0  0.30781  0.37551  0.80009  1.0000
  C   C331      1.0  0.30411  0.38837  0.81634  1.0000
  C   C332      1.0  0.32137  0.36950  0.82947  1.0000
  C   C333      1.0  0.34291  0.33834  0.82639  1.0000
  H   H246      1.0  0.41130  0.32447  0.74918  1.0000
  H   H247      1.0  0.12127  0.39498  0.84983  1.0000
  H   H248      1.0  0.38638  0.27809  0.70638  1.0000
  C   C334      1.0  0.28013  0.04976  0.70268  1.0000
  H   H249      1.0  0.40166  0.33403  0.77932  1.0000
  H   H250      1.0  0.39623  0.27709  0.84166  1.0000
  C   C335      1.0  0.14693  0.29843  0.70288  1.0000
  H   H251      1.0  0.45385  0.28787  0.85681  1.0000
  H   H252      1.0  0.29708  0.26553  0.80686  1.0000
  H   H253      1.0  0.26362  0.20993  0.81642  1.0000
  H   H254      1.0  0.29713  0.15811  0.83021  1.0000
  H   H255      1.0  0.36518  0.16153  0.83372  1.0000
  H   H256      1.0  0.39958  0.21614  0.82343  1.0000
  H   H257      1.0  0.32958  0.33342  0.78446  1.0000
  H   H258      1.0  0.29349  0.38950  0.78997  1.0000
  H   H259      1.0  0.28699  0.41225  0.81888  1.0000
  H   H260      1.0  0.31736  0.37831  0.84216  1.0000
  H   H261      1.0  0.35510  0.32395  0.83690  1.0000
  H   H262      1.0  0.33750  0.24850  0.93405  1.0000
  H   H263      1.0  0.37148  0.45877  0.83422  1.0000
  C   C336      1.0  0.43438  0.20806  0.94368  1.0000
  C   C337      1.0  0.28243  0.47317  0.85506  1.0000
  H   H264      1.0  0.42072  0.12886  0.73529  1.0000
  H   H265      1.0  0.23768  0.12425  0.73115  1.0000
  C   C338      1.0  0.26609  0.45623  0.69559  1.0000
  H   H266      1.0  0.47310  0.34948  0.72251  1.0000
  C   C339      1.0  0.35999  0.45386  0.86064  1.0000
  C   C340      1.0  0.36672  0.43276  0.87517  1.0000
  C   C341      1.0  0.39057  0.40238  0.87477  1.0000
  C   C342      1.0  0.40746  0.39241  0.85985  1.0000
  H   H267      1.0  0.04295  0.30681  0.78359  1.0000
  C   C343      1.0  0.26385  0.42381  0.70530  1.0000
  C   C344      1.0  0.27429  0.43551  0.85776  1.0000
  C   C345      1.0  0.24102  0.42064  0.85207  1.0000
  C   C346      1.0  0.21532  0.44331  0.84395  1.0000
  C   C347      1.0  0.24442  0.29104  0.96294  1.0000
  H   H268      1.0  0.32097  0.37627  0.70158  1.0000
  C   C348      1.0  0.22849  0.25819  0.95744  1.0000
  C   C349      1.0  0.27809  0.08059  0.72921  1.0000
  C   C350      1.0  0.00012  0.42038  0.78299  1.0000
  H   H269      1.0  0.06667  0.36001  0.84010  1.0000
  C   C351      1.0  0.48512  0.30287  0.83487  1.0000
  H   H270      1.0  0.40388  0.45960  0.93611  1.0000
  C   C352      1.0  0.36853  0.30971  0.96893  1.0000
  C   C353      1.0  0.35690  0.32967  0.70387  1.0000
  C   C354      1.0  0.24917  0.10292  0.72335  1.0000
  H   H271      1.0  0.23786  0.20106  0.95149  1.0000
  H   H272      1.0  0.99419  0.29268  0.76126  1.0000
  H   H273      1.0  0.35327  0.43933  0.88681  1.0000
  H   H274      1.0  0.39588  0.38644  0.88607  1.0000
  H   H275      1.0  0.42631  0.48339  0.90698  1.0000
  H   H276      1.0  0.12105  0.19397  0.81143  1.0000
  C   C355      1.0  0.41409  0.22445  0.95645  1.0000
  H   H277      1.0  0.29361  0.41736  0.86409  1.0000
  H   H278      1.0  0.23523  0.39139  0.85387  1.0000
  H   H279      1.0  0.18994  0.43153  0.83920  1.0000
  C   C356      1.0  0.12118  0.33898  0.75375  1.0000
  C   C357      1.0  0.07001  0.48703  0.78797  1.0000
  C   C358      1.0  0.37263  0.32970  0.98368  1.0000
  H   H280      1.0  0.37884  0.03341  0.69585  1.0000
  C   C359      1.0  0.47818  0.31152  0.98073  1.0000
  H   H281      1.0  0.45784  0.48255  0.97376  1.0000
  H   H282      1.0  0.02500  0.18560  0.78137  1.0000
  C   C360      1.0  0.41764  0.07683  0.70045  1.0000
  H   H283      1.0  0.36324  0.22118  0.78443  1.0000
  H   H284      1.0  0.13476  0.25341  0.68643  1.0000
  C   C361      1.0  0.38310  0.08345  0.73144  1.0000
  C   C362      1.0  0.42963  0.10365  0.71156  1.0000
  C   C363      1.0  0.25025  0.22656  0.95570  1.0000
  C   C364      1.0  0.25191  0.45701  0.67941  1.0000
  C   C365      1.0  0.45313  0.30485  0.68662  1.0000
  H   H285      1.0  0.27564  0.42346  0.71770  1.0000
  C   C366      1.0  0.10638  0.30346  0.75225  1.0000
  C   C367      1.0  0.46575  0.44000  0.90304  1.0000
  C   C368      1.0  0.23540  0.42539  0.67293  1.0000
  C   C369      1.0  0.37695  0.44357  0.84566  1.0000
  C   C370      1.0  0.06974  0.38904  0.83674  1.0000
  H   H286      1.0  0.13705  0.47867  0.80411  1.0000
  C   C371      1.0  0.36007  0.29202  0.70772  1.0000
  C   C372      1.0  0.20483  0.39470  0.75383  1.0000
  H   H287      1.0  0.21405  0.11666  0.70251  1.0000
  C   C373      1.0  0.29335  0.05340  0.71896  1.0000
  H   H288      1.0  0.11965  0.39002  0.76729  1.0000
  C   C374      1.0  0.37582  0.32742  0.95359  1.0000
  H   H289      1.0  0.00759  0.21999  0.83483  1.0000
  C   C375      1.0  0.30435  0.26090  0.96461  1.0000
  C   C376      1.0  0.45268  0.47624  0.90164  1.0000
  C   C377      1.0  0.31884  0.32129  0.66355  1.0000
  C   C378      1.0  0.04722  0.44411  0.82228  1.0000
  C   C379      1.0  0.37953  0.23888  0.75998  1.0000
  C   C380      1.0  0.45324  0.29186  0.84340  1.0000
  H   H290      1.0  0.20254  0.37021  0.77841  1.0000
  C   C381      1.0  0.37858  0.23858  0.95332  1.0000
  H   H291      1.0  0.19020  0.41950  0.75747  1.0000
  C   C382      1.0  0.32870  0.01023  0.66491  1.0000
  C   C383      1.0  0.16619  0.47476  0.80207  1.0000
  C   C384      1.0  0.38887  0.36381  0.95303  1.0000
  C   C385      1.0  0.48974  0.20030  0.68857  1.0000
  H   H292      1.0  0.27905  0.48074  0.70057  1.0000
  H   H293      1.0  0.23644  0.31384  0.77058  1.0000
  C   C386      1.0  0.10733  0.36295  0.76573  1.0000
  H   H294      1.0  0.45094  0.27686  0.68207  1.0000
  C   C387      1.0  0.28800  0.22782  0.95934  1.0000
  H   H295      1.0  0.28896  0.08515  0.74156  1.0000
  H   H296      1.0  0.36685  0.28795  0.66843  1.0000
  C   C388      1.0  0.40022  0.48633  0.94183  1.0000
  H   H297      1.0  0.37307  0.21867  0.91194  1.0000
  Fe  Fe27      1.0  0.32173  0.11863  0.66953  1.0000
  C   C389      1.0  0.21559  0.38978  0.73725  1.0000
  C   C390      1.0  0.21212  0.36717  0.76576  1.0000
  C   C391      1.0  0.23102  0.33524  0.76130  1.0000
  P   P14       1.0  0.33269  0.02665  0.72582  1.0000
  C   C392      1.0  0.28218  0.29240  0.96660  1.0000
  H   H298      1.0  0.27138  0.46153  0.79559  1.0000
  C   C393      1.0  0.24200  0.46513  0.79739  1.0000
  H   H299      1.0  0.04734  0.28671  0.73002  1.0000
  H   H300      1.0  0.40501  0.41096  0.96726  1.0000
  H   H301      1.0  0.07172  0.22739  0.79645  1.0000
  C   C394      1.0  0.47987  0.13951  0.66795  1.0000
  H   H302      1.0  0.22747  0.31551  0.96435  1.0000
  C   C395      1.0  0.01481  0.24028  0.77084  1.0000
  C   C396      1.0  0.45594  0.37613  0.69959  1.0000
  C   C397      1.0  0.04845  0.20905  0.70671  1.0000
  H   H303      1.0  0.19925  0.25723  0.95455  1.0000
  H   H304      1.0  0.08095  0.45954  0.79038  1.0000
  H   H305      1.0  0.29273  0.03027  0.69434  1.0000
  H   H306      1.0  0.43548  0.19370  0.91771  1.0000
  H   H307      1.0  0.34486  0.47466  0.95017  1.0000
  H   H308      1.0  0.45668  0.40375  0.70464  1.0000
  C   C398      1.0  0.04639  0.24655  0.71061  1.0000
  C   C399      1.0  0.41947  0.20566  0.92770  1.0000
  H   H309      1.0  0.38692  0.99934  0.78112  1.0000
  H   H310      1.0  0.05963  0.17265  0.74569  1.0000
  C   C400      1.0  0.05318  0.18254  0.71940  1.0000
  H   H311      1.0  0.01911  0.39111  0.82297  1.0000
  C   C401      1.0  0.04297  0.40672  0.82690  1.0000
  H   H312      1.0  0.39520  0.47433  0.98537  1.0000
  H   H313      1.0  0.46969  0.28604  0.71102  1.0000
  H   H314      1.0  0.04611  0.20045  0.69388  1.0000
  H   H315      1.0  0.02637  0.42963  0.77803  1.0000
  H   H316      1.0  0.42683  0.22679  0.96854  1.0000
  C   C402      1.0  0.00543  0.20802  0.77989  1.0000
  H   H317      1.0  0.05447  0.15343  0.71640  1.0000
  H   H318      1.0  0.47583  0.11588  0.66004  1.0000
  H   H319      1.0  0.27095  0.01192  0.74859  1.0000
  H   H320      1.0  0.38997  0.01572  0.75115  1.0000
  C   C403      1.0  0.36326  0.01217  0.75708  1.0000
  C   C404      1.0  0.38560  0.36615  0.98307  1.0000
  H   H321      1.0  0.48882  0.19649  0.82771  1.0000
  C   C405      1.0  0.29488  0.00039  0.77257  1.0000
  C   C406      1.0  0.35666  0.31357  0.66296  1.0000
  C   C407      1.0  0.45453  0.46946  0.98589  1.0000
  C   C408      1.0  0.32746  0.99684  0.78178  1.0000
  C   C409      1.0  0.29201  0.99841  0.66330  1.0000
  C   C410      1.0  0.36165  0.00255  0.77402  1.0000
  H   H322      1.0  0.27578  0.35941  0.65647  1.0000
  C   C411      1.0  0.29641  0.01005  0.75564  1.0000
  C   C412      1.0  0.46507  0.34559  0.70966  1.0000
  P   P15       1.0  0.32712  0.49153  0.86080  1.0000
  H   H323      1.0  0.49228  0.38241  0.65740  1.0000
  H   H324      1.0  0.24596  0.60493  0.30789  1.0000
  S   S55       1.0  0.43435  0.66173  0.10786  1.0000
  H   H325      1.0  0.44369  0.57831  0.03302  1.0000
  H   H326      1.0  0.17353  0.75702  0.28307  1.0000
  Fe  Fe28      1.0  0.20521  0.66833  0.18322  1.0000
  S   S56       1.0  0.18336  0.67817  0.15713  1.0000
  S   S57       1.0  0.20481  0.71440  0.20227  1.0000
  Fe  Fe29      1.0  0.21325  0.58609  0.17813  1.0000
  S   S58       1.0  0.19084  0.58954  0.15216  1.0000
  S   S59       1.0  0.23782  0.53357  0.18907  1.0000
  Fe  Fe30      1.0  0.22870  0.63886  0.14915  1.0000
  S   S60       1.0  0.26186  0.63935  0.12467  1.0000
  Fe  Fe31      1.0  0.14722  0.62829  0.16224  1.0000
  S   S61       1.0  0.08598  0.62289  0.15409  1.0000
  S   S62       1.0  0.25298  0.63340  0.17484  1.0000
  S   S63       1.0  0.16710  0.62016  0.18848  1.0000
  H   H327      1.0  0.17652  0.67062  0.23291  1.0000
  S   S64       1.0  0.35047  0.83510  0.28276  1.0000
  C   C413      1.0  0.24618  0.63029  0.30056  1.0000
  C   C414      1.0  0.47051  0.79472  0.30657  1.0000
  H   H328      1.0  0.35823  0.59420  0.17131  1.0000
  H   H329      1.0  0.11761  0.75057  0.23620  1.0000
  Fe  Fe32      1.0  0.32330  0.77899  0.28043  1.0000
  S   S65       1.0  0.32687  0.74237  0.25764  1.0000
  C   C415      1.0  0.30233  0.52034  0.31218  1.0000
  C   C416      1.0  0.23851  0.72103  0.21785  1.0000
  C   C417      1.0  0.23095  0.74539  0.23091  1.0000
  C   C418      1.0  0.25762  0.75240  0.24324  1.0000
  C   C419      1.0  0.29221  0.73527  0.24248  1.0000
  C   C420      1.0  0.29976  0.71125  0.22932  1.0000
  C   C421      1.0  0.27291  0.70365  0.21720  1.0000
  H   H330      1.0  0.20449  0.75923  0.23137  1.0000
  H   H331      1.0  0.25163  0.77144  0.25314  1.0000
  H   H332      1.0  0.32687  0.69917  0.22828  1.0000
  H   H333      1.0  0.27925  0.68536  0.20705  1.0000
  C   C422      1.0  0.38637  0.65457  0.11232  1.0000
  C   C423      1.0  0.36177  0.64021  0.10065  1.0000
  C   C424      1.0  0.32396  0.63572  0.10470  1.0000
  C   C425      1.0  0.31019  0.64476  0.12055  1.0000
  C   C426      1.0  0.33486  0.65882  0.13228  1.0000
  C   C427      1.0  0.37253  0.66408  0.12811  1.0000
  H   H334      1.0  0.37175  0.63339  0.08840  1.0000
  H   H335      1.0  0.30508  0.62554  0.09542  1.0000
  H   H336      1.0  0.32476  0.66636  0.14445  1.0000
  H   H337      1.0  0.39109  0.67564  0.13720  1.0000
  C   C428      1.0  0.04111  0.63113  0.16294  1.0000
  H   H338      1.0  0.25070  0.53639  0.30141  1.0000
  C   C429      1.0  0.03611  0.64774  0.17842  1.0000
  H   H339      1.0  0.01240  0.60815  0.14198  1.0000
  H   H340      1.0  0.06001  0.65543  0.18559  1.0000
  H   H341      1.0  0.05581  0.66930  0.26778  1.0000
  C   C430      1.0  0.06570  0.54228  0.13037  1.0000
  H   H342      1.0  0.44303  0.78047  0.28376  1.0000
  H   H343      1.0  0.22139  0.62130  0.22768  1.0000
  C   C431      1.0  0.19226  0.61451  0.22847  1.0000
  C   C432      1.0  0.32720  0.55366  0.08310  1.0000
  C   C433      1.0  0.26987  0.98101  0.30692  1.0000
  C   C434      1.0  0.14552  0.75782  0.25941  1.0000
  H   H344      1.0  0.40658  0.63435  0.02609  1.0000
  C   C435      1.0  0.46798  0.77766  0.29108  1.0000
  C   C436      1.0  0.37953  0.57143  0.06590  1.0000
  H   H345      1.0  0.15975  0.69086  0.28892  1.0000
  C   C437      1.0  0.33533  0.56513  0.28768  1.0000
  H   H346      1.0  0.12530  0.65406  0.26841  1.0000
  H   H347      1.0  0.29045  0.56793  0.21346  1.0000
  H   H348      1.0  0.24884  0.72311  0.27578  1.0000
  C   C438      1.0  0.16075  0.52148  0.26405  1.0000
  C   C439      1.0  0.41483  0.67371  0.27841  1.0000
  C   C440      1.0  0.18018  0.57838  0.22571  1.0000
  H   H349      1.0  0.40512  0.67855  0.26579  1.0000
  C   C441      1.0  0.00010  0.65522  0.18446  1.0000
  C   C442      1.0  0.33915  0.62659  0.23784  1.0000
  C   C443      1.0  0.22187  0.53259  0.11294  1.0000
  H   H350      1.0  0.09026  0.57864  0.18671  1.0000
  H   H351      1.0  0.24472  0.97423  0.31360  1.0000
  C   C444      1.0  0.02842  0.63723  0.23001  1.0000
  H   H352      1.0  0.06658  0.75647  0.17652  1.0000
  C   C445      1.0  0.19128  0.57958  0.26982  1.0000
  Fe  Fe33      1.0  0.47297  0.64594  0.08622  1.0000
  C   C446      1.0  0.07880  0.55776  0.10148  1.0000
  Fe  Fe34      1.0  0.30708  0.77089  0.31761  1.0000
  C   C447      1.0  0.23890  0.97672  0.26456  1.0000
  H   H353      1.0  0.13641  0.68238  0.20408  1.0000
  H   H354      1.0  0.07709  0.57711  0.09106  1.0000
  H   H355      1.0  0.18938  0.60917  0.27157  1.0000
  C   C448      1.0  0.12851  0.63478  0.23149  1.0000
  C   C449      1.0  0.29146  0.59503  0.25406  1.0000
  C   C450      1.0  0.11661  0.59834  0.22881  1.0000
  C   C451      1.0  0.40174  0.66410  0.30771  1.0000
  H   H356      1.0  0.31613  0.67686  0.31788  1.0000
  S   S66       1.0  0.46357  0.62757  0.05980  1.0000
  P   P16       1.0  0.26766  0.58736  0.27370  1.0000
  C   C452      1.0  0.22723  0.52334  0.26736  1.0000
  H   H357      1.0  0.22402  0.49465  0.15462  1.0000
  C   C453      1.0  0.47515  0.94972  0.28120  1.0000
  C   C454      1.0  0.07837  0.49798  0.16587  1.0000
  H   H358      1.0  0.31428  0.97721  0.23925  1.0000
  C   C455      1.0  0.35431  0.57753  0.16036  1.0000
  C   C456      1.0  0.28041  0.53865  0.30037  1.0000
  C   C457      1.0  0.15764  0.74115  0.27424  1.0000
  C   C458      1.0  0.34149  0.57131  0.06885  1.0000
  C   C459      1.0  0.34221  0.53664  0.13139  1.0000
  C   C460      1.0  0.28931  0.98695  0.24520  1.0000
  H   H359      1.0  0.42236  0.97472  0.27568  1.0000
  C   C461      1.0  0.31906  0.53194  0.14536  1.0000
  H   H360      1.0  0.28179  0.93701  0.25994  1.0000
  H   H361      1.0  0.26208  0.66519  0.26140  1.0000
  H   H362      1.0  0.32308  0.58539  0.06024  1.0000
  H   H363      1.0  0.38964  0.56692  0.12163  1.0000
  C   C462      1.0  0.19489  0.50345  0.26421  1.0000
  C   C463      1.0  0.40861  0.92841  0.31816  1.0000
  H   H364      1.0  0.13253  0.57355  0.26654  1.0000
  C   C464      1.0  0.32045  0.62084  0.25291  1.0000
  S   S67       1.0  0.35472  0.75338  0.30190  1.0000
  C   C465      1.0  0.12557  0.73730  0.24783  1.0000
  H   H365      1.0  0.47701  0.63231  0.13982  1.0000
  H   H366      1.0  0.27177  0.56253  0.11783  1.0000
  C   C466      1.0  0.03902  0.65633  0.25841  1.0000
  C   C467      1.0  0.29108  0.95223  0.30011  1.0000
  C   C468      1.0  0.16658  0.64257  0.23133  1.0000
  H   H367      1.0  0.40030  0.60172  0.14703  1.0000
  H   H368      1.0  0.05297  0.54992  0.14202  1.0000
  H   H369      1.0  0.10797  0.51637  0.08768  1.0000
  C   C469      1.0  0.08481  0.50872  0.12882  1.0000
  C   C470      1.0  0.32494  0.55252  0.15971  1.0000
  C   C471      1.0  0.25572  0.66404  0.27458  1.0000
  H   H370      1.0  0.40818  0.52275  0.10000  1.0000
  C   C472      1.0  0.09135  0.53353  0.16957  1.0000
  H   H371      1.0  0.38686  0.55078  0.29959  1.0000
  H   H372      1.0  0.04892  0.54619  0.20689  1.0000
  C   C473      1.0  0.39839  0.61932  0.00044  1.0000
  Fe  Fe35      1.0  0.37716  0.81027  0.30552  1.0000
  C   C474      1.0  0.09921  0.49916  0.11322  1.0000
  C   C475      1.0  0.35718  0.54679  0.29956  1.0000
  C   C476      1.0  0.32823  0.60771  0.22362  1.0000
  P   P17       1.0  0.09592  0.67159  0.23544  1.0000
  C   C477      1.0  0.13010  0.68321  0.26594  1.0000
  H   H373      1.0  0.15230  0.78651  0.25670  1.0000
  C   C478      1.0  0.32342  0.96162  0.29141  1.0000
  H   H374      1.0  0.33994  0.94000  0.28602  1.0000
  C   C479      1.0  0.08705  0.69915  0.21690  1.0000
  C   C480      1.0  0.05496  0.72093  0.21575  1.0000
  C   C481      1.0  0.04753  0.74146  0.20121  1.0000
  C   C482      1.0  0.07235  0.74085  0.18785  1.0000
  C   C483      1.0  0.10459  0.71979  0.18906  1.0000
  C   C484      1.0  0.11172  0.69886  0.20348  1.0000
  H   H375      1.0  0.48732  0.97600  0.28433  1.0000
  C   C485      1.0  0.40334  0.55407  0.07724  1.0000
  H   H376      1.0  0.34182  0.61325  0.21179  1.0000
  H   H377      1.0  0.02241  0.75760  0.20021  1.0000
  H   H378      1.0  0.12400  0.71930  0.17876  1.0000
  H   H379      1.0  0.03549  0.72178  0.22599  1.0000
  C   C486      1.0  0.37180  0.56174  0.13221  1.0000
  C   C487      1.0  0.05160  0.65326  0.24193  1.0000
  C   C488      1.0  0.11746  0.69984  0.25107  1.0000
  S   S68       1.0  0.27384  0.79412  0.29603  1.0000
  C   C489      1.0  0.15894  0.55948  0.26692  1.0000
  S   S69       1.0  0.27460  0.90558  0.30190  1.0000
  H   H380      1.0  0.39179  0.91501  0.26947  1.0000
  C   C490      1.0  0.22566  0.56160  0.27014  1.0000
  C   C491      1.0  0.29928  0.58221  0.22457  1.0000
  C   C492      1.0  0.42069  0.91559  0.27299  1.0000
  H   H381      1.0  0.25891  0.55573  0.24003  1.0000
  C   C493      1.0  0.14986  0.70386  0.27752  1.0000
  C   C494      1.0  0.99317  0.62464  0.23444  1.0000
  H   H382      1.0  0.19999  0.55688  0.22285  1.0000
  C   C495      1.0  0.28124  0.57555  0.23975  1.0000
  H   H383      1.0  0.39062  0.58539  0.05497  1.0000
  C   C496      1.0  0.43288  0.58255  0.02056  1.0000
  H   H384      1.0  0.42694  0.85636  0.27219  1.0000
  H   H385      1.0  0.36138  0.64666  0.23708  1.0000
  C   C497      1.0  0.43799  0.94917  0.27641  1.0000
  Fe  Fe36      1.0  0.30358  0.84888  0.30007  1.0000
  C   C498      1.0  0.44046  0.88257  0.27446  1.0000
  H   H386      1.0  0.32834  0.63701  0.26359  1.0000
  C   C499      1.0  0.34067  0.52443  0.31181  1.0000
  C   C500      1.0  0.16960  0.50257  0.19417  1.0000
  C   C501      1.0  0.43404  0.95738  0.31949  1.0000
  C   C502      1.0  0.14239  0.57031  0.22593  1.0000
  C   C503      1.0  0.29668  0.56100  0.28789  1.0000
  H   H387      1.0  0.47233  0.68003  0.27201  1.0000
  C   C504      1.0  0.09637  0.52367  0.09962  1.0000
  C   C505      1.0  0.00932  0.62097  0.15394  1.0000
  H   H388      1.0  0.20426  0.55597  0.11576  1.0000
  C   C506      1.0  0.41191  0.61394  0.01663  1.0000
  H   H389      1.0  0.10881  0.54853  0.16084  1.0000
  C   C507      1.0  0.25609  0.63041  0.28362  1.0000
  C   C508      1.0  0.00382  0.64340  0.26285  1.0000
  C   C509      1.0  0.35097  0.53606  0.09455  1.0000
  H   H390      1.0  0.46154  0.95409  0.31452  1.0000
  C   C510      1.0  0.24758  0.69710  0.28263  1.0000
  C   C511      1.0  0.23853  0.69678  0.29955  1.0000
  C   C512      1.0  0.26018  0.53621  0.11417  1.0000
  C   C513      1.0  0.27096  0.96420  0.25677  1.0000
  H   H391      1.0  0.23313  0.72246  0.30592  1.0000
  C   C514      1.0  0.37798  0.58176  0.14670  1.0000
  C   C515      1.0  0.47753  0.88299  0.27926  1.0000
  H   H392      1.0  0.03740  0.63508  0.21716  1.0000
  H   H393      1.0  0.30615  0.54966  0.17019  1.0000
  H   H394      1.0  0.34881  0.58299  0.27866  1.0000
  C   C516      1.0  0.38941  0.66823  0.29130  1.0000
  H   H395      1.0  0.29587  0.51302  0.14509  1.0000
  H   H396      1.0  0.08760  0.59139  0.22875  1.0000
  H   H397      1.0  0.05001  0.59354  0.11831  1.0000
  H   H398      1.0  0.45817  0.53327  0.01132  1.0000
  C   C517      1.0  0.43964  0.66502  0.31144  1.0000
  H   H399      1.0  0.36002  0.66906  0.28870  1.0000
  C   C518      1.0  0.06336  0.56696  0.11682  1.0000
  C   C519      1.0  0.44110  0.55701  0.00826  1.0000
  H   H400      1.0  0.13311  0.54238  0.22354  1.0000
  C   C520      1.0  0.05743  0.53259  0.19560  1.0000
  H   H401      1.0  0.25352  0.50905  0.26739  1.0000
  C   C521      1.0  0.46503  0.67073  0.29838  1.0000
  C   C522      1.0  0.23707  0.66330  0.30840  1.0000
  C   C523      1.0  0.08076  0.55080  0.18429  1.0000
  H   H402      1.0  0.47788  0.63028  0.17078  1.0000
  H   H403      1.0  0.22520  0.95918  0.27377  1.0000
  H   H404      1.0  0.15951  0.53054  0.19531  1.0000
  H   H405      1.0  0.38196  0.64366  0.99760  1.0000
  H   H406      1.0  0.49148  0.85683  0.28082  1.0000
  H   H407      1.0  0.13573  0.50608  0.26148  1.0000
  H   H408      1.0  0.43284  0.55440  0.07505  1.0000
  C   C524      1.0  0.04502  0.49687  0.19228  1.0000
  H   H409      1.0  0.29768  0.55424  0.08514  1.0000
  C   C525      1.0  0.20693  0.49629  0.19094  1.0000
  C   C526      1.0  0.45263  0.67469  0.28193  1.0000
  C   C527      1.0  0.38921  0.53638  0.09146  1.0000
  H   H410      1.0  0.17679  0.49612  0.10739  1.0000
  H   H411      1.0  0.99408  0.64610  0.27555  1.0000
  C   C528      1.0  0.42826  0.56271  0.99201  1.0000
  H   H412      1.0  0.41657  0.90267  0.31239  1.0000
  H   H413      1.0  0.48659  0.89412  0.31455  1.0000
  H   H414      1.0  0.15899  0.51266  0.15647  1.0000
  S   S70       1.0  0.43485  0.82264  0.31426  1.0000
  H   H415      1.0  0.33099  0.57830  0.99244  1.0000
  P   P18       1.0  0.33278  0.51140  0.11256  1.0000
  H   H416      1.0  0.18506  0.49453  0.30627  1.0000
  H   H417      1.0  0.38156  0.66195  0.31761  1.0000
  S   S71       1.0  0.49058  0.52483  0.05496  1.0000
  H   H418      1.0  0.26485  0.59322  0.99542  1.0000
  C   C529      1.0  0.28337  0.50617  0.11070  1.0000
  H   H419      1.0  0.23050  0.66322  0.32160  1.0000
  H   H420      1.0  0.28949  0.50448  0.32221  1.0000
  H   H421      1.0  0.35734  0.51126  0.32141  1.0000
  H   H422      1.0  0.99678  0.66904  0.19620  1.0000
  C   C530      1.0  0.20644  0.49896  0.10817  1.0000
  C   C531      1.0  0.49151  0.49449  0.08652  1.0000
  S   S72       1.0  0.35232  0.80005  0.64159  1.0000
  C   C532      1.0  0.47674  0.60174  0.35221  1.0000
  S   S73       1.0  0.29495  0.70342  0.63709  1.0000
  H   H423      1.0  0.39808  0.72360  0.55399  1.0000
  S   S74       1.0  0.35688  0.56741  0.59489  1.0000
  H   H424      1.0  0.28599  0.73094  0.60028  1.0000
  H   H425      1.0  0.45277  0.69282  0.64685  1.0000
  H   H426      1.0  0.49010  0.95923  0.34083  1.0000
  S   S75       1.0  0.28524  0.73431  0.33904  1.0000
  H   H427      1.0  0.43153  0.56674  0.58251  1.0000
  S   S76       1.0  0.30755  0.56006  0.34987  1.0000
  H   H428      1.0  0.25872  0.64107  0.62213  1.0000
  C   C533      1.0  0.29576  0.68662  0.34254  1.0000
  C   C534      1.0  0.37250  0.93282  0.32394  1.0000
  H   H429      1.0  0.43625  0.51942  0.36247  1.0000
  C   C535      1.0  0.30540  0.60924  0.34802  1.0000
  C   C536      1.0  0.29254  0.63157  0.36087  1.0000
  C   C537      1.0  0.28728  0.66991  0.35805  1.0000
  H   H430      1.0  0.38726  0.54572  0.34434  1.0000
  H   H431      1.0  0.19329  0.49937  0.33688  1.0000
  H   H432      1.0  0.28526  0.61910  0.37277  1.0000
  H   H433      1.0  0.27606  0.68667  0.36789  1.0000
  H   H434      1.0  0.43413  0.71906  0.52805  1.0000
  H   H435      1.0  0.44122  0.53174  0.53560  1.0000
  C   C538      1.0  0.41628  0.54048  0.49486  1.0000
  C   C539      1.0  0.44832  0.72171  0.53985  1.0000
  C   C540      1.0  0.30166  0.68577  0.58460  1.0000
  C   C541      1.0  0.36172  0.96630  0.33090  1.0000
  H   H436      1.0  0.49157  0.86782  0.34275  1.0000
  C   C542      1.0  0.31930  0.51274  0.53205  1.0000
  H   H437      1.0  0.35079  0.75778  0.36455  1.0000
  C   C543      1.0  0.47432  0.88371  0.65510  1.0000
  P   P19       1.0  0.45428  0.66316  0.33303  1.0000
  H   H438      1.0  0.42552  0.88252  0.60646  1.0000
  H   H439      1.0  0.37780  0.86009  0.58686  1.0000
  H   H440      1.0  0.38962  0.66495  0.57345  1.0000
  C   C544      1.0  0.37388  0.71337  0.58724  1.0000
  H   H441      1.0  0.47208  0.83890  0.61801  1.0000
  C   C545      1.0  0.44615  0.72720  0.56998  1.0000
  C   C546      1.0  0.31280  0.66347  0.62695  1.0000
  C   C547      1.0  0.35069  0.65823  0.62446  1.0000
  C   C548      1.0  0.36356  0.62819  0.61501  1.0000
  C   C549      1.0  0.33887  0.60246  0.60813  1.0000
  C   C550      1.0  0.30099  0.60692  0.61108  1.0000
  C   C551      1.0  0.28809  0.63734  0.62033  1.0000
  H   H442      1.0  0.36996  0.67793  0.62948  1.0000
  H   H443      1.0  0.39287  0.62517  0.61285  1.0000
  H   H444      1.0  0.28155  0.58762  0.60583  1.0000
  H   H445      1.0  0.43699  0.97510  0.63562  1.0000
  P   P20       1.0  0.42061  0.73017  0.58924  1.0000
  C   C552      1.0  0.30841  0.71774  0.59366  1.0000
  C   C553      1.0  0.44014  0.54625  0.35647  1.0000
  C   C554      1.0  0.44094  0.51518  0.48794  1.0000
  C   C555      1.0  0.42987  0.61482  0.54573  1.0000
  H   H446      1.0  0.47109  0.77344  0.61034  1.0000
  C   C556      1.0  0.31423  0.62603  0.33257  1.0000
  C   C557      1.0  0.45139  0.82921  0.60935  1.0000
  C   C558      1.0  0.44119  0.52722  0.52228  1.0000
  H   H447      1.0  0.32599  0.64098  0.57108  1.0000
  C   C559      1.0  0.44766  0.94940  0.64084  1.0000
  C   C560      1.0  0.41779  0.72965  0.33785  1.0000
  C   C561      1.0  0.41621  0.54629  0.51204  1.0000
  H   H448      1.0  0.39685  0.55515  0.48688  1.0000
  H   H449      1.0  0.39525  0.60680  0.33101  1.0000
  C   C562      1.0  0.36702  0.68055  0.57865  1.0000
  H   H450      1.0  0.39670  0.56548  0.51739  1.0000
  C   C563      1.0  0.48689  0.72356  0.54024  1.0000
  H   H451      1.0  0.48793  0.51881  0.59424  1.0000
  H   H452      1.0  0.48807  0.61858  0.60862  1.0000
  H   H453      1.0  0.37617  0.79435  0.57904  1.0000
  C   C564      1.0  0.33100  0.66697  0.57723  1.0000
  C   C565      1.0  0.42795  0.72397  0.55463  1.0000
  C   C566      1.0  0.39814  0.84104  0.59192  1.0000
  H   H454      1.0  0.33252  0.53940  0.53045  1.0000
  H   H455      1.0  0.41051  0.62748  0.53710  1.0000
  H   H456      1.0  0.26544  0.53552  0.54156  1.0000
  C   C567      1.0  0.41744  0.59577  0.33855  1.0000
  H   H457      1.0  0.34921  0.75464  0.60317  1.0000
  S   S77       1.0  0.45807  0.78666  0.64819  1.0000
  C   C568      1.0  0.37667  0.70408  0.36519  1.0000
  C   C569      1.0  0.39243  0.75299  0.34553  1.0000
  H   H458      1.0  0.38733  0.59478  0.56254  1.0000
  C   C570      1.0  0.44961  0.61651  0.34146  1.0000
  C   C571      1.0  0.47488  0.64416  0.61224  1.0000
  C   C572      1.0  0.40240  0.68075  0.35769  1.0000
  H   H459      1.0  0.35993  0.69391  0.37549  1.0000
  C   C573      1.0  0.42294  0.69334  0.34385  1.0000
  C   C574      1.0  0.34444  0.73119  0.59523  1.0000
  C   C575      1.0  0.41272  0.56093  0.34610  1.0000
  H   H460      1.0  0.40544  0.65285  0.36256  1.0000
  H   H461      1.0  0.43304  0.73980  0.32708  1.0000
  H   H462      1.0  0.38846  0.78086  0.34073  1.0000
  Fe  Fe37      1.0  0.31421  0.51600  0.37060  1.0000
  C   C576      1.0  0.42255  0.77854  0.59461  1.0000
  H   H463      1.0  0.33325  0.97011  0.33473  1.0000
  C   C577      1.0  0.45043  0.79185  0.60510  1.0000
  C   C578      1.0  0.44208  0.70072  0.60477  1.0000
  Fe  Fe38      1.0  0.32690  0.74721  0.65179  1.0000
  C   C579      1.0  0.45488  0.68576  0.63380  1.0000
  S   S78       1.0  0.36450  0.51126  0.38694  1.0000
  C   C580      1.0  0.37157  0.74011  0.35907  1.0000
  H   H464      1.0  0.48890  0.72711  0.34977  1.0000
  S   S79       1.0  0.36733  0.49821  0.55998  1.0000
  C   C581      1.0  0.44166  0.58069  0.57134  1.0000
  C   C582      1.0  0.41677  0.59655  0.56005  1.0000
  Fe  Fe39      1.0  0.33893  0.51161  0.58406  1.0000
  H   H465      1.0  0.42376  0.73312  0.62571  1.0000
  H   H466      1.0  0.46011  0.65949  0.58721  1.0000
  C   C583      1.0  0.46790  0.61662  0.54254  1.0000
  H   H467      1.0  0.47736  0.63092  0.53142  1.0000
  C   C584      1.0  0.39712  0.80367  0.58763  1.0000
  C   C585      1.0  0.43889  0.70895  0.62173  1.0000
  C   C586      1.0  0.45927  0.66759  0.60012  1.0000
  H   H468      1.0  0.27394  0.67451  0.58406  1.0000
  C   C587      1.0  0.31007  0.66452  0.32994  1.0000
  C   C588      1.0  0.47215  0.56662  0.35950  1.0000
  C   C589      1.0  0.42507  0.85373  0.60290  1.0000
  C   C590      1.0  0.28021  0.51047  0.53857  1.0000
  C   C591      1.0  0.43790  0.88572  0.64937  1.0000
  C   C592      1.0  0.47959  0.58275  0.56827  1.0000
  H   H469      1.0  0.44065  0.51103  0.47459  1.0000
  C   C593      1.0  0.47300  0.65345  0.62906  1.0000
  C   C594      1.0  0.42466  0.91845  0.64212  1.0000
  H   H470      1.0  0.39632  0.91999  0.63777  1.0000
  C   C595      1.0  0.48484  0.72988  0.57023  1.0000
  H   H471      1.0  0.41995  0.86178  0.65055  1.0000
  H   H472      1.0  0.48502  0.63534  0.63847  1.0000
  C   C596      1.0  0.46581  0.50186  0.51538  1.0000
  C   C597      1.0  0.42387  0.99068  0.32694  1.0000
  C   C598      1.0  0.48428  0.94735  0.64638  1.0000
  C   C599      1.0  0.46510  0.49480  0.49821  1.0000
  S   S80       1.0  0.33193  0.82660  0.32300  1.0000
  H   H473      1.0  0.32370  0.60907  0.32244  1.0000
  H   H474      1.0  0.35249  0.91071  0.32256  1.0000
  Fe  Fe40      1.0  0.21487  0.67087  0.80663  1.0000
  S   S81       1.0  0.18892  0.67087  0.83230  1.0000
  S   S82       1.0  0.21763  0.72319  0.79075  1.0000
  Fe  Fe41      1.0  0.22904  0.58886  0.80781  1.0000
  S   S83       1.0  0.20346  0.58249  0.83301  1.0000
  S   S84       1.0  0.25605  0.53953  0.79615  1.0000
  Fe  Fe42      1.0  0.15804  0.62028  0.82361  1.0000
  S   S85       1.0  0.09758  0.60016  0.82635  1.0000
  Fe  Fe43      1.0  0.23674  0.63303  0.83937  1.0000
  S   S86       1.0  0.27090  0.62680  0.86332  1.0000
  S   S87       1.0  0.18192  0.62249  0.79764  1.0000
  S   S88       1.0  0.26440  0.63737  0.81440  1.0000
  H   H475      1.0  0.47890  0.65611  0.82373  1.0000
  H   H476      1.0  0.45434  0.80486  0.76923  1.0000
  Fe  Fe44      1.0  0.35117  0.76441  0.68759  1.0000
  H   H477      1.0  0.43306  0.74397  0.85598  1.0000
  S   S89       1.0  0.35835  0.73613  0.71286  1.0000
  H   H478      1.0  0.26544  0.52250  0.88022  1.0000
  C   C600      1.0  0.02129  0.59927  0.82562  1.0000
  H   H479      1.0  0.41834  0.66712  0.91534  1.0000
  S   S90       1.0  0.37968  0.81775  0.68026  1.0000
  H   H480      1.0  0.26089  0.52543  0.84566  1.0000
  S   S91       1.0  0.43692  0.67852  0.87797  1.0000
  C   C601      1.0  0.08802  0.67392  0.79148  1.0000
  C   C602      1.0  0.01384  0.72200  0.72096  1.0000
  C   C603      1.0  0.31785  0.59589  0.98315  1.0000
  C   C604      1.0  0.44800  0.74869  0.84441  1.0000
  H   H481      1.0  0.99869  0.54401  0.79811  1.0000
  H   H482      1.0  0.37314  0.55863  0.86385  1.0000
  H   H483      1.0  0.32463  0.65504  0.72347  1.0000
  H   H484      1.0  0.30774  0.71711  0.80236  1.0000
  H   H485      1.0  0.46025  0.79149  0.68427  1.0000
  C   C605      1.0  0.22724  0.50088  0.79826  1.0000
  H   H486      1.0  0.25507  0.95157  0.66146  1.0000
  H   H487      1.0  0.34389  0.81445  0.78200  1.0000
  H   H488      1.0  0.46460  0.53166  0.89310  1.0000
  C   C606      1.0  0.02380  0.53432  0.79234  1.0000
  C   C607      1.0  0.37016  0.92951  0.70628  1.0000
  H   H489      1.0  0.17791  0.53318  0.80176  1.0000
  H   H490      1.0  0.31377  0.50302  0.82478  1.0000
  C   C608      1.0  0.05297  0.62165  0.82705  1.0000
  C   C609      1.0  0.04804  0.65976  0.82908  1.0000
  S   S92       1.0  0.37642  0.73154  0.66692  1.0000
  H   H491      1.0  0.07196  0.67747  0.83032  1.0000
  H   H492      1.0  0.02468  0.56980  0.82431  1.0000
  C   C610      1.0  0.31805  0.63939  0.86633  1.0000
  C   C611      1.0  0.33759  0.62398  0.87990  1.0000
  C   C612      1.0  0.37444  0.63440  0.88326  1.0000
  C   C613      1.0  0.39190  0.66138  0.87332  1.0000
  C   C614      1.0  0.37244  0.67663  0.85966  1.0000
  C   C615      1.0  0.33594  0.66543  0.85606  1.0000
  H   H493      1.0  0.32395  0.60407  0.88796  1.0000
  H   H494      1.0  0.38884  0.62236  0.89381  1.0000
  H   H495      1.0  0.38543  0.69753  0.85188  1.0000
  H   H496      1.0  0.32115  0.67779  0.84569  1.0000
  C   C616      1.0  0.24420  0.72282  0.77231  1.0000
  C   C617      1.0  0.26663  0.69351  0.76842  1.0000
  C   C618      1.0  0.29035  0.69529  0.75455  1.0000
  C   C619      1.0  0.29496  0.72743  0.74279  1.0000
  C   C620      1.0  0.26660  0.75514  0.74750  1.0000
  C   C621      1.0  0.24366  0.75309  0.76162  1.0000
  H   H497      1.0  0.26652  0.66916  0.77646  1.0000
  H   H498      1.0  0.30579  0.66979  0.75378  1.0000
  H   H499      1.0  0.26192  0.78090  0.74082  1.0000
  H   H500      1.0  0.22529  0.77585  0.76434  1.0000
  C   C622      1.0  0.42872  0.51239  0.94115  1.0000
  C   C623      1.0  0.34809  0.94489  0.66546  1.0000
  H   H501      1.0  0.39449  0.97902  0.71574  1.0000
  C   C624      1.0  0.36237  0.52935  0.95716  1.0000
  C   C625      1.0  0.39087  0.55579  0.95646  1.0000
  C   C626      1.0  0.42417  0.54696  0.94845  1.0000
  P   P21       1.0  0.38663  0.59893  0.96739  1.0000
  C   C627      1.0  0.33815  0.61019  0.96956  1.0000
  S   S93       1.0  0.29959  0.77723  0.67308  1.0000
  H   H502      1.0  0.00187  0.74377  0.79886  1.0000
  C   C628      1.0  0.37888  0.74598  0.77732  1.0000
  H   H503      1.0  0.32619  0.98941  0.79491  1.0000
  H   H504      1.0  0.47337  0.59168  0.83414  1.0000
  H   H505      1.0  0.11064  0.75710  0.77404  1.0000
  C   C629      1.0  0.32008  0.63255  0.95763  1.0000
  C   C630      1.0  0.34148  0.52713  0.84601  1.0000
  C   C631      1.0  0.33598  0.72136  0.79810  1.0000
  H   H506      1.0  0.13806  0.70619  0.79090  1.0000
  C   C632      1.0  0.05706  0.73102  0.77228  1.0000
  C   C633      1.0  0.40907  0.63545  0.95548  1.0000
  C   C634      1.0  0.42875  0.66355  0.96347  1.0000
  C   C635      1.0  0.44432  0.69269  0.95418  1.0000
  C   C636      1.0  0.44037  0.69405  0.93688  1.0000
  C   C637      1.0  0.42113  0.66607  0.92879  1.0000
  C   C638      1.0  0.40576  0.63672  0.93802  1.0000
  H   H507      1.0  0.37993  0.53731  0.91339  1.0000
  C   C639      1.0  0.26261  0.62652  0.97297  1.0000
  Fe  Fe45      1.0  0.40012  0.78566  0.65836  1.0000
  H   H508      1.0  0.33662  0.53514  0.96345  1.0000
  H   H509      1.0  0.44684  0.56660  0.94805  1.0000
  H   H510      1.0  0.45438  0.50572  0.93493  1.0000
  C   C640      1.0  0.47947  0.72773  0.84098  1.0000
  H   H511      1.0  0.45994  0.71395  0.96042  1.0000
  C   C641      1.0  0.29454  0.71241  0.71462  1.0000
  C   C642      1.0  0.04413  0.55893  0.78232  1.0000
  H   H512      1.0  0.33472  0.64398  0.94699  1.0000
  C   C643      1.0  0.35492  0.70367  0.73975  1.0000
  H   H513      1.0  0.02024  0.49684  0.84382  1.0000
  H   H514      1.0  0.26264  0.55118  0.90774  1.0000
  C   C644      1.0  0.33467  0.98187  0.71621  1.0000
  H   H515      1.0  0.03814  0.69096  0.74114  1.0000
  C   C645      1.0  0.40633  0.59357  0.98800  1.0000
  H   H516      1.0  0.32666  0.80834  0.73262  1.0000
  C   C646      1.0  0.01484  0.70783  0.73727  1.0000
  H   H517      1.0  0.39095  0.61530  0.93152  1.0000
  C   C647      1.0  0.32094  0.54513  0.91258  1.0000
  C   C648      1.0  0.28249  0.64065  0.95936  1.0000
  P   P22       1.0  0.38644  0.77010  0.75767  1.0000
  C   C649      1.0  0.29567  0.75942  0.71711  1.0000
  C   C650      1.0  0.36552  0.70773  0.80753  1.0000
  C   C651      1.0  0.40849  0.73209  0.78685  1.0000
  H   H518      1.0  0.03624  0.71616  0.71242  1.0000
  C   C652      1.0  0.07757  0.54781  0.77528  1.0000
  H   H519      1.0  0.09397  0.56737  0.76804  1.0000
  C   C653      1.0  0.28881  0.54085  0.90316  1.0000
  C   C654      1.0  0.36301  0.58296  0.82321  1.0000
  H   H520      1.0  0.32778  0.88035  0.78255  1.0000
  H   H521      1.0  0.33831  0.88339  0.69738  1.0000
  H   H522      1.0  0.44740  0.80461  0.80997  1.0000
  H   H523      1.0  0.39647  0.91696  0.70328  1.0000
  H   H524      1.0  0.43601  0.54333  0.98258  1.0000
  C   C655      1.0  0.09395  0.73319  0.77738  1.0000
  C   C656      1.0  0.28028  0.60412  0.98485  1.0000
  H   H525      1.0  0.11675  0.50337  0.77289  1.0000
  C   C657      1.0  0.44425  0.74354  0.73775  1.0000
  C   C658      1.0  0.34141  0.55338  0.81791  1.0000
  H   H526      1.0  0.48383  0.85818  0.66088  1.0000
  C   C659      1.0  0.29049  0.52444  0.88750  1.0000
  H   H527      1.0  0.38313  0.50784  0.88593  1.0000
  C   C660      1.0  0.34265  0.74044  0.78312  1.0000
  C   C661      1.0  0.01203  0.67498  0.82979  1.0000
  H   H528      1.0  0.04535  0.75362  0.76502  1.0000
  H   H529      1.0  0.27524  0.97461  0.71550  1.0000
  C   C662      1.0  0.31145  0.93306  0.66376  1.0000
  C   C663      1.0  0.30338  0.92691  0.70633  1.0000
  H   H530      1.0  0.43282  0.66293  0.97681  1.0000
  H   H531      1.0  0.00869  0.70439  0.83157  1.0000
  C   C664      1.0  0.36885  0.96490  0.71307  1.0000
  Fe  Fe46      1.0  0.32976  0.82912  0.66421  1.0000
  C   C665      1.0  0.10949  0.70452  0.78689  1.0000
  C   C666      1.0  0.40176  0.71314  0.80192  1.0000
  H   H532      1.0  0.48842  0.70708  0.85006  1.0000
  C   C667      1.0  0.37480  0.58421  0.83974  1.0000
  C   C668      1.0  0.05103  0.67178  0.78657  1.0000
  C   C669      1.0  0.18940  0.50564  0.80085  1.0000
  H   H533      1.0  0.31968  0.55854  0.92454  1.0000
  C   C670      1.0  0.48093  0.74234  0.73228  1.0000
  H   H534      1.0  0.26880  0.65807  0.95015  1.0000
  H   H535      1.0  0.39132  0.60723  0.84396  1.0000
  C   C671      1.0  0.45628  0.78296  0.81854  1.0000
  C   C672      1.0  0.28354  0.96020  0.66273  1.0000
  C   C673      1.0  0.35484  0.53312  0.90632  1.0000
  H   H536      1.0  0.43666  0.73571  0.78270  1.0000
  H   H537      1.0  0.03467  0.64847  0.79086  1.0000
  C   C674      1.0  0.47436  0.50350  0.89384  1.0000
  S   S94       1.0  0.29877  0.88506  0.66330  1.0000
  C   C675      1.0  0.35655  0.51640  0.89075  1.0000
  H   H538      1.0  0.33190  0.55259  0.80513  1.0000
  C   C676      1.0  0.38860  0.84330  0.74666  1.0000
  C   C677      1.0  0.32435  0.51172  0.88124  1.0000
  C   C678      1.0  0.03556  0.69985  0.77653  1.0000
  C   C679      1.0  0.03678  0.49829  0.79541  1.0000
  C   C680      1.0  0.30193  0.96238  0.71300  1.0000
  H   H539      1.0  0.40456  0.83309  0.73625  1.0000
  H   H540      1.0  0.37009  0.60515  0.81456  1.0000
  C   C681      1.0  0.35520  0.75064  0.74272  1.0000
  H   H541      1.0  0.42389  0.72753  0.73119  1.0000
  H   H542      1.0  0.42454  0.70270  0.80935  1.0000
  H   H543      1.0  0.31942  0.75115  0.77609  1.0000
  C   C682      1.0  0.32438  0.68446  0.72561  1.0000
  H   H544      1.0  0.38509  0.99165  0.66727  1.0000
  H   H545      1.0  0.23352  0.63300  0.97432  1.0000
  C   C683      1.0  0.36700  0.49486  0.94976  1.0000
  S   S95       1.0  0.47820  0.59932  0.90918  1.0000
  H   H546      1.0  0.27612  0.70055  0.70556  1.0000
  H   H547      1.0  0.37381  0.68607  0.74661  1.0000
  H   H548      1.0  0.27772  0.77702  0.70972  1.0000
  C   C684      1.0  0.43418  0.76602  0.75112  1.0000
  H   H549      1.0  0.27810  0.91241  0.70326  1.0000
  C   C685      1.0  0.43615  0.77599  0.83313  1.0000
  C   C686      1.0  0.46157  0.78705  0.75900  1.0000
  C   C687      1.0  0.33091  0.52539  0.82919  1.0000
  H   H550      1.0  0.35004  0.92325  0.76024  1.0000
  H   H551      1.0  0.36021  0.69300  0.81917  1.0000
  C   C688      1.0  0.32612  0.77871  0.73123  1.0000
  H   H552      1.0  0.09996  0.65207  0.79913  1.0000
  C   C689      1.0  0.35662  0.98308  0.66593  1.0000
  C   C690      1.0  0.36419  0.55642  0.85108  1.0000
  H   H553      1.0  0.03448  0.58699  0.78046  1.0000
  H   H554      1.0  0.38899  0.89947  0.73736  1.0000
  H   H555      1.0  0.41164  0.79204  0.83587  1.0000
  H   H556      1.0  0.45261  0.71657  0.92970  1.0000
  Fe  Fe47      1.0  0.48250  0.65179  0.89392  1.0000
  H   H557      1.0  0.36977  0.92453  0.66671  1.0000
  C   C691      1.0  0.33744  0.91045  0.70302  1.0000
  C   C692      1.0  0.37953  0.88087  0.74715  1.0000
  C   C693      1.0  0.35765  0.89426  0.76007  1.0000
  C   C694      1.0  0.34512  0.87011  0.77262  1.0000
  C   C695      1.0  0.35435  0.83253  0.77224  1.0000
  C   C696      1.0  0.37627  0.81884  0.75926  1.0000
  C   C697      1.0  0.09036  0.51176  0.77800  1.0000
  C   C698      1.0  0.99315  0.50376  0.83907  1.0000
  H   H558      1.0  0.48822  0.72564  0.72164  1.0000
  C   C699      1.0  0.25577  0.49608  0.84748  1.0000
  H   H559      1.0  0.20224  0.49878  0.83582  1.0000
  C   C700      1.0  0.48685  0.78211  0.67989  1.0000
  C   C701      1.0  0.48808  0.76235  0.81515  1.0000
  H   H560      1.0  0.49211  0.69938  0.79351  1.0000
  Fe  Fe48      1.0  0.69723  0.16282  0.30128  1.0000
  C   C702      1.0  0.51616  0.22368  0.15743  1.0000
  S   S96       1.0  0.74052  0.19005  0.28467  1.0000
  Fe  Fe49      1.0  0.61661  0.14317  0.30296  1.0000
  S   S97       1.0  0.56653  0.13814  0.28665  1.0000
  H   H561      1.0  0.65005  0.40690  0.00212  1.0000
  P   P23       1.0  0.74468  0.04833  0.25206  1.0000
  S   S98       1.0  0.64680  0.19655  0.30641  1.0000
  S   S99       1.0  0.66637  0.11055  0.29565  1.0000
  Fe  Fe50      1.0  0.74406  0.24163  0.18936  1.0000
  S   S100      1.0  0.78067  0.22262  0.16846  1.0000
  S   S101      1.0  0.71146  0.20326  0.20669  1.0000
  Fe  Fe51      1.0  0.74919  0.32235  0.17789  1.0000
  S   S102      1.0  0.78544  0.30938  0.15592  1.0000
  S   S103      1.0  0.72757  0.37808  0.18585  1.0000
  Fe  Fe52      1.0  0.74614  0.26149  0.15235  1.0000
  S   S104      1.0  0.72261  0.24442  0.12714  1.0000
  Fe  Fe53      1.0  0.81716  0.27230  0.17383  1.0000
  S   S105      1.0  0.87897  0.27788  0.18126  1.0000
  S   S106      1.0  0.70823  0.27746  0.17298  1.0000
  S   S107      1.0  0.78188  0.28805  0.19595  1.0000
  C   C703      1.0  0.83200  0.11065  0.23508  1.0000
  C   C704      1.0  0.54704  0.28150  0.21222  1.0000
  H   H562      1.0  0.67465  0.01244  0.29776  1.0000
  H   H563      1.0  0.60524  0.02798  0.31211  1.0000
  S   S108      1.0  0.55992  0.22820  0.09671  1.0000
  C   C705      1.0  0.50790  0.22446  0.14033  1.0000
  H   H564      1.0  0.61040  0.46062  0.99612  1.0000
  H   H565      1.0  0.69141  0.01449  0.22899  1.0000
  P   P24       1.0  0.63302  0.47367  0.10582  1.0000
  C   C706      1.0  0.75752  0.41407  0.17990  1.0000
  C   C707      1.0  0.74981  0.45076  0.18416  1.0000
  H   H566      1.0  0.62809  0.11791  0.25724  1.0000
  C   C708      1.0  0.81296  0.43457  0.16566  1.0000
  C   C709      1.0  0.78929  0.40616  0.17081  1.0000
  H   H567      1.0  0.72534  0.45694  0.19134  1.0000
  H   H568      1.0  0.79615  0.37810  0.16791  1.0000
  C   C710      1.0  0.92524  0.27592  0.17307  1.0000
  C   C711      1.0  0.95517  0.28539  0.18343  1.0000
  C   C712      1.0  0.93310  0.26548  0.15671  1.0000
  H   H569      1.0  0.94975  0.29359  0.19610  1.0000
  H   H570      1.0  0.91068  0.25804  0.14852  1.0000
  C   C713      1.0  0.67588  0.24100  0.12026  1.0000
  C   C714      1.0  0.66732  0.21270  0.10920  1.0000
  C   C715      1.0  0.63191  0.20976  0.10224  1.0000
  C   C716      1.0  0.60425  0.23551  0.10582  1.0000
  C   C717      1.0  0.61251  0.26430  0.11682  1.0000
  C   C718      1.0  0.64829  0.26699  0.12404  1.0000
  H   H571      1.0  0.68833  0.19279  0.10595  1.0000
  H   H572      1.0  0.62607  0.18737  0.09384  1.0000
  H   H573      1.0  0.59140  0.28425  0.11982  1.0000
  H   H574      1.0  0.65493  0.28952  0.13217  1.0000
  C   C719      1.0  0.52752  0.15716  0.29624  1.0000
  H   H575      1.0  0.73077  0.19911  0.05103  1.0000
  H   H576      1.0  0.64200  0.27173  0.21106  1.0000
  H   H577      1.0  0.81415  0.44854  0.25043  1.0000
  H   H578      1.0  0.54024  0.30294  0.18733  1.0000
  C   C720      1.0  0.73186  0.19439  0.26306  1.0000
  C   C721      1.0  0.75851  0.21090  0.25260  1.0000
  C   C722      1.0  0.75244  0.21423  0.23532  1.0000
  C   C723      1.0  0.71992  0.20050  0.22836  1.0000
  C   C724      1.0  0.69341  0.18373  0.23882  1.0000
  C   C725      1.0  0.69899  0.18143  0.25615  1.0000
  H   H579      1.0  0.78404  0.22093  0.25787  1.0000
  H   H580      1.0  0.77321  0.22668  0.22732  1.0000
  H   H581      1.0  0.66823  0.17296  0.23351  1.0000
  H   H582      1.0  0.67800  0.16941  0.26416  1.0000
  H   H583      1.0  0.68155  0.32512  0.20313  1.0000
  H   H584      1.0  0.70313  0.38435  0.28272  1.0000
  C   C726      1.0  0.70603  0.32968  0.22745  1.0000
  H   H585      1.0  0.53280  0.24842  0.30559  1.0000
  C   C727      1.0  0.58914  0.03607  0.28656  1.0000
  H   H586      1.0  0.55640  0.25300  0.23565  1.0000
  H   H587      1.0  0.74333  0.00079  0.28269  1.0000
  H   H588      1.0  0.77530  0.12787  0.29981  1.0000
  C   C728      1.0  0.54778  0.27898  0.19484  1.0000
  C   C729      1.0  0.63378  0.27031  0.01156  1.0000
  C   C730      1.0  0.49462  0.16111  0.28726  1.0000
  H   H589      1.0  0.56466  0.47436  0.15914  1.0000
  C   C731      1.0  0.84979  0.36125  0.20791  1.0000
  H   H590      1.0  0.60007  0.06395  0.28577  1.0000
  C   C732      1.0  0.76518  0.07174  0.30779  1.0000
  C   C733      1.0  0.67769  0.03658  0.23551  1.0000
  C   C734      1.0  0.75352  0.05711  0.27388  1.0000
  H   H591      1.0  0.64426  0.24600  0.23979  1.0000
  C   C735      1.0  0.80573  0.47112  0.16996  1.0000
  C   C736      1.0  0.55668  0.25094  0.22219  1.0000
  C   C737      1.0  0.76229  0.09305  0.27906  1.0000
  C   C738      1.0  0.64183  0.09508  0.25118  1.0000
  C   C739      1.0  0.58908  0.41081  0.10231  1.0000
  H   H592      1.0  0.90327  0.35327  0.19711  1.0000
  H   H593      1.0  0.68142  0.21632  0.03111  1.0000
  S   S109      1.0  0.51704  0.31688  0.07412  1.0000
  C   C740      1.0  0.85985  0.43650  0.20068  1.0000
  H   H594      1.0  0.73979  0.43824  0.30379  1.0000
  C   C741      1.0  0.62520  0.42499  0.10241  1.0000
  H   H595      1.0  0.57503  0.18898  0.19187  1.0000
  C   C742      1.0  0.68203  0.31433  0.21580  1.0000
  H   H596      1.0  0.59828  0.20230  0.01387  1.0000
  C   C743      1.0  0.74302  0.48867  0.13445  1.0000
  C   C744      1.0  0.61259  0.35012  0.09555  1.0000
  H   H597      1.0  0.80742  0.01159  0.23525  1.0000
  H   H598      1.0  0.61151  0.45142  0.13958  1.0000
  C   C745      1.0  0.75632  0.03604  0.30282  1.0000
  H   H599      1.0  0.80522  0.44359  0.21081  1.0000
  H   H600      1.0  0.72902  0.09789  0.22317  1.0000
  H   H601      1.0  0.52640  0.20010  0.06637  1.0000
  C   C746      1.0  0.60624  0.26368  0.28001  1.0000
  C   C747      1.0  0.57616  0.24564  0.28742  1.0000
  C   C748      1.0  0.55616  0.26274  0.30005  1.0000
  H   H602      1.0  0.60754  0.32124  0.09291  1.0000
  H   H603      1.0  0.57015  0.03618  0.26122  1.0000
  C   C749      1.0  0.49477  0.36887  0.30170  1.0000
  H   H604      1.0  0.50362  0.43154  0.01813  1.0000
  C   C750      1.0  0.60925  0.34008  0.15104  1.0000
  C   C751      1.0  0.53612  0.17386  0.04294  1.0000
  C   C752      1.0  0.67072  0.27745  0.00719  1.0000
  C   C753      1.0  0.66082  0.26998  0.23650  1.0000
  H   H605      1.0  0.86208  0.46533  0.19694  1.0000
  H   H606      1.0  0.62221  0.24981  0.27056  1.0000
  H   H607      1.0  0.56862  0.21812  0.28352  1.0000
  C   C754      1.0  0.56614  0.29811  0.30540  1.0000
  C   C755      1.0  0.65898  0.16947  0.15007  1.0000
  C   C756      1.0  0.82209  0.38653  0.21188  1.0000
  C   C757      1.0  0.82729  0.42418  0.20841  1.0000
  C   C758      1.0  0.69668  0.05735  0.24742  1.0000
  H   H608      1.0  0.52750  0.23579  0.13136  1.0000
  C   C759      1.0  0.71052  0.21984  0.05432  1.0000
  H   H609      1.0  0.63888  0.31338  0.27907  1.0000
  C   C760      1.0  0.72539  0.46026  0.31009  1.0000
  Fe  Fe54      1.0  0.51084  0.26469  0.08934  1.0000
  C   C761      1.0  0.62292  0.07400  0.23952  1.0000
  P   P25       1.0  0.61939  0.26839  0.03309  1.0000
  C   C762      1.0  0.65631  0.25656  0.04731  1.0000
  C   C763      1.0  0.60169  0.31396  0.03744  1.0000
  C   C764      1.0  0.62618  0.34277  0.04132  1.0000
  C   C765      1.0  0.61279  0.37837  0.04432  1.0000
  C   C766      1.0  0.57498  0.38570  0.04306  1.0000
  C   C767      1.0  0.55065  0.35748  0.03869  1.0000
  C   C768      1.0  0.56388  0.32169  0.03593  1.0000
  C   C769      1.0  0.65719  0.27177  0.06330  1.0000
  C   C770      1.0  0.68525  0.26201  0.07447  1.0000
  H   H610      1.0  0.73312  0.22803  0.07889  1.0000
  C   C771      1.0  0.58553  0.23230  0.03642  1.0000
  C   C772      1.0  0.58163  0.20336  0.02503  1.0000
  C   C773      1.0  0.62283  0.47831  0.07113  1.0000
  H   H611      1.0  0.55506  0.36264  0.09908  1.0000
  C   C774      1.0  0.54095  0.20169  0.05459  1.0000
  C   C775      1.0  0.56527  0.23100  0.05132  1.0000
  H   H612      1.0  0.76895  0.07746  0.32090  1.0000
  H   H613      1.0  0.57427  0.19399  0.22249  1.0000
  H   H614      1.0  0.89197  0.44766  0.12788  1.0000
  H   H615      1.0  0.65563  0.33770  0.04208  1.0000
  H   H616      1.0  0.63173  0.40030  0.04758  1.0000
  H   H617      1.0  0.56443  0.41319  0.04547  1.0000
  H   H618      1.0  0.52133  0.36320  0.03765  1.0000
  H   H619      1.0  0.54451  0.30018  0.03266  1.0000
  H   H620      1.0  0.63584  0.29058  0.06733  1.0000
  H   H621      1.0  0.68582  0.27374  0.08682  1.0000
  H   H622      1.0  0.53919  0.30726  0.21798  1.0000
  C   C776      1.0  0.59360  0.47380  0.13566  1.0000
  C   C777      1.0  0.68088  0.28096  0.99040  1.0000
  C   C778      1.0  0.81037  0.08496  0.24396  1.0000
  C   C779      1.0  0.56703  0.48675  0.14682  1.0000
  H   H623      1.0  0.56898  0.25206  0.06063  1.0000
  C   C780      1.0  0.50546  0.25560  0.99190  1.0000
  H   H624      1.0  0.98415  0.41162  0.12033  1.0000
  H   H625      1.0  0.69164  0.28068  0.01668  1.0000
  C   C781      1.0  0.70994  0.28694  0.30345  1.0000
  C   C782      1.0  0.93975  0.47479  0.18849  1.0000
  H   H626      1.0  0.94639  0.40110  0.22058  1.0000
  H   H627      1.0  0.96900  0.47998  0.16495  1.0000
  C   C783      1.0  0.70524  0.35703  0.28830  1.0000
  C   C784      1.0  0.82975  0.28194  0.23940  1.0000
  C   C785      1.0  0.85252  0.27678  0.25326  1.0000
  C   C786      1.0  0.84107  0.28915  0.26885  1.0000
  C   C787      1.0  0.80675  0.30649  0.27060  1.0000
  C   C788      1.0  0.78331  0.31095  0.25678  1.0000
  C   C789      1.0  0.79541  0.29919  0.24113  1.0000
  P   P26       1.0  0.73957  0.33463  0.25871  1.0000
  C   C790      1.0  0.70757  0.31531  0.24382  1.0000
  C   C791      1.0  0.72163  0.32778  0.27962  1.0000
  C   C792      1.0  0.72401  0.29277  0.28739  1.0000
  C   C793      1.0  0.68499  0.28501  0.24818  1.0000
  C   C794      1.0  0.74622  0.38331  0.25403  1.0000
  C   C795      1.0  0.71590  0.40558  0.24956  1.0000
  C   C796      1.0  0.72102  0.44299  0.24543  1.0000
  C   C797      1.0  0.75639  0.45849  0.24579  1.0000
  C   C798      1.0  0.78667  0.43660  0.25033  1.0000
  C   C799      1.0  0.78167  0.39917  0.25446  1.0000
  H   H628      1.0  0.83857  0.27224  0.22729  1.0000
  H   H629      1.0  0.87900  0.26314  0.25191  1.0000
  H   H630      1.0  0.85875  0.28513  0.27961  1.0000
  H   H631      1.0  0.79857  0.31621  0.28275  1.0000
  H   H632      1.0  0.77814  0.30288  0.23030  1.0000
  H   H633      1.0  0.73672  0.26981  0.28102  1.0000
  H   H634      1.0  0.72392  0.35219  0.22345  1.0000
  H   H635      1.0  0.68662  0.27207  0.26036  1.0000
  H   H636      1.0  0.68837  0.39386  0.24903  1.0000
  H   H637      1.0  0.69762  0.45988  0.24171  1.0000
  H   H638      1.0  0.55329  0.15268  0.01926  1.0000
  C   C800      1.0  0.65492  0.40146  0.09872  1.0000
  H   H639      1.0  0.80561  0.38271  0.25777  1.0000
  C   C801      1.0  0.59564  0.31666  0.29750  1.0000
  C   C802      1.0  0.69364  0.31609  0.31198  1.0000
  C   C803      1.0  0.55648  0.17468  0.02816  1.0000
  C   C804      1.0  0.56670  0.21769  0.21478  1.0000
  C   C805      1.0  0.60699  0.26877  0.99895  1.0000
  C   C806      1.0  0.59818  0.21328  0.15911  1.0000
  C   C807      1.0  0.77953  0.12622  0.21772  1.0000
  H   H640      1.0  0.86063  0.11493  0.23848  1.0000
  C   C808      1.0  0.99217  0.28432  0.17763  1.0000
  C   C809      1.0  0.81655  0.13134  0.22199  1.0000
  C   C810      1.0  0.56729  0.21502  0.19741  1.0000
  C   C811      1.0  0.56079  0.42808  0.99235  1.0000
  C   C812      1.0  0.75051  0.02868  0.28598  1.0000
  H   H641      1.0  0.79605  0.37681  0.21699  1.0000
  C   C813      1.0  0.67872  0.08705  0.25491  1.0000
  C   C814      1.0  0.55856  0.24588  0.18731  1.0000
  C   C815      1.0  0.71190  0.23607  0.07001  1.0000
  C   C816      1.0  0.96861  0.40183  0.19552  1.0000
  H   H642      1.0  0.83310  0.15164  0.21524  1.0000
  H   H643      1.0  0.67164  0.34584  0.09291  1.0000
  C   C817      1.0  0.77307  0.07970  0.23976  1.0000
  H   H644      1.0  0.71178  0.25966  0.30926  1.0000
  H   H645      1.0  0.69359  0.10441  0.26342  1.0000
  P   P27       1.0  0.55951  0.24236  0.16486  1.0000
  H   H646      1.0  0.84553  0.33190  0.20997  1.0000
  H   H647      1.0  0.97565  0.25567  0.13832  1.0000
  H   H648      1.0  0.68295  0.41198  0.09828  1.0000
  C   C818      1.0  0.59725  0.48997  0.11971  1.0000
  C   C819      1.0  0.63109  0.21406  0.16841  1.0000
  C   C820      1.0  0.56764  0.28818  0.15615  1.0000
  C   C821      1.0  0.60257  0.30473  0.15773  1.0000
  C   C822      1.0  0.69134  0.35114  0.30443  1.0000
  C   C823      1.0  0.58106  0.35928  0.14278  1.0000
  C   C824      1.0  0.54601  0.34345  0.14145  1.0000
  C   C825      1.0  0.53912  0.30825  0.14828  1.0000
  H   H649      1.0  0.68282  0.15351  0.14629  1.0000
  C   C826      1.0  0.59174  0.01584  0.30146  1.0000
  H   H650      1.0  0.60299  0.34454  0.30090  1.0000
  H   H651      1.0  0.63387  0.23177  0.17908  1.0000
  H   H652      1.0  0.57810  0.26522  0.00208  1.0000
  C   C827      1.0  0.65953  0.28444  0.22029  1.0000
  H   H653      1.0  0.58638  0.38632  0.13732  1.0000
  H   H654      1.0  0.52426  0.35837  0.13494  1.0000
  H   H655      1.0  0.51158  0.29693  0.14724  1.0000
  C   C828      1.0  0.60646  0.36709  0.99900  1.0000
  C   C829      1.0  0.66125  0.19222  0.16391  1.0000
  H   H656      1.0  0.68670  0.19339  0.17099  1.0000
  C   C830      1.0  0.97012  0.26422  0.15093  1.0000
  H   H657      1.0  0.76039  0.48738  0.24239  1.0000
  H   H658      1.0  0.61801  0.44881  0.07142  1.0000
  P   P28       1.0  0.92986  0.42601  0.18644  1.0000
  C   C831      1.0  0.58294  0.37347  0.09899  1.0000
  C   C832      1.0  0.92309  0.41292  0.16502  1.0000
  C   C833      1.0  0.92744  0.37584  0.16047  1.0000
  C   C834      1.0  0.91952  0.36482  0.14425  1.0000
  C   C835      1.0  0.90716  0.39071  0.13243  1.0000
  C   C836      1.0  0.90260  0.42766  0.13685  1.0000
  C   C837      1.0  0.91025  0.43868  0.15310  1.0000
  H   H659      1.0  0.59449  0.08057  0.23648  1.0000
  C   C838      1.0  0.76850  0.10013  0.29591  1.0000
  H   H660      1.0  0.62497  0.29024  0.16387  1.0000
  C   C839      1.0  0.75539  0.00049  0.24782  1.0000
  H   H661      1.0  0.82255  0.06963  0.25428  1.0000
  C   C840      1.0  0.68267  0.22983  0.04304  1.0000
  H   H662      1.0  0.63656  0.35223  0.15205  1.0000
  H   H663      1.0  0.67874  0.37371  0.31111  1.0000
  H   H664      1.0  0.93624  0.35521  0.16953  1.0000
  C   C841      1.0  0.62106  0.40280  0.99935  1.0000
  C   C842      1.0  0.77409  0.47939  0.17924  1.0000
  H   H665      1.0  0.57171  0.18885  0.13761  1.0000
  H   H666      1.0  0.56553  0.42856  0.10462  1.0000
  C   C843      1.0  0.52945  0.16978  0.31259  1.0000
  C   C844      1.0  0.64861  0.36406  0.09547  1.0000
  H   H667      1.0  0.92243  0.33600  0.14096  1.0000
  H   H668      1.0  0.90048  0.38199  0.11994  1.0000
  C   C845      1.0  0.56911  0.36164  0.99537  1.0000
  C   C846      1.0  0.57235  0.02036  0.27272  1.0000
  H   H669      1.0  0.51712  0.15130  0.04555  1.0000
  H   H670      1.0  0.83725  0.42791  0.15851  1.0000
  H   H671      1.0  0.76400  0.11584  0.27015  1.0000
  C   C847      1.0  0.59610  0.18995  0.14530  1.0000
  H   H672      1.0  0.62482  0.15099  0.12993  1.0000
  H   H673      1.0  0.62636  0.02880  0.22242  1.0000
  C   C848      1.0  0.61580  0.29930  0.28495  1.0000
  C   C849      1.0  0.75780  0.10059  0.22655  1.0000
  H   H674      1.0  0.76742  0.14275  0.20774  1.0000
  C   C850      1.0  0.62632  0.16810  0.14087  1.0000
  H   H675      1.0  0.90461  0.46699  0.15646  1.0000
  C   C851      1.0  0.88263  0.37354  0.20051  1.0000
  C   C852      1.0  0.54632  0.39203  0.99204  1.0000
  C   C853      1.0  0.49586  0.26600  0.00829  1.0000
  C   C854      1.0  0.88809  0.41131  0.19697  1.0000
  C   C855      1.0  0.67696  0.47925  0.11649  1.0000
  H   H676      1.0  0.51708  0.38870  0.30252  1.0000
  H   H677      1.0  0.49568  0.20738  0.18188  1.0000
  H   H678      1.0  0.51713  0.04873  0.30375  1.0000
  C   C856      1.0  0.59837  0.43324  0.99599  1.0000
  H   H679      1.0  0.91750  0.47850  0.21346  1.0000
  H   H680      1.0  0.75320  0.01416  0.31212  1.0000
  P   P29       1.0  0.53849  0.32072  0.32096  1.0000
  C   C857      1.0  0.49738  0.33412  0.30967  1.0000
  C   C858      1.0  0.64086  0.04480  0.23165  1.0000
  C   C859      1.0  0.96937  0.39363  0.21267  1.0000
  H   H681      1.0  0.55766  0.33393  0.99510  1.0000
  H   H682      1.0  0.55487  0.16749  0.31953  1.0000
  H   H683      1.0  0.62424  0.34376  0.00155  1.0000
  C   C860      1.0  0.49854  0.18627  0.31992  1.0000
  H   H684      1.0  0.67083  0.42923  0.13162  1.0000
  H   H685      1.0  0.51964  0.22966  0.99000  1.0000
  H   H686      1.0  0.50248  0.24795  0.01875  1.0000
  H   H687      1.0  0.51635  0.07554  0.27554  1.0000
  C   C861      1.0  0.72064  0.45788  0.13766  1.0000
  C   C862      1.0  0.68769  0.45328  0.12882  1.0000
  H   H688      1.0  0.72893  0.43758  0.14702  1.0000
  H   H689      1.0  0.61317  0.48249  0.04464  1.0000
  C   C863      1.0  0.93079  0.49316  0.20324  1.0000
  H   H690      1.0  0.49319  0.15190  0.27453  1.0000
  H   H691      1.0  0.76853  0.49241  0.14128  1.0000
  Fe  Fe55      1.0  0.67666  0.42308  0.59525  1.0000
  S   S110      1.0  0.67210  0.37754  0.61548  1.0000
  Fe  Fe56      1.0  0.67317  0.47189  0.42945  1.0000
  S   S111      1.0  0.63530  0.42881  0.57462  1.0000
  H   H692      1.0  0.61657  0.27302  0.61670  1.0000
  C   C864      1.0  0.52879  0.04489  0.33635  1.0000
  S   S112      1.0  0.71118  0.21108  0.63764  1.0000
  H   H693      1.0  0.54801  0.36298  0.54012  1.0000
  H   H694      1.0  0.74580  0.44825  0.61650  1.0000
  S   S113      1.0  0.63826  0.21919  0.35373  1.0000
  H   H695      1.0  0.79496  0.21992  0.63278  1.0000
  C   C865      1.0  0.75287  0.43442  0.64247  1.0000
  Fe  Fe57      1.0  0.67035  0.41918  0.39876  1.0000
  S   S114      1.0  0.54296  0.43905  0.42283  1.0000
  S   S115      1.0  0.69639  0.37320  0.38282  1.0000
  C   C866      1.0  0.76415  0.39194  0.62007  1.0000
  H   H696      1.0  0.53690  0.46605  0.54253  1.0000
  S   S116      1.0  0.65646  0.12318  0.65412  1.0000
  S   S117      1.0  0.64664  0.41678  0.42488  1.0000
  C   C867      1.0  0.50515  0.42740  0.57092  1.0000
  C   C868      1.0  0.52207  0.42825  0.39043  1.0000
  S   S118      1.0  0.70216  0.47186  0.40411  1.0000
  C   C869      1.0  0.62754  0.31108  0.55125  1.0000
  H   H697      1.0  0.76201  0.44005  0.43896  1.0000
  C   C870      1.0  0.55007  0.18938  0.61304  1.0000
  C   C871      1.0  0.50051  0.39022  0.52935  1.0000
  C   C872      1.0  0.65398  0.26377  0.36005  1.0000
  C   C873      1.0  0.62993  0.28640  0.36923  1.0000
  C   C874      1.0  0.64194  0.32044  0.37577  1.0000
  C   C875      1.0  0.67867  0.33185  0.37375  1.0000
  C   C876      1.0  0.70249  0.30965  0.36425  1.0000
  C   C877      1.0  0.69022  0.27606  0.35732  1.0000
  H   H698      1.0  0.60183  0.27742  0.37145  1.0000
  H   H699      1.0  0.62282  0.33763  0.38251  1.0000
  H   H700      1.0  0.73092  0.31816  0.36249  1.0000
  H   H701      1.0  0.70924  0.25897  0.35045  1.0000
  C   C878      1.0  0.67677  0.22290  0.47480  1.0000
  C   C879      1.0  0.71455  0.34340  0.43851  1.0000
  C   C880      1.0  0.54994  0.26011  0.34228  1.0000
  H   H702      1.0  0.57781  0.35143  0.40908  1.0000
  H   H703      1.0  0.64107  0.32583  0.41038  1.0000
  C   C881      1.0  0.53292  0.48700  0.47941  1.0000
  C   C882      1.0  0.68272  0.33074  0.62082  1.0000
  C   C883      1.0  0.66903  0.31611  0.63596  1.0000
  C   C884      1.0  0.67673  0.27940  0.64102  1.0000
  C   C885      1.0  0.69866  0.25678  0.63109  1.0000
  C   C886      1.0  0.71255  0.27141  0.61595  1.0000
  C   C887      1.0  0.70439  0.30808  0.61076  1.0000
  H   H704      1.0  0.51692  0.39502  0.33261  1.0000
  H   H705      1.0  0.74387  0.46139  0.64649  1.0000
  H   H706      1.0  0.72976  0.25427  0.60821  1.0000
  H   H707      1.0  0.71521  0.31889  0.59910  1.0000
  C   C888      1.0  0.49486  0.40959  0.63359  1.0000
  C   C889      1.0  0.75389  0.42702  0.62547  1.0000
  S   S119      1.0  0.61925  0.12694  0.32992  1.0000
  S   S120      1.0  0.67737  0.03642  0.33280  1.0000
  C   C890      1.0  0.53493  0.44805  0.57668  1.0000
  H   H708      1.0  0.56247  0.43837  0.57463  1.0000
  C   C891      1.0  0.73625  0.26943  0.41524  1.0000
  C   C892      1.0  0.68090  0.23134  0.39832  1.0000
  C   C893      1.0  0.71756  0.22900  0.39299  1.0000
  C   C894      1.0  0.56179  0.33618  0.61137  1.0000
  H   H709      1.0  0.71181  0.42644  0.33169  1.0000
  C   C895      1.0  0.59749  0.25004  0.61579  1.0000
  H   H710      1.0  0.51343  0.33488  0.56971  1.0000
  H   H711      1.0  0.75073  0.29475  0.46080  1.0000
  C   C896      1.0  0.58447  0.33737  0.45096  1.0000
  Fe  Fe58      1.0  0.62167  0.48423  0.58505  1.0000
  H   H712      1.0  0.72757  0.34448  0.41217  1.0000
  C   C897      1.0  0.58226  0.30265  0.57951  1.0000
  S   S121      1.0  0.70687  0.14674  0.32829  1.0000
  C   C898      1.0  0.64033  0.31690  0.43702  1.0000
  H   H713      1.0  0.61903  0.43621  0.35201  1.0000
  H   H714      1.0  0.60014  0.46238  0.53100  1.0000
  H   H715      1.0  0.54202  0.35995  0.43497  1.0000
  C   C899      1.0  0.58917  0.34218  0.42092  1.0000
  C   C900      1.0  0.51227  0.42852  0.50474  1.0000
  H   H716      1.0  0.56922  0.34244  0.46231  1.0000
  C   C901      1.0  0.74765  0.39297  0.42411  1.0000
  S   S122      1.0  0.72194  0.45057  0.57997  1.0000
  C   C902      1.0  0.69613  0.27263  0.45601  1.0000
  H   H717      1.0  0.50045  0.22271  0.37446  1.0000
  H   H718      1.0  0.64922  0.37620  0.34645  1.0000
  Fe  Fe59      1.0  0.67871  0.45960  0.55951  1.0000
  C   C903      1.0  0.54942  0.41712  0.50503  1.0000
  C   C904      1.0  0.81033  0.24273  0.63806  1.0000
  H   H719      1.0  0.51367  0.22258  0.64715  1.0000
  H   H720      1.0  0.51823  0.41964  0.45942  1.0000
  H   H721      1.0  0.64924  0.40877  0.50128  1.0000
  C   C905      1.0  0.62011  0.32243  0.45172  1.0000
  S   S123      1.0  0.67547  0.43923  0.53216  1.0000
  Fe  Fe60      1.0  0.65419  0.17846  0.33307  1.0000
  C   C906      1.0  0.60639  0.21629  0.62354  1.0000
  C   C907      1.0  0.84864  0.24486  0.63618  1.0000
  H   H722      1.0  0.76178  0.26837  0.64780  1.0000
  H   H723      1.0  0.76352  0.38590  0.60689  1.0000
  H   H724      1.0  0.58506  0.05793  0.34297  1.0000
  H   H725      1.0  0.64454  0.24275  0.45405  1.0000
  C   C908      1.0  0.79145  0.27020  0.64666  1.0000
  C   C909      1.0  0.50192  0.01697  0.33505  1.0000
  S   S124      1.0  0.65960  0.47686  0.60658  1.0000
  C   C910      1.0  0.66746  0.44456  0.48103  1.0000
  H   H726      1.0  0.58942  0.16007  0.62846  1.0000
  C   C911      1.0  0.56583  0.33016  0.62860  1.0000
  H   H727      1.0  0.51644  0.22445  0.59767  1.0000
  C   C912      1.0  0.71602  0.36376  0.45326  1.0000
  C   C913      1.0  0.67909  0.45547  0.51088  1.0000
  H   H728      1.0  0.51609  0.42886  0.63733  1.0000
  C   C914      1.0  0.54117  0.22301  0.60517  1.0000
  C   C915      1.0  0.56420  0.25404  0.60700  1.0000
  C   C916      1.0  0.67001  0.24592  0.46096  1.0000
  H   H729      1.0  0.64489  0.31485  0.54033  1.0000
  C   C917      1.0  0.54065  0.23635  0.35556  1.0000
  H   H730      1.0  0.65580  0.42748  0.47142  1.0000
  C   C918      1.0  0.59455  0.29107  0.55027  1.0000
  H   H731      1.0  0.70265  0.35363  0.46451  1.0000
  H   H732      1.0  0.71511  0.20824  0.49433  1.0000
  C   C919      1.0  0.58254  0.18611  0.62232  1.0000
  C   C920      1.0  0.52890  0.48133  0.58480  1.0000
  C   C921      1.0  0.60361  0.41434  0.34608  1.0000
  H   H733      1.0  0.65244  0.33339  0.64387  1.0000
  C   C922      1.0  0.57211  0.28657  0.56438  1.0000
  C   C923      1.0  0.53789  0.38059  0.53007  1.0000
  P   P30       1.0  0.68763  0.30141  0.43789  1.0000
  C   C924      1.0  0.52608  0.28901  0.33761  1.0000
  C   C925      1.0  0.56226  0.39379  0.51783  1.0000
  C   C926      1.0  0.50431  0.30138  0.59195  1.0000
  C   C927      1.0  0.67177  0.25305  0.41199  1.0000
  H   H734      1.0  0.57574  0.25580  0.33573  1.0000
  H   H735      1.0  0.58644  0.27895  0.53857  1.0000
  H   H736      1.0  0.55283  0.44519  0.34543  1.0000
  H   H737      1.0  0.72431  0.21279  0.38215  1.0000
  C   C928      1.0  0.56903  0.34717  0.43557  1.0000
  P   P31       1.0  0.55258  0.29832  0.59758  1.0000
  H   H738      1.0  0.51008  0.40159  0.56475  1.0000
  C   C929      1.0  0.56639  0.37206  0.60473  1.0000
  C   C930      1.0  0.77301  0.37156  0.64878  1.0000
  H   H739      1.0  0.62565  0.33265  0.59222  1.0000
  H   H740      1.0  0.73444  0.41407  0.46477  1.0000
  H   H741      1.0  0.75807  0.28371  0.42175  1.0000
  C   C931      1.0  0.74527  0.24781  0.40151  1.0000
  H   H742      1.0  0.53188  0.16570  0.61199  1.0000
  H   H743      1.0  0.63187  0.21337  0.63049  1.0000
  H   H744      1.0  0.65947  0.21683  0.39161  1.0000
  H   H745      1.0  0.50466  0.42047  0.36506  1.0000
  H   H746      1.0  0.56874  0.42638  0.49552  1.0000
  H   H747      1.0  0.64319  0.25432  0.41590  1.0000
  C   C932      1.0  0.69787  0.48800  0.50631  1.0000
  H   H748      1.0  0.78004  0.33691  0.62715  1.0000
  C   C933      1.0  0.62485  0.32746  0.42167  1.0000
  C   C934      1.0  0.54616  0.39105  0.33481  1.0000
  C   C935      1.0  0.74951  0.41277  0.43888  1.0000
  C   C936      1.0  0.62071  0.38062  0.34278  1.0000
  C   C937      1.0  0.73002  0.35856  0.42389  1.0000
  H   H749      1.0  0.65651  0.20232  0.47857  1.0000
  H   H750      1.0  0.76207  0.25448  0.48532  1.0000
  C   C938      1.0  0.86804  0.27463  0.64286  1.0000
  H   H751      1.0  0.55021  0.42003  0.38809  1.0000
  C   C939      1.0  0.69927  0.27306  0.42029  1.0000
  C   C940      1.0  0.51111  0.43827  0.40646  1.0000
  C   C941      1.0  0.61622  0.32137  0.58054  1.0000
  C   C942      1.0  0.66374  0.43403  0.49805  1.0000
  H   H752      1.0  0.56260  0.37749  0.59155  1.0000
  Fe  Fe61      1.0  0.60080  0.45107  0.41404  1.0000
  H   H753      1.0  0.58156  0.35404  0.65195  1.0000
  C   C943      1.0  0.70982  0.22616  0.48365  1.0000
  C   C944      1.0  0.69144  0.48200  0.33398  1.0000
  C   C945      1.0  0.70959  0.45352  0.32576  1.0000
  C   C946      1.0  0.57772  0.40089  0.61493  1.0000
  H   H754      1.0  0.54682  0.27069  0.56348  1.0000
  H   H755      1.0  0.66428  0.34111  0.56729  1.0000
  H   H756      1.0  0.50889  0.48837  0.45460  1.0000
  H   H757      1.0  0.59128  0.38633  0.51837  1.0000
  H   H758      1.0  0.75872  0.40480  0.41265  1.0000
  C   C947      1.0  0.56419  0.03650  0.34227  1.0000
  H   H759      1.0  0.52248  0.07318  0.33264  1.0000
  H   H760      1.0  0.56130  0.30303  0.63411  1.0000
  C   C948      1.0  0.63849  0.32593  0.56642  1.0000
  C   C949      1.0  0.84912  0.30217  0.65149  1.0000
  S   S125      1.0  0.62231  0.44990  0.38792  1.0000
  C   C950      1.0  0.57301  0.00035  0.34712  1.0000
  C   C951      1.0  0.68739  0.47644  0.47645  1.0000
  C   C952      1.0  0.50771  0.24147  0.36433  1.0000
  C   C953      1.0  0.77337  0.36417  0.63166  1.0000
  H   H761      1.0  0.63223  0.31634  0.46376  1.0000
  C   C954      1.0  0.73385  0.39808  0.45346  1.0000
  C   C955      1.0  0.56630  0.41944  0.34225  1.0000
  C   C956      1.0  0.73626  0.25223  0.47859  1.0000
  H   H762      1.0  0.58262  0.42824  0.60960  1.0000
  H   H763      1.0  0.55903  0.21380  0.35896  1.0000
  H   H764      1.0  0.77369  0.24591  0.39737  1.0000
  C   C957      1.0  0.72961  0.27522  0.46474  1.0000
  P   P32       1.0  0.49565  0.46105  0.48911  1.0000
  H   H765      1.0  0.61410  0.32586  0.33326  1.0000
  H   H766      1.0  0.86318  0.22358  0.62944  1.0000
  C   C958      1.0  0.56364  0.35774  0.33069  1.0000
  H   H767      1.0  0.59725  0.02785  0.63698  1.0000
  C   C959      1.0  0.60074  0.35226  0.33527  1.0000
  C   C960      1.0  0.57708  0.35909  0.63879  1.0000
  C   C961      1.0  0.76261  0.40690  0.65411  1.0000
  H   H768      1.0  0.66612  0.26877  0.65273  1.0000
  C   C962      1.0  0.49330  0.32098  0.57756  1.0000
  C   C963      1.0  0.58884  0.48889  0.53448  1.0000
  H   H769      1.0  0.50006  0.19604  0.33254  1.0000
  C   C964      1.0  0.81066  0.29983  0.65365  1.0000
  C   C965      1.0  0.58386  0.39422  0.63189  1.0000
  C   C966      1.0  0.59162  0.01150  0.64812  1.0000
  H   H770      1.0  0.67965  0.47720  0.34628  1.0000
  H   H771      1.0  0.68289  0.31143  0.32446  1.0000
  H   H772      1.0  0.59389  0.41636  0.63961  1.0000
  C   C967      1.0  0.49630  0.42832  0.37741  1.0000
  H   H773      1.0  0.89770  0.27648  0.64122  1.0000
  S   S126      1.0  0.69645  0.48945  0.45508  1.0000
  H   H774      1.0  0.49851  0.28643  0.65548  1.0000
  H   H775      1.0  0.68637  0.01584  0.65499  1.0000
  H   H776      1.0  0.49344  0.43040  0.60840  1.0000
  C   C968      1.0  0.55318  0.49101  0.54101  1.0000
  Fe  Fe62      1.0  0.67112  0.09643  0.32282  1.0000
  C   C969      1.0  0.49360  0.29474  0.34682  1.0000
  H   H777      1.0  0.60076  0.99390  0.35140  1.0000
  C   C970      1.0  0.81818  0.10736  0.73623  1.0000
  Fe  Fe63      1.0  0.53283  0.30929  0.89664  1.0000
  C   C971      1.0  0.94490  0.23327  0.78580  1.0000
  S   S127      1.0  0.57849  0.32224  0.87707  1.0000
  S   S128      1.0  0.69740  0.04643  0.68857  1.0000
  C   C972      1.0  0.88220  0.44060  0.75021  1.0000
  C   C973      1.0  0.52043  0.18397  0.68078  1.0000
  S   S129      1.0  0.52581  0.33844  0.92126  1.0000
  Fe  Fe64      1.0  0.77295  0.28412  0.82804  1.0000
  S   S130      1.0  0.74515  0.29500  0.80351  1.0000
  S   S131      1.0  0.73747  0.26726  0.85087  1.0000
  Fe  Fe65      1.0  0.85184  0.29963  0.81321  1.0000
  S   S132      1.0  0.82742  0.31323  0.78798  1.0000
  S   S133      1.0  0.91503  0.31041  0.81304  1.0000
  Fe  Fe66      1.0  0.78336  0.34378  0.80166  1.0000
  S   S134      1.0  0.75673  0.39751  0.79351  1.0000
  Fe  Fe67      1.0  0.79139  0.26334  0.79189  1.0000
  S   S135      1.0  0.78773  0.22275  0.77055  1.0000
  S   S136      1.0  0.80955  0.33482  0.82670  1.0000
  S   S137      1.0  0.81741  0.24772  0.81653  1.0000
  H   H778      1.0  0.79777  0.15444  0.79221  1.0000
  C   C974      1.0  0.51411  0.21047  0.83114  1.0000
  Fe  Fe68      1.0  0.65873  0.17867  0.69530  1.0000
  C   C975      1.0  0.71450  0.26691  0.68931  1.0000
  S   S138      1.0  0.65488  0.21256  0.71897  1.0000
  Fe  Fe69      1.0  0.67827  0.10403  0.67907  1.0000
  H   H779      1.0  0.74140  0.09498  0.71232  1.0000
  S   S139      1.0  0.63377  0.20264  0.67178  1.0000
  S   S140      1.0  0.62869  0.12460  0.69313  1.0000
  C   C976      1.0  0.75107  0.22175  0.75600  1.0000
  C   C977      1.0  0.71795  0.24066  0.75870  1.0000
  C   C978      1.0  0.68876  0.23778  0.74720  1.0000
  C   C979      1.0  0.69255  0.21623  0.73287  1.0000
  C   C980      1.0  0.72584  0.19772  0.73008  1.0000
  C   C981      1.0  0.75492  0.20046  0.74161  1.0000
  H   H780      1.0  0.71482  0.25735  0.76967  1.0000
  H   H781      1.0  0.66310  0.25220  0.74944  1.0000
  H   H782      1.0  0.72901  0.18080  0.71918  1.0000
  H   H783      1.0  0.78048  0.18582  0.73938  1.0000
  Fe  Fe70      1.0  0.49780  0.28654  0.93099  1.0000
  C   C982      1.0  0.67814  0.49217  0.88690  1.0000
  C   C983      1.0  0.70780  0.41288  0.85000  1.0000
  C   C984      1.0  0.82473  0.43130  0.79213  1.0000
  C   C985      1.0  0.78648  0.43592  0.79333  1.0000
  C   C986      1.0  0.65414  0.27816  0.97791  1.0000
  H   H784      1.0  0.83637  0.40382  0.79144  1.0000
  H   H785      1.0  0.83892  0.46896  0.70877  1.0000
  H   H786      1.0  0.71573  0.23995  0.69541  1.0000
  H   H787      1.0  0.57796  0.27747  0.74880  1.0000
  C   C987      1.0  0.84002  0.35494  0.70775  1.0000
  H   H788      1.0  0.88177  0.39577  0.71282  1.0000
  C   C988      1.0  0.62305  0.30656  0.87038  1.0000
  C   C989      1.0  0.64101  0.27597  0.87758  1.0000
  C   C990      1.0  0.67586  0.26447  0.87147  1.0000
  C   C991      1.0  0.69314  0.28289  0.85792  1.0000
  C   C992      1.0  0.67488  0.31312  0.85058  1.0000
  C   C993      1.0  0.64047  0.32510  0.85693  1.0000
  H   H789      1.0  0.62819  0.26124  0.88790  1.0000
  H   H790      1.0  0.68955  0.24104  0.87729  1.0000
  H   H791      1.0  0.68748  0.32747  0.84010  1.0000
  H   H792      1.0  0.62713  0.34892  0.85137  1.0000
  P   P33       1.0  0.66947  0.45346  0.87350  1.0000
  C   C994      1.0  0.51530  0.15389  0.67023  1.0000
  H   H793      1.0  0.88071  0.42262  0.68420  1.0000
  H   H794      1.0  0.62820  0.07228  0.72226  1.0000
  C   C995      1.0  0.96052  0.29327  0.81776  1.0000
  C   C996      1.0  0.96678  0.25877  0.82545  1.0000
  C   C997      1.0  0.97076  0.20480  0.78751  1.0000
  H   H795      1.0  0.94351  0.24148  0.82889  1.0000
  H   H796      1.0  0.54953  0.42218  0.84774  1.0000
  C   C998      1.0  0.74768  0.48281  0.68417  1.0000
  H   H797      1.0  0.59154  0.29469  0.77774  1.0000
  H   H798      1.0  0.65324  0.33549  0.68025  1.0000
  H   H799      1.0  0.73338  0.47423  0.89351  1.0000
  C   C999      1.0  0.76892  0.10352  0.71592  1.0000
  S   S141      1.0  0.55210  0.13429  0.65921  1.0000
  H   H800      1.0  0.54433  0.42919  0.92875  1.0000
  H   H801      1.0  0.54786  0.19505  0.68263  1.0000
  C   C1000     1.0  0.67932  0.32087  0.68090  1.0000
  H   H802      1.0  0.78549  0.39392  0.75858  1.0000
  H   H803      1.0  0.79935  0.31679  0.69923  1.0000
  C   C1001     1.0  0.69402  0.12282  0.75244  1.0000
  H   H804      1.0  0.87752  0.45883  0.79043  1.0000
  H   H805      1.0  0.68572  0.39283  0.85130  1.0000
  C   C1002     1.0  0.78180  0.09728  0.73221  1.0000
  H   H806      1.0  0.96419  0.18059  0.79508  1.0000
  C   C1003     1.0  0.70598  0.09046  0.74461  1.0000
  H   H807      1.0  0.54050  0.41720  0.95901  1.0000
  H   H808      1.0  0.72815  0.32928  0.71112  1.0000
  H   H809      1.0  0.54789  0.45056  0.88297  1.0000
  C   C1004     1.0  0.77827  0.11894  0.77281  1.0000
  H   H810      1.0  0.65669  0.27428  0.69461  1.0000
  C   C1005     1.0  0.81433  0.48657  0.68573  1.0000
  C   C1006     1.0  0.79188  0.12017  0.70394  1.0000
  C   C1007     1.0  0.58026  0.25617  0.75839  1.0000
  H   H811      1.0  0.78196  0.12424  0.69132  1.0000
  C   C1008     1.0  0.69761  0.19724  0.82960  1.0000
  C   C1009     1.0  0.71920  0.18773  0.81590  1.0000
  C   C1010     1.0  0.70679  0.19588  0.79982  1.0000
  C   C1011     1.0  0.67295  0.21384  0.79744  1.0000
  C   C1012     1.0  0.65081  0.22347  0.81116  1.0000
  C   C1013     1.0  0.66376  0.21522  0.82729  1.0000
  P   P34       1.0  0.60835  0.24935  0.80786  1.0000
  C   C1014     1.0  0.57367  0.23722  0.82341  1.0000
  C   C1015     1.0  0.61981  0.29802  0.80880  1.0000
  C   C1016     1.0  0.59740  0.32300  0.81747  1.0000
  C   C1017     1.0  0.60733  0.36035  0.81835  1.0000
  C   C1018     1.0  0.63961  0.37307  0.81058  1.0000
  C   C1019     1.0  0.66138  0.34866  0.80151  1.0000
  C   C1020     1.0  0.65141  0.31137  0.80053  1.0000
  C   C1021     1.0  0.54087  0.21888  0.81903  1.0000
  H   H812      1.0  0.84053  0.34296  0.72022  1.0000
  H   H813      1.0  0.53959  0.49338  0.91761  1.0000
  C   C1022     1.0  0.55191  0.23906  0.85213  1.0000
  C   C1023     1.0  0.57859  0.24760  0.84005  1.0000
  C   C1024     1.0  0.59263  0.23809  0.78715  1.0000
  C   C1025     1.0  0.58840  0.20081  0.78281  1.0000
  C   C1026     1.0  0.58010  0.19138  0.76641  1.0000
  C   C1027     1.0  0.57655  0.21901  0.75415  1.0000
  C   C1028     1.0  0.83862  0.38544  0.67553  1.0000
  C   C1029     1.0  0.58809  0.26577  0.77484  1.0000
  H   H814      1.0  0.70780  0.19202  0.84212  1.0000
  H   H815      1.0  0.74591  0.17483  0.81779  1.0000
  H   H816      1.0  0.72388  0.18906  0.78920  1.0000
  H   H817      1.0  0.66463  0.22075  0.78484  1.0000
  H   H818      1.0  0.64861  0.22318  0.83822  1.0000
  H   H819      1.0  0.57267  0.31379  0.82386  1.0000
  H   H820      1.0  0.59056  0.37919  0.82550  1.0000
  H   H821      1.0  0.64802  0.40170  0.81169  1.0000
  H   H822      1.0  0.68642  0.35849  0.79546  1.0000
  H   H823      1.0  0.66856  0.29287  0.79342  1.0000
  H   H824      1.0  0.53546  0.21132  0.80631  1.0000
  H   H825      1.0  0.71994  0.46187  0.70602  1.0000
  H   H826      1.0  0.77734  0.14140  0.76375  1.0000
  H   H827      1.0  0.55606  0.24741  0.86492  1.0000
  H   H828      1.0  0.60279  0.26300  0.84370  1.0000
  H   H829      1.0  0.59250  0.17900  0.79205  1.0000
  H   H830      1.0  0.57738  0.16257  0.76309  1.0000
  C   C1030     1.0  0.68195  0.07261  0.73359  1.0000
  H   H831      1.0  0.64297  0.47612  0.80467  1.0000
  H   H832      1.0  0.69087  0.04871  0.72665  1.0000
  C   C1031     1.0  0.65856  0.13669  0.74947  1.0000
  C   C1032     1.0  0.52098  0.45758  0.88780  1.0000
  C   C1033     1.0  0.60240  0.43502  0.85843  1.0000
  C   C1034     1.0  0.63003  0.46197  0.86028  1.0000
  P   P35       1.0  0.75273  0.07378  0.74733  1.0000
  C   C1035     1.0  0.95306  0.42017  0.80447  1.0000
  C   C1036     1.0  0.81323  0.47236  0.70204  1.0000
  C   C1037     1.0  0.86314  0.38467  0.70360  1.0000
  H   H833      1.0  0.82930  0.10171  0.74851  1.0000
  C   C1038     1.0  0.68117  0.28632  0.68890  1.0000
  S   S142      1.0  0.70998  0.15772  0.68272  1.0000
  C   C1039     1.0  0.76628  0.39978  0.73306  1.0000
  C   C1040     1.0  0.77345  0.38016  0.74798  1.0000
  C   C1041     1.0  0.76492  0.34250  0.74942  1.0000
  C   C1042     1.0  0.74897  0.32416  0.73606  1.0000
  C   C1043     1.0  0.74105  0.34353  0.72133  1.0000
  C   C1044     1.0  0.74984  0.38109  0.71975  1.0000
  H   H834      1.0  0.74377  0.39513  0.70811  1.0000
  H   H835      1.0  0.71212  0.13818  0.76046  1.0000
  H   H836      1.0  0.77038  0.32754  0.76098  1.0000
  H   H837      1.0  0.74258  0.29495  0.73712  1.0000
  H   H838      1.0  0.74209  0.47525  0.79543  1.0000
  H   H839      1.0  0.91849  0.23140  0.79218  1.0000
  H   H840      1.0  0.66200  0.28088  0.96491  1.0000
  Fe  Fe71      1.0  0.68300  0.17868  0.65890  1.0000
  C   C1045     1.0  0.74603  0.28201  0.68175  1.0000
  C   C1046     1.0  0.77046  0.05432  0.78041  1.0000
  H   H841      1.0  0.51754  0.38728  0.98904  1.0000
  C   C1047     1.0  0.77162  0.47161  0.79435  1.0000
  C   C1048     1.0  0.64629  0.08614  0.73091  1.0000
  C   C1049     1.0  0.76453  0.46472  0.84581  1.0000
  C   C1050     1.0  0.78220  0.06192  0.79661  1.0000
  C   C1051     1.0  0.79188  0.09797  0.80091  1.0000
  C   C1052     1.0  0.76817  0.08286  0.76836  1.0000
  H   H842      1.0  0.60773  0.12991  0.73592  1.0000
  H   H843      1.0  0.86869  0.13267  0.72754  1.0000
  C   C1053     1.0  0.78158  0.49210  0.67685  1.0000
  C   C1054     1.0  0.82767  0.13103  0.70815  1.0000
  C   C1055     1.0  0.74649  0.46837  0.70043  1.0000
  C   C1056     1.0  0.74453  0.31684  0.67372  1.0000
  H   H844      1.0  0.61449  0.05208  0.66459  1.0000
  C   C1057     1.0  0.56857  0.47630  0.83992  1.0000
  C   C1058     1.0  0.63470  0.11841  0.73869  1.0000
  C   C1059     1.0  0.73561  0.47163  0.85693  1.0000
  H   H845      1.0  0.65020  0.16248  0.75501  1.0000
  C   C1060     1.0  0.78998  0.12645  0.78899  1.0000
  C   C1061     1.0  0.66077  0.41470  0.88741  1.0000
  C   C1062     1.0  0.77796  0.00955  0.73185  1.0000
  C   C1063     1.0  0.49671  0.27814  0.97794  1.0000
  C   C1064     1.0  0.53128  0.47472  0.96522  1.0000
  C   C1065     1.0  0.75278  0.02468  0.74321  1.0000
  C   C1066     1.0  0.60130  0.02526  0.66368  1.0000
  C   C1067     1.0  0.84082  0.12460  0.72429  1.0000
  H   H846      1.0  0.90250  0.41917  0.75257  1.0000
  H   H847      1.0  0.98730  0.34174  0.80747  1.0000
  C   C1068     1.0  0.61715  0.27226  0.98220  1.0000
  H   H848      1.0  0.73208  0.43412  0.76139  1.0000
  C   C1069     1.0  0.53964  0.45188  0.93715  1.0000
  C   C1070     1.0  0.71080  0.33608  0.67330  1.0000
  P   P36       1.0  0.77720  0.44862  0.73122  1.0000
  H   H849      1.0  0.77148  0.26625  0.68206  1.0000
  P   P37       1.0  0.78549  0.33613  0.66390  1.0000
  P   P38       1.0  0.53161  0.46720  0.98752  1.0000
  C   C1071     1.0  0.62080  0.38447  0.90783  1.0000
  C   C1072     1.0  0.81513  0.35565  0.67962  1.0000
  H   H850      1.0  0.78395  0.03979  0.80585  1.0000
  H   H851      1.0  0.54420  0.48235  0.83257  1.0000
  H   H852      1.0  0.93054  0.36040  0.77389  1.0000
  C   C1073     1.0  0.84797  0.46242  0.79157  1.0000
  H   H853      1.0  0.49884  0.21424  0.85707  1.0000
  H   H854      1.0  0.84530  0.14402  0.69884  1.0000
  H   H855      1.0  0.90653  0.38439  0.80045  1.0000
  C   C1074     1.0  0.53630  0.48789  0.93079  1.0000
  Fe  Fe72      1.0  0.60903  0.14646  0.66858  1.0000
  H   H856      1.0  0.80107  0.10383  0.81344  1.0000
  C   C1075     1.0  0.73666  0.40611  0.83886  1.0000
  C   C1076     1.0  0.70764  0.44511  0.85952  1.0000
  C   C1077     1.0  0.68502  0.38440  0.88838  1.0000
  H   H857      1.0  0.70827  0.36234  0.66677  1.0000
  C   C1078     1.0  0.77925  0.46344  0.70958  1.0000
  S   S143      1.0  0.50826  0.25578  0.90672  1.0000
  H   H858      1.0  0.59617  0.27066  0.97256  1.0000
  H   H859      1.0  0.69470  0.33009  0.89892  1.0000
  C   C1079     1.0  0.95343  0.26473  0.77623  1.0000
  C   C1080     1.0  0.57156  0.44242  0.84845  1.0000
  H   H860      1.0  0.78778  0.42637  0.82840  1.0000
  C   C1081     1.0  0.94603  0.38131  0.78041  1.0000
  C   C1082     1.0  0.93248  0.39473  0.79543  1.0000
  C   C1083     1.0  0.67660  0.35397  0.89868  1.0000
  C   C1084     1.0  0.81637  0.34026  0.69578  1.0000
  S   S144      1.0  0.51008  0.26335  0.95752  1.0000
  C   C1085     1.0  0.74140  0.47464  0.74158  1.0000
  H   H861      1.0  0.91631  0.48399  0.76001  1.0000
  H   H862      1.0  0.73696  0.38089  0.83172  1.0000
  H   H863      1.0  0.93340  0.28692  0.77524  1.0000
  H   H864      1.0  0.57155  0.21161  0.74129  1.0000
  C   C1086     1.0  0.49945  0.43040  0.89574  1.0000
  C   C1087     1.0  0.53722  0.44523  0.95433  1.0000
  C   C1088     1.0  0.64435  0.35386  0.90828  1.0000
  C   C1089     1.0  0.98669  0.43392  0.79815  1.0000
  H   H865      1.0  0.71024  0.38377  0.88116  1.0000
  H   H866      1.0  0.60310  0.01461  0.69006  1.0000
  C   C1090     1.0  0.51971  0.22040  0.84770  1.0000
  H   H867      1.0  0.84260  0.40326  0.74007  1.0000
  H   H868      1.0  0.59570  0.38427  0.91517  1.0000
  C   C1091     1.0  0.89013  0.47716  0.75430  1.0000
  H   H869      1.0  0.94275  0.42859  0.81650  1.0000
  H   H870      1.0  0.63730  0.32982  0.91587  1.0000
  C   C1092     1.0  0.62905  0.41488  0.89751  1.0000
  C   C1093     1.0  0.84788  0.43163  0.74337  1.0000
  C   C1094     1.0  0.86253  0.39980  0.68748  1.0000
  H   H871      1.0  0.61027  0.43823  0.89714  1.0000
  H   H872      1.0  0.60402  0.40858  0.86494  1.0000
  C   C1095     1.0  0.59459  0.00417  0.67808  1.0000
  H   H873      1.0  0.72226  0.48729  0.67728  1.0000
  C   C1096     1.0  0.76524  0.43182  0.83692  1.0000
  H   H874      1.0  0.79864  0.02665  0.72575  1.0000
  C   C1097     1.0  0.72382  0.46030  0.75589  1.0000
  C   C1098     1.0  0.82077  0.45906  0.74106  1.0000
  H   H875      1.0  0.51042  0.30773  0.84175  1.0000
  C   C1099     1.0  0.97995  0.39399  0.77422  1.0000
  H   H876      1.0  0.50923  0.31498  0.81088  1.0000
  H   H877      1.0  0.50968  0.40240  0.89677  1.0000
  H   H878      1.0  0.78626  0.48508  0.84395  1.0000
  H   H879      1.0  0.69270  0.47390  0.82577  1.0000
  C   C1100     1.0  0.69463  0.00028  0.68067  1.0000
  H   H880      1.0  0.49360  0.22389  0.69647  1.0000
  C   C1101     1.0  0.69533  0.47999  0.76348  1.0000
  H   H881      1.0  0.70578  0.01284  0.75916  1.0000
  H   H882      1.0  0.76350  0.02615  0.77742  1.0000
  H   H883      1.0  0.68228  0.46874  0.77460  1.0000
  H   H884      1.0  0.76150  0.41292  0.66726  1.0000
  C   C1102     1.0  0.72586  0.00161  0.75059  1.0000
  C   C1103     1.0  0.98804  0.26804  0.76857  1.0000
  H   H885      1.0  0.83890  0.39724  0.66304  1.0000
  H   H886      1.0  0.70949  0.28605  0.98705  1.0000
  H   H887      1.0  0.99088  0.38305  0.76274  1.0000
  C   C1104     1.0  0.99150  0.31515  0.81346  1.0000
  H   H888      1.0  0.86453  0.32525  0.65634  1.0000
  Fe  Fe73      1.0  0.67461  0.81358  0.30601  1.0000
  S   S145      1.0  0.66407  0.78057  0.28281  1.0000
  H   H889      1.0  0.64200  0.89073  0.24839  1.0000
  S   S146      1.0  0.66484  0.70457  0.30546  1.0000
  Fe  Fe74      1.0  0.70633  0.74033  0.29211  1.0000
  S   S147      1.0  0.75433  0.71903  0.27669  1.0000
  Fe  Fe75      1.0  0.62339  0.74788  0.29811  1.0000
  S   S148      1.0  0.56930  0.73049  0.28636  1.0000
  H   H890      1.0  0.63100  0.82292  0.24901  1.0000
  Fe  Fe76      1.0  0.82391  0.56445  0.16889  1.0000
  S   S149      1.0  0.85049  0.60678  0.15200  1.0000
  H   H891      1.0  0.59537  0.63257  0.13891  1.0000
  Fe  Fe77      1.0  0.78708  0.62190  0.19068  1.0000
  S   S150      1.0  0.81209  0.66866  0.17560  1.0000
  S   S151      1.0  0.74116  0.62709  0.21007  1.0000
  Fe  Fe78      1.0  0.79501  0.63548  0.15314  1.0000
  S   S152      1.0  0.76466  0.66089  0.13061  1.0000
  Fe  Fe79      1.0  0.86544  0.63507  0.17582  1.0000
  S   S153      1.0  0.92347  0.65552  0.18363  1.0000
  S   S154      1.0  0.76797  0.59058  0.16823  1.0000
  S   S155      1.0  0.84089  0.59090  0.19271  1.0000
  H   H892      1.0  0.63621  0.58479  0.06907  1.0000
  S   S156      1.0  0.55426  0.60892  0.05851  1.0000
  H   H893      1.0  0.59400  0.67843  0.24153  1.0000
  C   C1105     1.0  0.50368  0.63038  0.16392  1.0000
  Fe  Fe80      1.0  0.55739  0.62920  0.08489  1.0000
  S   S157      1.0  0.60360  0.61619  0.10383  1.0000
  C   C1106     1.0  0.59229  0.56057  0.99691  1.0000
  S   S158      1.0  0.52337  0.68018  0.07908  1.0000
  C   C1107     1.0  0.62637  0.56901  0.30521  1.0000
  C   C1108     1.0  0.51376  0.88972  0.31974  1.0000
  H   H894      1.0  0.51997  0.50036  0.02055  1.0000
  C   C1109     1.0  0.62002  0.49729  0.05584  1.0000
  Fe  Fe81      1.0  0.51651  0.65681  0.05293  1.0000
  C   C1110     1.0  0.71995  0.64792  0.12315  1.0000
  C   C1111     1.0  0.70260  0.66989  0.11078  1.0000
  C   C1112     1.0  0.66717  0.66078  0.10462  1.0000
  C   C1113     1.0  0.64871  0.62926  0.11064  1.0000
  C   C1114     1.0  0.66632  0.60701  0.12279  1.0000
  C   C1115     1.0  0.70142  0.61637  0.12914  1.0000
  H   H895      1.0  0.71661  0.69428  0.10599  1.0000
  H   H896      1.0  0.65419  0.67818  0.09524  1.0000
  H   H897      1.0  0.65278  0.58214  0.12723  1.0000
  H   H898      1.0  0.71425  0.59897  0.13855  1.0000
  H   H899      1.0  0.53722  0.63017  0.18592  1.0000
  C   C1116     1.0  0.58067  0.57001  0.01287  1.0000
  H   H900      1.0  0.54797  0.83613  0.28640  1.0000
  C   C1117     1.0  0.74966  0.69237  0.25854  1.0000
  C   C1118     1.0  0.78167  0.68291  0.24970  1.0000
  C   C1119     1.0  0.77945  0.66387  0.23459  1.0000
  C   C1120     1.0  0.74509  0.65268  0.22857  1.0000
  C   C1121     1.0  0.71306  0.66066  0.23780  1.0000
  C   C1122     1.0  0.71522  0.68097  0.25261  1.0000
  H   H901      1.0  0.80836  0.69055  0.25456  1.0000
  H   H902      1.0  0.80431  0.65735  0.22774  1.0000
  H   H903      1.0  0.68642  0.65160  0.23333  1.0000
  H   H904      1.0  0.69039  0.68783  0.25941  1.0000
  S   S159      1.0  0.83731  0.50528  0.16367  1.0000
  H   H905      1.0  0.59955  0.72555  0.21890  1.0000
  C   C1123     1.0  0.61594  0.63390  0.28639  1.0000
  H   H906      1.0  0.82996  0.93924  0.18893  1.0000
  H   H907      1.0  0.87825  0.89307  0.19620  1.0000
  C   C1124     1.0  0.62047  0.87912  0.25625  1.0000
  C   C1125     1.0  0.61441  0.84097  0.25663  1.0000
  C   C1126     1.0  0.57300  0.51862  0.11497  1.0000
  H   H908      1.0  0.65099  0.51659  0.14799  1.0000
  H   H909      1.0  0.60751  0.70636  0.18973  1.0000
  C   C1127     1.0  0.78283  0.57899  0.26507  1.0000
  C   C1128     1.0  0.73105  0.97242  0.25323  1.0000
  P   P39       1.0  0.54313  0.91687  0.28956  1.0000
  H   H910      1.0  0.78004  0.89688  0.24157  1.0000
  C   C1129     1.0  0.82230  0.91325  0.19493  1.0000
  C   C1130     1.0  0.63095  0.49759  0.08579  1.0000
  C   C1131     1.0  0.65365  0.72089  0.14571  1.0000
  C   C1132     1.0  0.63302  0.55493  0.06952  1.0000
  C   C1133     1.0  0.84949  0.88721  0.19900  1.0000
  H   H911      1.0  0.62931  0.54377  0.31242  1.0000
  H   H912      1.0  0.71022  0.73759  0.14160  1.0000
  H   H913      1.0  0.58369  0.79621  0.26795  1.0000
  H   H914      1.0  0.58113  0.96444  0.31411  1.0000
  C   C1134     1.0  0.53091  0.75450  0.29425  1.0000
  C   C1135     1.0  0.73162  0.83433  0.26157  1.0000
  C   C1136     1.0  0.75953  0.84016  0.27322  1.0000
  C   C1137     1.0  0.79642  0.83446  0.26882  1.0000
  C   C1138     1.0  0.80539  0.82255  0.25281  1.0000
  C   C1139     1.0  0.77736  0.81494  0.24126  1.0000
  C   C1140     1.0  0.74039  0.82181  0.24565  1.0000
  P   P40       1.0  0.78925  0.80263  0.22019  1.0000
  C   C1141     1.0  0.80242  0.84552  0.21004  1.0000
  C   C1142     1.0  0.82547  0.76846  0.21884  1.0000
  C   C1143     1.0  0.84036  0.76001  0.20317  1.0000
  C   C1144     1.0  0.86751  0.73274  0.20174  1.0000
  C   C1145     1.0  0.87976  0.71345  0.21588  1.0000
  C   C1146     1.0  0.86472  0.72128  0.23147  1.0000
  C   C1147     1.0  0.83739  0.74842  0.23295  1.0000
  C   C1148     1.0  0.77533  0.87212  0.20623  1.0000
  C   C1149     1.0  0.62537  0.53555  0.05504  1.0000
  H   H915      1.0  0.87870  0.72595  0.18961  1.0000
  H   H916      1.0  0.73573  0.69157  0.16156  1.0000
  C   C1150     1.0  0.83967  0.85353  0.20663  1.0000
  C   C1151     1.0  0.75056  0.78179  0.20976  1.0000
  C   C1152     1.0  0.74243  0.79108  0.19311  1.0000
  C   C1153     1.0  0.71296  0.77403  0.18501  1.0000
  C   C1154     1.0  0.69190  0.74716  0.19336  1.0000
  C   C1155     1.0  0.70047  0.73701  0.20975  1.0000
  C   C1156     1.0  0.72985  0.75408  0.21792  1.0000
  H   H917      1.0  0.70313  0.83955  0.26500  1.0000
  H   H918      1.0  0.75246  0.84923  0.28565  1.0000
  H   H919      1.0  0.81802  0.83925  0.27786  1.0000
  H   H920      1.0  0.83418  0.81920  0.24948  1.0000
  H   H921      1.0  0.71827  0.81777  0.23682  1.0000
  H   H922      1.0  0.83065  0.77413  0.19201  1.0000
  H   H923      1.0  0.90044  0.69196  0.21465  1.0000
  H   H924      1.0  0.87359  0.70567  0.24237  1.0000
  H   H925      1.0  0.82499  0.75280  0.24502  1.0000
  H   H926      1.0  0.74654  0.86677  0.20911  1.0000
  C   C1157     1.0  0.63545  0.53609  0.08479  1.0000
  S   S160      1.0  0.63095  0.78263  0.32088  1.0000
  H   H927      1.0  0.76420  0.92607  0.19555  1.0000
  H   H928      1.0  0.86122  0.83393  0.20985  1.0000
  H   H929      1.0  0.75913  0.81091  0.18622  1.0000
  H   H930      1.0  0.70688  0.78110  0.17214  1.0000
  H   H931      1.0  0.66950  0.73361  0.18696  1.0000
  H   H932      1.0  0.68484  0.71533  0.21602  1.0000
  H   H933      1.0  0.73672  0.74535  0.23052  1.0000
  C   C1158     1.0  0.68745  0.54920  0.18380  1.0000
  C   C1159     1.0  0.68181  0.52578  0.17037  1.0000
  C   C1160     1.0  0.65442  0.53402  0.15869  1.0000
  C   C1161     1.0  0.63257  0.56563  0.16037  1.0000
  C   C1162     1.0  0.63846  0.58978  0.17365  1.0000
  C   C1163     1.0  0.66614  0.58120  0.18535  1.0000
  P   P41       1.0  0.61486  0.63392  0.17432  1.0000
  C   C1164     1.0  0.67562  0.98804  0.30572  1.0000
  C   C1165     1.0  0.60733  0.64773  0.19562  1.0000
  H   H934      1.0  0.93012  0.54532  0.21591  1.0000
  C   C1166     1.0  0.56082  0.96376  0.28870  1.0000
  H   H935      1.0  0.77573  0.57661  0.23844  1.0000
  C   C1167     1.0  0.59836  0.63222  0.22494  1.0000
  C   C1168     1.0  0.60294  0.62116  0.20843  1.0000
  C   C1169     1.0  0.59075  0.58319  0.30277  1.0000
  P   P42       1.0  0.70405  0.57091  0.30174  1.0000
  H   H936      1.0  0.67463  0.63463  0.28327  1.0000
  H   H937      1.0  0.61197  0.65947  0.27935  1.0000
  H   H938      1.0  0.98169  0.54662  0.16775  1.0000
  C   C1170     1.0  0.64466  0.66802  0.16443  1.0000
  C   C1171     1.0  0.68289  0.66734  0.16744  1.0000
  C   C1172     1.0  0.70617  0.69297  0.15954  1.0000
  C   C1173     1.0  0.69172  0.71920  0.14840  1.0000
  C   C1174     1.0  0.54371  0.51584  0.14212  1.0000
  C   C1175     1.0  0.63010  0.69583  0.15389  1.0000
  H   H939      1.0  0.81206  0.58527  0.26425  1.0000
  H   H940      1.0  0.78154  0.58162  0.29175  1.0000
  H   H941      1.0  0.82247  0.94592  0.23119  1.0000
  H   H942      1.0  0.61210  0.57157  0.15093  1.0000
  H   H943      1.0  0.67232  0.59992  0.19538  1.0000
  H   H944      1.0  0.60522  0.93148  0.26595  1.0000
  H   H945      1.0  0.52324  0.52615  0.15075  1.0000
  H   H946      1.0  0.60526  0.89357  0.31003  1.0000
  H   H947      1.0  0.54511  0.97263  0.26294  1.0000
  H   H948      1.0  0.60330  0.59193  0.20570  1.0000
  Fe  Fe82      1.0  0.50177  0.58057  0.06604  1.0000
  H   H949      1.0  0.75004  0.53869  0.11992  1.0000
  C   C1176     1.0  0.73994  0.93521  0.25100  1.0000
  C   C1177     1.0  0.59918  0.90226  0.26624  1.0000
  C   C1178     1.0  0.72739  0.60456  0.31462  1.0000
  H   H950      1.0  0.69515  0.64696  0.17573  1.0000
  C   C1179     1.0  0.53275  0.77073  0.30986  1.0000
  H   H951      1.0  0.55812  0.62720  0.29176  1.0000
  H   H952      1.0  0.62299  0.55038  0.04326  1.0000
  C   C1180     1.0  0.55499  0.54775  0.02129  1.0000
  C   C1181     1.0  0.58774  0.82587  0.26732  1.0000
  C   C1182     1.0  0.98089  0.62765  0.25087  1.0000
  H   H953      1.0  0.55709  0.76743  0.31738  1.0000
  C   C1183     1.0  0.58038  0.88871  0.31721  1.0000
  C   C1184     1.0  0.51937  0.66496  0.00715  1.0000
  C   C1185     1.0  0.78525  0.90577  0.19861  1.0000
  H   H954      1.0  0.70874  0.56399  0.24013  1.0000
  H   H955      1.0  0.57406  0.53127  0.10268  1.0000
  H   H956      1.0  0.64246  0.74103  0.13695  1.0000
  H   H957      1.0  0.94941  0.61978  0.15293  1.0000
  C   C1186     1.0  0.67613  0.95243  0.29864  1.0000
  H   H958      1.0  0.67543  0.94986  0.28526  1.0000
  C   C1187     1.0  0.54014  0.51662  0.01370  1.0000
  S   S161      1.0  0.52187  0.68585  0.02725  1.0000
  H   H959      1.0  0.73633  0.50016  0.29071  1.0000
  C   C1188     1.0  0.56699  0.84880  0.27759  1.0000
  H   H960      1.0  0.56719  0.56916  0.30833  1.0000
  H   H961      1.0  0.53590  0.63322  0.12410  1.0000
  C   C1189     1.0  0.96717  0.53170  0.17759  1.0000
  C   C1190     1.0  0.93842  0.53089  0.20481  1.0000
  C   C1191     1.0  0.54664  0.53163  0.12620  1.0000
  C   C1192     1.0  0.60543  0.68543  0.19947  1.0000
  H   H962      1.0  0.52850  0.55412  0.12254  1.0000
  C   C1193     1.0  0.57150  0.88738  0.27671  1.0000
  C   C1194     1.0  0.57795  0.52911  0.98933  1.0000
  S   S162      1.0  0.71987  0.77447  0.31452  1.0000
  H   H963      1.0  0.70945  0.54352  0.19261  1.0000
  C   C1195     1.0  0.67746  0.92012  0.30870  1.0000
  H   H964      1.0  0.59088  0.59503  0.01857  1.0000
  H   H965      1.0  0.54576  0.55513  0.03360  1.0000
  C   C1196     1.0  0.76535  0.57718  0.28062  1.0000
  H   H966      1.0  0.63976  0.55185  0.09593  1.0000
  H   H967      1.0  0.69368  0.53041  0.10390  1.0000
  S   S163      1.0  0.67884  0.87593  0.29886  1.0000
  H   H968      1.0  0.49379  0.52221  0.09103  1.0000
  C   C1197     1.0  0.77291  0.92570  0.24309  1.0000
  C   C1198     1.0  0.70010  0.50988  0.11328  1.0000
  C   C1199     1.0  0.75224  0.66674  0.31770  1.0000
  C   C1200     1.0  0.53626  0.63194  0.13761  1.0000
  H   H969      1.0  0.49676  0.74541  0.27273  1.0000
  H   H970      1.0  0.75869  0.69371  0.31234  1.0000
  C   C1201     1.0  0.95624  0.55022  0.19191  1.0000
  C   C1202     1.0  0.76242  0.57400  0.25053  1.0000
  H   H971      1.0  0.72156  0.91378  0.25575  1.0000
  H   H972      1.0  0.73201  0.64581  0.29473  1.0000
  C   C1203     1.0  0.70693  0.56497  0.26703  1.0000
  C   C1204     1.0  0.58556  0.61570  0.29342  1.0000
  C   C1205     1.0  0.79689  0.95339  0.23730  1.0000
  C   C1206     1.0  0.65156  0.61990  0.28885  1.0000
  C   C1207     1.0  0.72453  0.56686  0.25151  1.0000
  C   C1208     1.0  0.54575  0.89749  0.31041  1.0000
  C   C1209     1.0  0.70542  0.52461  0.31096  1.0000
  H   H973      1.0  0.53171  0.71572  0.99382  1.0000
  C   C1210     1.0  0.96837  0.64533  0.17536  1.0000
  C   C1211     1.0  0.72712  0.57079  0.28170  1.0000
  H   H974      1.0  0.59560  0.61166  0.23483  1.0000
  C   C1212     1.0  0.73679  0.63938  0.30776  1.0000
  C   C1213     1.0  0.53745  0.63040  0.17245  1.0000
  C   C1214     1.0  0.52548  0.68661  0.99262  1.0000
  C   C1215     1.0  0.56998  0.63169  0.14607  1.0000
  C   C1216     1.0  0.65727  0.58760  0.29849  1.0000
  H   H975      1.0  0.96166  0.57954  0.19301  1.0000
  C   C1217     1.0  0.60071  0.69640  0.21598  1.0000
  C   C1218     1.0  0.59746  0.66983  0.22873  1.0000
  H   H976      1.0  0.76853  0.50768  0.18263  1.0000
  C   C1219     1.0  0.55104  0.50730  0.99753  1.0000
  C   C1220     1.0  0.97333  0.62767  0.16013  1.0000
  H   H977      1.0  0.97522  0.61312  0.22503  1.0000
  C   C1221     1.0  0.73268  0.51467  0.12233  1.0000
  H   H978      1.0  0.67748  0.55982  0.26753  1.0000
  C   C1222     1.0  0.57095  0.63143  0.16356  1.0000
  H   H979      1.0  0.60071  0.69799  0.15167  1.0000
  S   S164      1.0  0.50729  0.59627  0.09269  1.0000
  H   H980      1.0  0.95343  0.61816  0.25427  1.0000
  C   C1223     1.0  0.50309  0.63140  0.14650  1.0000
  H   H981      1.0  0.61182  0.57816  0.99026  1.0000
  H   H982      1.0  0.69922  0.50177  0.16875  1.0000
  C   C1224     1.0  0.49546  0.91658  0.28255  1.0000
  C   C1225     1.0  0.49834  0.75775  0.28488  1.0000
  C   C1226     1.0  0.57793  0.97972  0.30254  1.0000
  C   C1227     1.0  0.51145  0.62738  0.00529  1.0000
  H   H983      1.0  0.70560  0.97931  0.25961  1.0000
  C   C1228     1.0  0.55809  0.98447  0.27378  1.0000
  C   C1229     1.0  0.50272  0.79068  0.31600  1.0000
  H   H984      1.0  0.50673  0.61033  0.01626  1.0000
  C   C1230     1.0  0.78824  0.99068  0.23966  1.0000
  C   C1231     1.0  0.72340  0.49561  0.30272  1.0000
  H   H985      1.0  0.49424  0.67377  0.30075  1.0000
  C   C1232     1.0  0.50979  0.61174  0.98927  1.0000
  H   H986      1.0  0.52450  0.63218  0.32199  1.0000
  C   C1233     1.0  0.95952  0.49399  0.17598  1.0000
  C   C1234     1.0  0.56727  0.66799  0.33080  1.0000
  C   C1235     1.0  0.54571  0.62591  0.51727  1.0000
  S   S165      1.0  0.68087  0.70496  0.63272  1.0000
  C   C1236     1.0  0.56207  0.61526  0.56998  1.0000
  C   C1237     1.0  0.58311  0.87308  0.33319  1.0000
  C   C1238     1.0  0.93481  0.76942  0.60493  1.0000
  H   H987      1.0  0.58175  0.67385  0.54973  1.0000
  H   H988      1.0  0.58938  0.65171  0.32558  1.0000
  S   S166      1.0  0.73496  0.54730  0.60549  1.0000
  H   H989      1.0  0.67878  0.89968  0.33399  1.0000
  H   H990      1.0  0.51146  0.52570  0.55134  1.0000
  C   C1239     1.0  0.53224  0.49570  0.46230  1.0000
  C   C1240     1.0  0.53050  0.65720  0.32870  1.0000
  S   S167      1.0  0.65091  0.54189  0.37085  1.0000
  C   C1241     1.0  0.51057  0.98096  0.34066  1.0000
  S   S168      1.0  0.68242  0.71312  0.35316  1.0000
  H   H991      1.0  0.67526  0.53874  0.33336  1.0000
  C   C1242     1.0  0.51652  0.87450  0.33581  1.0000
  C   C1243     1.0  0.58940  0.59370  0.57777  1.0000
  C   C1244     1.0  0.54791  0.64613  0.57826  1.0000
  C   C1245     1.0  0.65881  0.59003  0.36668  1.0000
  C   C1246     1.0  0.65034  0.60446  0.35073  1.0000
  C   C1247     1.0  0.65789  0.64169  0.34638  1.0000
  C   C1248     1.0  0.67303  0.66560  0.35808  1.0000
  C   C1249     1.0  0.68093  0.65144  0.37414  1.0000
  C   C1250     1.0  0.67409  0.61388  0.37840  1.0000
  H   H992      1.0  0.63783  0.58678  0.34162  1.0000
  H   H993      1.0  0.65227  0.65181  0.33393  1.0000
  H   H994      1.0  0.69266  0.66957  0.38333  1.0000
  H   H995      1.0  0.68077  0.60340  0.39073  1.0000
  C   C1251     1.0  0.54720  0.72078  0.34655  1.0000
  C   C1252     1.0  0.67742  0.95971  0.33310  1.0000
  H   H996      1.0  0.72874  0.57130  0.33748  1.0000
  C   C1253     1.0  0.59573  0.55511  0.53728  1.0000
  Fe  Fe83      1.0  0.65261  0.50267  0.39387  1.0000
  C   C1254     1.0  0.56141  0.65569  0.59394  1.0000
  H   H997      1.0  0.54912  0.64333  0.49151  1.0000
  H   H998      1.0  0.53171  0.75992  0.64420  1.0000
  C   C1255     1.0  0.73611  0.82253  0.62498  1.0000
  C   C1256     1.0  0.69536  0.66017  0.62596  1.0000
  C   C1257     1.0  0.71802  0.63672  0.63554  1.0000
  C   C1258     1.0  0.72939  0.60208  0.62929  1.0000
  C   C1259     1.0  0.71743  0.58979  0.61360  1.0000
  C   C1260     1.0  0.69473  0.61322  0.60409  1.0000
  C   C1261     1.0  0.68403  0.64812  0.61017  1.0000
  H   H999      1.0  0.72698  0.64531  0.64771  1.0000
  H   H1000     1.0  0.74755  0.58468  0.63667  1.0000
  H   H1001     1.0  0.68632  0.60493  0.59178  1.0000
  H   H1002     1.0  0.66697  0.66605  0.60250  1.0000
  H   H1003     1.0  0.55042  0.67948  0.60032  1.0000
  C   C1262     1.0  0.54610  0.97268  0.34649  1.0000
  C   C1263     1.0  0.56242  0.51334  0.45473  1.0000
  C   C1264     1.0  0.49279  0.49375  0.58741  1.0000
  C   C1265     1.0  0.58851  0.63390  0.60164  1.0000
  C   C1266     1.0  0.73495  0.59750  0.33157  1.0000
  C   C1267     1.0  0.50511  0.72806  0.55541  1.0000
  H   H1004     1.0  0.50262  0.72210  0.52877  1.0000
  H   H1005     1.0  0.93891  0.78682  0.63039  1.0000
  C   C1268     1.0  0.55117  0.86597  0.34251  1.0000
  H   H1006     1.0  0.50132  0.97180  0.64525  1.0000
  C   C1269     1.0  0.60218  0.60274  0.59362  1.0000
  C   C1270     1.0  0.75012  0.62508  0.34149  1.0000
  H   H1007     1.0  0.61282  0.57959  0.53591  1.0000
  H   H1008     1.0  0.59872  0.64087  0.61391  1.0000
  H   H1009     1.0  0.62219  0.58499  0.59982  1.0000
  H   H1010     1.0  0.56213  0.51867  0.44141  1.0000
  H   H1011     1.0  0.63783  0.51909  0.52753  1.0000
  H   H1012     1.0  0.61005  0.86595  0.33819  1.0000
  P   P43       1.0  0.81882  0.72623  0.61953  1.0000
  C   C1271     1.0  0.50165  0.67843  0.33532  1.0000
  H   H1013     1.0  0.62211  0.91428  0.64691  1.0000
  C   C1272     1.0  0.51032  0.71030  0.34433  1.0000
  H   H1014     1.0  0.60420  0.70791  0.34147  1.0000
  H   H1015     1.0  0.55382  0.74541  0.35345  1.0000
  C   C1273     1.0  0.80297  0.69262  0.60469  1.0000
  C   C1274     1.0  0.80605  0.65457  0.60823  1.0000
  C   C1275     1.0  0.79354  0.62870  0.59679  1.0000
  C   C1276     1.0  0.77749  0.64048  0.58182  1.0000
  C   C1277     1.0  0.77466  0.67827  0.57810  1.0000
  C   C1278     1.0  0.78757  0.70428  0.58944  1.0000
  C   C1279     1.0  0.81956  0.70411  0.63986  1.0000
  C   C1280     1.0  0.88683  0.76004  0.62564  1.0000
  C   C1281     1.0  0.57564  0.69970  0.33975  1.0000
  C   C1282     1.0  0.55435  0.63437  0.53383  1.0000
  H   H1016     1.0  0.53167  0.60028  0.51439  1.0000
  C   C1283     1.0  0.77342  0.82803  0.62857  1.0000
  C   C1284     1.0  0.78682  0.70124  0.64916  1.0000
  C   C1285     1.0  0.60820  0.89125  0.64115  1.0000
  C   C1286     1.0  0.72420  0.78848  0.61902  1.0000
  C   C1287     1.0  0.57362  0.66717  0.53717  1.0000
  C   C1288     1.0  0.67654  0.99205  0.32305  1.0000
  H   H1017     1.0  0.62827  0.81963  0.61569  1.0000
  C   C1289     1.0  0.75836  0.65981  0.33461  1.0000
  C   C1290     1.0  0.79883  0.79936  0.62636  1.0000
  H   H1018     1.0  0.86106  0.72590  0.58802  1.0000
  H   H1019     1.0  0.52602  0.66236  0.57267  1.0000
  H   H1020     1.0  0.81758  0.64462  0.61989  1.0000
  H   H1021     1.0  0.79537  0.59937  0.59971  1.0000
  H   H1022     1.0  0.76688  0.62020  0.57324  1.0000
  H   H1023     1.0  0.76209  0.68736  0.56651  1.0000
  H   H1024     1.0  0.78513  0.73348  0.58640  1.0000
  H   H1025     1.0  0.67822  0.96223  0.34650  1.0000
  H   H1026     1.0  0.75424  0.61994  0.35469  1.0000
  C   C1291     1.0  0.49818  0.91422  0.65332  1.0000
  H   H1027     1.0  0.76879  0.68158  0.34246  1.0000
  H   H1028     1.0  0.73939  0.73321  0.61277  1.0000
  C   C1292     1.0  0.78708  0.76487  0.62047  1.0000
  H   H1029     1.0  0.69508  0.78363  0.61680  1.0000
  H   H1030     1.0  0.87716  0.76344  0.63831  1.0000
  S   S169      1.0  0.66212  0.51585  0.56913  1.0000
  H   H1031     1.0  0.61722  0.53544  0.45818  1.0000
  C   C1293     1.0  0.57557  0.82865  0.62744  1.0000
  C   C1294     1.0  0.61001  0.52095  0.53249  1.0000
  C   C1295     1.0  0.59319  0.51646  0.48139  1.0000
  H   H1032     1.0  0.71636  0.84434  0.62733  1.0000
  H   H1033     1.0  0.61710  0.52404  0.48871  1.0000
  H   H1034     1.0  0.52735  0.84276  0.64122  1.0000
  H   H1035     1.0  0.59864  0.71652  0.52675  1.0000
  C   C1296     1.0  0.62841  0.86891  0.63041  1.0000
  H   H1036     1.0  0.87761  0.68931  0.63925  1.0000
  C   C1297     1.0  0.56005  0.55743  0.54412  1.0000
  H   H1037     1.0  0.59999  0.56906  0.57202  1.0000
  C   C1298     1.0  0.53881  0.52507  0.54593  1.0000
  H   H1038     1.0  0.56803  0.96616  0.63480  1.0000
  H   H1039     1.0  0.56322  0.80380  0.62254  1.0000
  C   C1299     1.0  0.57119  0.88285  0.64494  1.0000
  H   H1040     1.0  0.68742  0.95127  0.64478  1.0000
  H   H1041     1.0  0.50113  0.61745  0.35536  1.0000
  C   C1300     1.0  0.58344  0.69142  0.52414  1.0000
  C   C1301     1.0  0.55559  0.65019  0.50428  1.0000
  C   C1302     1.0  0.74954  0.75981  0.61676  1.0000
  C   C1303     1.0  0.68917  0.51719  0.32659  1.0000
  Fe  Fe84      1.0  0.67522  0.74048  0.32740  1.0000
  H   H1042     1.0  0.82725  0.80408  0.62973  1.0000
  C   C1304     1.0  0.86449  0.74252  0.61382  1.0000
  P   P44       1.0  0.54230  0.60191  0.55029  1.0000
  C   C1305     1.0  0.87765  0.73896  0.59745  1.0000
  C   C1306     1.0  0.55515  0.85111  0.63808  1.0000
  H   H1043     1.0  0.78230  0.85423  0.63360  1.0000
  C   C1307     1.0  0.92185  0.77334  0.62121  1.0000
  S   S170      1.0  0.62604  0.50629  0.41926  1.0000
  H   H1044     1.0  0.58242  0.70156  0.49760  1.0000
  H   H1045     1.0  0.65709  0.87541  0.62788  1.0000
  H   H1046     1.0  0.71783  0.52273  0.48600  1.0000
  H   H1047     1.0  0.49927  0.73353  0.58192  1.0000
  H   H1048     1.0  0.53495  0.73035  0.55571  1.0000
  H   H1049     1.0  0.76091  0.71122  0.64411  1.0000
  H   H1050     1.0  0.92273  0.74932  0.58042  1.0000
  H   H1051     1.0  0.55325  0.85321  0.35478  1.0000
  C   C1308     1.0  0.91272  0.75226  0.59306  1.0000
  C   C1309     1.0  0.57439  0.68297  0.50771  1.0000
  C   C1310     1.0  0.61219  0.83754  0.62359  1.0000
  C   C1311     1.0  0.67773  0.92407  0.32603  1.0000
  C   C1312     1.0  0.85231  0.68899  0.64644  1.0000
  S   S171      1.0  0.56611  0.50776  0.59156  1.0000
  H   H1052     1.0  0.71017  0.50478  0.51586  1.0000
  H   H1053     1.0  0.55286  0.94479  0.35055  1.0000
  C   C1313     1.0  0.59322  0.52305  0.46420  1.0000
  H   H1054     1.0  0.50434  0.80257  0.32822  1.0000
  C   C1314     1.0  0.49301  0.60018  0.55375  1.0000
  C   C1315     1.0  0.57500  0.97667  0.64696  1.0000
  Fe  Fe85      1.0  0.70146  0.50523  0.59047  1.0000
  H   H1055     1.0  0.96194  0.77977  0.60149  1.0000
  H   H1056     1.0  0.49864  0.57055  0.57719  1.0000
  C   C1316     1.0  0.70225  0.49811  0.48928  1.0000
  H   H1057     1.0  0.56322  0.49433  0.50232  1.0000
  H   H1058     1.0  0.49306  0.55546  0.36784  1.0000
  C   C1317     1.0  0.56284  0.49916  0.48902  1.0000
  C   C1318     1.0  0.96364  0.59066  0.75580  1.0000
  C   C1319     1.0  0.65142  0.53386  0.79854  1.0000
  S   S172      1.0  0.56848  0.60208  0.91341  1.0000
  H   H1059     1.0  0.63251  0.59729  0.75595  1.0000
  Fe  Fe86      1.0  0.56811  0.65381  0.89767  1.0000
  S   S173      1.0  0.62170  0.68094  0.88856  1.0000
  H   H1060     1.0  0.65026  0.79497  0.85463  1.0000
  H   H1061     1.0  0.91526  0.54852  0.85142  1.0000
  Fe  Fe87      1.0  0.81239  0.66721  0.79904  1.0000
  S   S174      1.0  0.82342  0.67967  0.82602  1.0000
  S   S175      1.0  0.78087  0.71022  0.78374  1.0000
  Fe  Fe88      1.0  0.84272  0.58875  0.80307  1.0000
  S   S176      1.0  0.85443  0.59548  0.83023  1.0000
  S   S177      1.0  0.86252  0.53667  0.79079  1.0000
  Fe  Fe89      1.0  0.79853  0.62344  0.83143  1.0000
  S   S178      1.0  0.75242  0.60153  0.84872  1.0000
  Fe  Fe90      1.0  0.87841  0.65035  0.82218  1.0000
  S   S179      1.0  0.93541  0.67312  0.82965  1.0000
  S   S180      1.0  0.78573  0.61242  0.80456  1.0000
  S   S181      1.0  0.86835  0.64249  0.79485  1.0000
  Fe  Fe91      1.0  0.64271  0.76362  0.68686  1.0000
  S   S182      1.0  0.58732  0.75876  0.69985  1.0000
  Fe  Fe92      1.0  0.72494  0.75181  0.69040  1.0000
  S   S183      1.0  0.73606  0.77442  0.66442  1.0000
  S   S184      1.0  0.77243  0.72486  0.70475  1.0000
  H   H1062     1.0  0.52862  0.68805  0.96560  1.0000
  H   H1063     1.0  0.56950  0.70829  0.85670  1.0000
  S   S185      1.0  0.68788  0.79943  0.69730  1.0000
  S   S186      1.0  0.67887  0.71440  0.68226  1.0000
  H   H1064     1.0  0.74746  0.92040  0.73196  1.0000
  C   C1320     1.0  0.69927  0.93303  0.68601  1.0000
  H   H1065     1.0  0.70330  0.91022  0.69469  1.0000
  C   C1321     1.0  0.92288  0.52312  0.82756  1.0000
  H   H1066     1.0  0.57284  0.95370  0.68835  1.0000
  C   C1322     1.0  0.56434  0.60591  0.84245  1.0000
  C   C1323     1.0  0.57406  0.59958  0.75961  1.0000
  H   H1067     1.0  0.78345  0.53007  0.79520  1.0000
  C   C1324     1.0  0.77798  0.71212  0.76176  1.0000
  C   C1325     1.0  0.80365  0.69429  0.75163  1.0000
  C   C1326     1.0  0.80150  0.69835  0.73417  1.0000
  C   C1327     1.0  0.77344  0.71980  0.72671  1.0000
  C   C1328     1.0  0.74734  0.73698  0.73684  1.0000
  C   C1329     1.0  0.74981  0.73337  0.75430  1.0000
  H   H1068     1.0  0.82555  0.67807  0.75726  1.0000
  H   H1069     1.0  0.82185  0.68508  0.72640  1.0000
  H   H1070     1.0  0.72572  0.75365  0.73124  1.0000
  H   H1071     1.0  0.73002  0.74743  0.76207  1.0000
  H   H1072     1.0  0.93817  0.49754  0.80472  1.0000
  H   H1073     1.0  0.80901  0.51756  0.74323  1.0000
  C   C1330     1.0  0.54943  0.88641  0.67961  1.0000
  H   H1074     1.0  0.86976  0.53307  0.75492  1.0000
  C   C1331     1.0  0.54516  0.60310  0.77104  1.0000
  C   C1332     1.0  0.82013  0.67220  0.67197  1.0000
  C   C1333     1.0  0.71561  0.62498  0.85891  1.0000
  C   C1334     1.0  0.71817  0.66212  0.86348  1.0000
  C   C1335     1.0  0.68930  0.67873  0.87259  1.0000
  C   C1336     1.0  0.65726  0.65870  0.87703  1.0000
  C   C1337     1.0  0.65425  0.62188  0.87204  1.0000
  C   C1338     1.0  0.68345  0.60504  0.86326  1.0000
  H   H1075     1.0  0.74279  0.67776  0.86037  1.0000
  H   H1076     1.0  0.69196  0.70722  0.87633  1.0000
  H   H1077     1.0  0.62971  0.60620  0.87523  1.0000
  H   H1078     1.0  0.68129  0.57624  0.85996  1.0000
  C   C1339     1.0  0.55063  0.76464  0.68564  1.0000
  C   C1340     1.0  0.53679  0.66127  0.83017  1.0000
  C   C1341     1.0  0.55643  0.85135  0.71087  1.0000
  H   H1079     1.0  0.90766  0.70205  0.77202  1.0000
  H   H1080     1.0  0.55893  0.83661  0.72266  1.0000
  H   H1081     1.0  0.61641  0.74655  0.87044  1.0000
  C   C1342     1.0  0.97598  0.62741  0.75542  1.0000
  H   H1082     1.0  0.96145  0.59680  0.82509  1.0000
  C   C1343     1.0  0.59283  0.70111  0.77693  1.0000
  C   C1344     1.0  0.56324  0.69873  0.76583  1.0000
  C   C1345     1.0  0.52724  0.76467  0.65731  1.0000
  C   C1346     1.0  0.58294  0.86969  0.68429  1.0000
  H   H1083     1.0  0.66199  0.52933  0.76264  1.0000
  C   C1347     1.0  0.58619  0.70349  0.79405  1.0000
  H   H1084     1.0  0.56844  0.69695  0.75255  1.0000
  C   C1348     1.0  0.55596  0.75820  0.66868  1.0000
  C   C1349     1.0  0.97353  0.64909  0.76976  1.0000
  H   H1085     1.0  0.60948  0.70461  0.80248  1.0000
  H   H1086     1.0  0.73512  0.49791  0.86321  1.0000
  C   C1350     1.0  0.93387  0.53307  0.84354  1.0000
  C   C1351     1.0  0.65063  0.51871  0.88984  1.0000
  H   H1087     1.0  0.87805  0.66261  0.66774  1.0000
  C   C1352     1.0  0.53051  0.58746  0.84132  1.0000
  P   P45       1.0  0.54107  0.70816  0.82225  1.0000
  H   H1088     1.0  0.82031  0.66115  0.68460  1.0000
  H   H1089     1.0  0.58203  0.74763  0.66432  1.0000
  C   C1353     1.0  0.58422  0.72908  0.84939  1.0000
  C   C1354     1.0  0.56748  0.95554  0.66142  1.0000
  H   H1090     1.0  0.73437  0.56548  0.78322  1.0000
  H   H1091     1.0  0.63585  0.80671  0.82479  1.0000
  C   C1355     1.0  0.52378  0.67095  0.97656  1.0000
  H   H1092     1.0  0.74489  0.52230  0.72482  1.0000
  H   H1093     1.0  0.93231  0.76860  0.72273  1.0000
  C   C1356     1.0  0.52699  0.69806  0.77188  1.0000
  H   H1094     1.0  0.95981  0.77380  0.81855  1.0000
  H   H1095     1.0  0.96529  0.57413  0.74469  1.0000
  H   H1096     1.0  0.64867  0.51639  0.85240  1.0000
  S   S187      1.0  0.64824  0.78619  0.66081  1.0000
  H   H1097     1.0  0.58762  0.52223  0.97700  1.0000
  H   H1098     1.0  0.93401  0.74453  0.75141  1.0000
  S   S188      1.0  0.52987  0.63182  0.87850  1.0000
  H   H1099     1.0  0.56799  0.59536  0.74655  1.0000
  H   H1100     1.0  0.93511  0.58484  0.79614  1.0000
  H   H1101     1.0  0.62099  0.70098  0.77228  1.0000
  H   H1102     1.0  0.51160  0.78154  0.70428  1.0000
  Fe  Fe93      1.0  0.51912  0.62575  0.92686  1.0000
  H   H1103     1.0  0.58766  0.59232  0.84840  1.0000
  C   C1357     1.0  0.70659  0.53156  0.82283  1.0000
  H   H1104     1.0  0.93870  0.54715  0.77081  1.0000
  C   C1358     1.0  0.51567  0.63332  0.97475  1.0000
  S   S189      1.0  0.51152  0.61165  0.95488  1.0000
  C   C1359     1.0  0.67195  0.56592  0.80185  1.0000
  C   C1360     1.0  0.69928  0.56454  0.81420  1.0000
  P   P46       1.0  0.66601  0.60745  0.78931  1.0000
  C   C1361     1.0  0.67253  0.64732  0.80241  1.0000
  C   C1362     1.0  0.69961  0.60851  0.77253  1.0000
  C   C1363     1.0  0.69625  0.63418  0.75928  1.0000
  C   C1364     1.0  0.72359  0.63665  0.74697  1.0000
  C   C1365     1.0  0.75476  0.61394  0.74791  1.0000
  C   C1366     1.0  0.75835  0.58831  0.76101  1.0000
  C   C1367     1.0  0.73072  0.58532  0.77316  1.0000
  C   C1368     1.0  0.65962  0.64668  0.81893  1.0000
  C   C1369     1.0  0.66495  0.67719  0.82914  1.0000
  C   C1370     1.0  0.68392  0.70825  0.82316  1.0000
  C   C1371     1.0  0.69715  0.70910  0.80684  1.0000
  C   C1372     1.0  0.69150  0.67888  0.79649  1.0000
  C   C1373     1.0  0.61887  0.60734  0.78185  1.0000
  C   C1374     1.0  0.58961  0.61030  0.79326  1.0000
  H   H1105     1.0  0.72818  0.53098  0.83218  1.0000
  H   H1106     1.0  0.70311  0.94650  0.75221  1.0000
  C   C1375     1.0  0.94860  0.75933  0.80798  1.0000
  C   C1376     1.0  0.96911  0.52364  0.84924  1.0000
  H   H1107     1.0  0.71534  0.58888  0.81707  1.0000
  H   H1108     1.0  0.67317  0.65320  0.75873  1.0000
  H   H1109     1.0  0.72139  0.65724  0.73704  1.0000
  H   H1110     1.0  0.77654  0.61698  0.73870  1.0000
  H   H1111     1.0  0.64641  0.62227  0.82417  1.0000
  H   H1112     1.0  0.65541  0.67640  0.84191  1.0000
  H   H1113     1.0  0.68926  0.73118  0.83135  1.0000
  H   H1114     1.0  0.71305  0.73267  0.80233  1.0000
  H   H1115     1.0  0.70328  0.68020  0.78414  1.0000
  H   H1116     1.0  0.59499  0.61383  0.80636  1.0000
  C   C1377     1.0  0.58635  0.85232  0.69987  1.0000
  C   C1378     1.0  0.71966  0.52550  0.90514  1.0000
  C   C1379     1.0  0.69534  0.92585  0.66899  1.0000
  Fe  Fe94      1.0  0.52804  0.58135  0.89466  1.0000
  C   C1380     1.0  0.49273  0.77680  0.66287  1.0000
  H   H1117     1.0  0.60651  0.86987  0.67593  1.0000
  C   C1381     1.0  0.52029  0.70055  0.78900  1.0000
  C   C1382     1.0  0.95538  0.75159  0.72677  1.0000
  S   S190      1.0  0.52106  0.67982  0.91215  1.0000
  H   H1118     1.0  0.63712  0.56969  0.90196  1.0000
  H   H1119     1.0  0.69847  0.57642  0.91505  1.0000
  S   S191      1.0  0.53938  0.52904  0.88080  1.0000
  H   H1120     1.0  0.50413  0.58256  0.98816  1.0000
  C   C1383     1.0  0.94883  0.57535  0.77045  1.0000
  C   C1384     1.0  0.72416  0.96408  0.74664  1.0000
  C   C1385     1.0  0.94686  0.59656  0.78478  1.0000
  C   C1386     1.0  0.95798  0.72173  0.78350  1.0000
  C   C1387     1.0  0.91946  0.71869  0.78177  1.0000
  C   C1388     1.0  0.89576  0.73630  0.79289  1.0000
  C   C1389     1.0  0.91033  0.75643  0.80606  1.0000
  C   C1390     1.0  0.62966  0.77839  0.84840  1.0000
  H   H1121     1.0  0.63003  0.53412  0.78915  1.0000
  H   H1122     1.0  0.53618  0.76310  0.73548  1.0000
  C   C1391     1.0  0.70191  0.52898  0.74282  1.0000
  H   H1123     1.0  0.49996  0.86761  0.71495  1.0000
  H   H1124     1.0  0.69383  0.55588  0.73791  1.0000
  C   C1392     1.0  0.51586  0.77623  0.69124  1.0000
  H   H1125     1.0  0.50397  0.76889  0.80406  1.0000
  C   C1393     1.0  0.98224  0.49365  0.82298  1.0000
  H   H1126     1.0  0.59448  0.52886  0.83459  1.0000
  H   H1127     1.0  0.51904  0.53340  0.96657  1.0000
  H   H1128     1.0  0.59344  0.65677  0.83840  1.0000
  C   C1394     1.0  0.52322  0.86859  0.70646  1.0000
  C   C1395     1.0  0.74917  0.94934  0.73525  1.0000
  C   C1396     1.0  0.86379  0.50478  0.75151  1.0000
  H   H1129     1.0  0.86604  0.73340  0.79162  1.0000
  H   H1130     1.0  0.89197  0.76884  0.81505  1.0000
  C   C1397     1.0  0.54981  0.70464  0.80015  1.0000
  C   C1398     1.0  0.79494  0.50264  0.79424  1.0000
  C   C1399     1.0  0.77605  0.97205  0.72788  1.0000
  H   H1131     1.0  0.97792  0.53196  0.86152  1.0000
  C   C1400     1.0  0.49830  0.78573  0.75351  1.0000
  C   C1401     1.0  0.69268  0.55256  0.90746  1.0000
  Fe  Fe95      1.0  0.68784  0.73883  0.65671  1.0000
  C   C1402     1.0  0.55296  0.60823  0.78788  1.0000
  P   P47       1.0  0.98816  0.69699  0.76959  1.0000
  C   C1403     1.0  0.98036  0.65252  0.82836  1.0000
  C   C1404     1.0  0.52858  0.51700  0.94143  1.0000
  C   C1405     1.0  0.62158  0.78487  0.83161  1.0000
  Fe  Fe96      1.0  0.69543  0.81985  0.67079  1.0000
  C   C1406     1.0  0.61077  0.60125  0.76499  1.0000
  H   H1132     1.0  0.89554  0.53017  0.82314  1.0000
  H   H1133     1.0  0.76195  0.68454  0.67247  1.0000
  C   C1407     1.0  0.98534  0.61452  0.82611  1.0000
  C   C1408     1.0  0.61072  0.75083  0.85730  1.0000
  H   H1134     1.0  0.61197  0.83860  0.70320  1.0000
  H   H1135     1.0  0.52529  0.54480  0.93641  1.0000
  C   C1409     1.0  0.51986  0.88656  0.69097  1.0000
  C   C1410     1.0  0.97240  0.74209  0.79676  1.0000
  H   H1136     1.0  0.58816  0.76980  0.81082  1.0000
  H   H1137     1.0  0.78291  0.57126  0.76203  1.0000
  C   C1411     1.0  0.52521  0.51037  0.95855  1.0000
  H   H1138     1.0  0.79501  0.96070  0.71884  1.0000
  H   H1139     1.0  0.95695  0.64934  0.79565  1.0000
  C   C1412     1.0  0.95921  0.63320  0.78445  1.0000
  C   C1413     1.0  0.59482  0.76349  0.82368  1.0000
  C   C1414     1.0  0.57668  0.73467  0.83238  1.0000
  C   C1415     1.0  0.95639  0.73762  0.74312  1.0000
  H   H1140     1.0  0.78245  0.50384  0.66433  1.0000
  C   C1416     1.0  0.94712  0.50419  0.81719  1.0000
  C   C1417     1.0  0.56742  0.64269  0.83695  1.0000
  H   H1141     1.0  0.70326  0.97500  0.70485  1.0000
  C   C1418     1.0  0.69928  0.96992  0.69174  1.0000
  C   C1419     1.0  0.49985  0.60569  0.83454  1.0000
  H   H1142     1.0  0.51925  0.80231  0.75948  1.0000
  C   C1420     1.0  0.50793  0.76356  0.74007  1.0000
  H   H1143     1.0  0.53061  0.61067  0.79679  1.0000
  H   H1144     1.0  0.51674  0.60176  0.76686  1.0000
  C   C1421     1.0  0.65807  0.54886  0.90000  1.0000
  S   S192      1.0  0.69838  0.88013  0.66063  1.0000
  H   H1145     1.0  0.52770  0.55956  0.84637  1.0000
  H   H1146     1.0  0.74640  0.52826  0.91104  1.0000
  H   H1147     1.0  0.49415  0.90025  0.68787  1.0000
  C   C1422     1.0  0.98608  0.71544  0.74850  1.0000
  C   C1423     1.0  0.78719  0.68560  0.66518  1.0000
  C   C1424     1.0  0.73084  0.50967  0.73538  1.0000
  C   C1425     1.0  0.68407  0.51409  0.75682  1.0000
  C   C1426     1.0  0.65867  0.50086  0.80727  1.0000
  H   H1148     1.0  0.62339  0.51635  0.88439  1.0000
  C   C1427     1.0  0.59669  0.50263  0.84118  1.0000
  C   C1428     1.0  0.68656  0.49962  0.81927  1.0000
  C   C1429     1.0  0.50301  0.64237  0.82885  1.0000
  C   C1430     1.0  0.98408  0.74383  0.71571  1.0000
  H   H1149     1.0  0.98332  0.75487  0.70308  1.0000
  C   C1431     1.0  0.57760  0.96951  0.67701  1.0000
  C   C1432     1.0  0.50894  0.49432  0.88733  1.0000
  C   C1433     1.0  0.49939  0.73398  0.82618  1.0000
  H   H1150     1.0  0.50409  0.69553  0.76328  1.0000
  C   C1434     1.0  0.83311  0.49812  0.79259  1.0000
  P   P48       1.0  0.54608  0.91043  0.65980  1.0000
  C   C1435     1.0  0.69037  0.95621  0.65796  1.0000
  C   C1436     1.0  0.85261  0.67341  0.66252  1.0000
  H   H1151     1.0  0.84055  0.49392  0.68004  1.0000
  C   C1437     1.0  0.82916  0.49579  0.74504  1.0000
  H   H1152     1.0  0.98706  0.63872  0.74393  1.0000
  C   C1438     1.0  0.68972  0.99303  0.66373  1.0000
  C   C1439     1.0  0.71227  0.49512  0.89509  1.0000
  C   C1440     1.0  0.62733  0.49551  0.85132  1.0000
