data_image0
_chemical_formula_structural       C5H2FeCH3FeCSHCH3CSCHC2H3CPCSCSHCH2CSCFe2HCHCHSHC2SCHCH3CHC6H2C5HC4HC2HC4HCH2PH2C2HC4HC7HC2H3CH4C3H4PC2HCH2C3FeHS2CSC4FeCSC2HC4H2CH3C4H3CHC3HSC5H2CH2CH3CHCHC2H2CH5CH4SC3HC6H3C4HCPHC2HCPC3H5C5SC3H4C3HCH3CSFeCH2C6HCH5C3HFeHCHFeHCH2CHCFeH2C2FeCHC2H4C2HSCH3C2H2C3HCH2CHCFeHC2H2SHSH5C4HCH2S2HCSC3HC3HCSCHCHCFeC3H3CHCH2C3H2C8H2PC2SH2SCSCHCH3CHC2SHCH2CH4CHCSHC3H2CH4C2HC2H2SHC3PHSPCFeH2C2H3FeCHCSC6HFeHCH2C2H2CHPCH2C3H2CH2C5HSCH3CH2CH2CH2C2H3C5HC2SH3C2H2CHC5H2CH2C2H2CHCHCPH2PC4H2C3H2CSCHCHCSC5H4C10H2CHCPH2C3HC4H3C4HCHC2HCFeHCSH3C4H4C3HCH3CHCH2CH3CSC4H3C2H3C2H2C2HSHCHCH2C3FeCHSH2C3H2C2HC2HC2HS3C2PH5C2HCSC3H2CHC2HCHCHC2SHC2S2C2SHSCHC3HCSCH2C3HFeCHC2FeH2FeHSHCHSCFeCPHC2HCHSCSHCFeHC6SH2C2H4CFeCHC4HCSCHSC3HFeH3CHC4H3PH2FeHCHFeCS2H5CHC2H2FeHFeC2HSFeC2HC2HCHCHCSCH2CHSCH2CHC6SC9HCH4SHFeC4SH5CHC2H2CHC2SH2CHC2HC3HSH2C2HSC3PC3HCH4C3HC2H2SH3C2SC4HFeHC2HC6PH2C3HC3H2CH2CSHSC2HC3HCHCHCPCHCH4C2HCH2CFeC2SHCSCHC6HCHSHC5HC2H3SC2HC2H6CHFeCH2PHCH3C2HFeH5C3HCHCHCFeCH4CH2C4HC2H3C3H3CHCSCH2CHC2H4C5HCH2C2H2SCPC2HCH2FeSCSHCH2FeH4C3HFeC2HCHCSH2C3PH2CHCSH3CHSH2CHC4HCHCHC4HCSFeHC9HC2SCH2C2H5C2FeH3CHCHCHC3SHFeC4HCPC4H3C2HFeH4SC3H3CH2C4HC3H2C3HC2HCHSHCHC2H3CSHCHC7HPC2SHC6HC2H2CHCHCH2SH2C3HCH2C3H2PC2HC2SCH4C4HCHCH3CHCHC2HCH2C2FeH2CHPSC3HC2H3CHC3H2CHCH2CHC2HC7SHC4HCPCHC3HC3SC2H3CHCSH2CHSH4FeCHC2H2C4H3C2FeC5HC2HCH2C3HC2HCHC2HPH2CH6CH2CSC2SCSH2C2H3C2HCHC4FeC2H6FeHCHCH3C2HCHCSPHCFeC2H2SHCHFeH2C5HCH2C2SFeC4HCHCHSHC5H3FeCHC3HC2HC2SC3HCH2CHSHSC3HC3H3CH2C2H3SPC4HCHC3H2C2H3C2HCSCHC3SFeH3C3HSC3HC2H2CH2FeCSCHC4HC3HCHC5H2SH2CH2CHCH2CHSC4SH2CSC2FeHCSPH2C2HS2C2H2SH2CSCSCHC2HC3HC3H2Fe2CFeCHCH2CHCHFeCH5SCHCHC2HC3S2CH2FeHC4HCH3CSH2CSC3HSHCHC2HPC7HFeC2HC2H2CH2CHFeC3HC2HS2FeCHFeCHFe2CHC2HSPC2HCHCFeCH3CS2C3SH5CSCHC2H2C2HC2HSHC2H2C2HFeHSFeS3HCHC2H3CHC2HCHFeC4HC4H2CHC3HC6HC2HCH2C3SCH2C6H7CH2CHC6HCHCHPCH3C2H2C3HCH2CH2PCH4C2HC2H2C2H3CHCH3C4HC5HPHC2HCH2CH2CH3CHPHC3HCHCH2C4HC5HCHC2SC3H2C8H3SCPHCH2C3SH2C2H2SC6HC2H2CH2CHC7SC3H2CH2C4HPHC2HCH2C4SCHFeCH2C2HCHCSCHC3H3C3HSC3HCH2CH4FeHCSFeC2HC2HC2HC3SC4H2CSHFeSH2C2HPHFeC3SCHC2FeC5SCHC2FeCHSHCSFeCFeC2SCHSHSC2SH2C4SC2HFeCSHC3FeCFeSH5C2SC2H2S2CHC2HFeSFeHCSHC5SHSCHCH2SC2SCSH3CPSCH3CH3FeHCH2C7H2CH3CHCHC3HC4HC2HCHPHCHCHCH2C2H2CH2C3H2SCHC2HC3H2C4H2C3HC5HC2PHC3H3C2H2C6H2SHC4HCHCHCHSC3FeH3CH2CHCPSCHC3HC7HC3HC2HCHC2H2C2PCHCH3CFeC2H6CH6CH2CHC2FeCH3C2H3C4HC3SC3H3C3H5C4H3C5PCH2CH4SC6H2FeC3HFeH2CHCH3CHCPHCH4C3SC3HCHCHCH4CH4C2PH4CH2C2HC2HCSH2C2H4C2PC4HC2H2C2HCHC3HSHC2H3CHC4FePH2FeC3SC3HC2HC3FeHC3H2C2HCH2CHCPHC4H2CSCSHC2HC2HC3HPHCH3C3HSH4CH2C2HCHC2FeSCH4CHC2H2C2SHS2CHCHC6FeSHC2HC5HCSHCH4C3H2C3FeC2HC2H3C4SCH3CHSFeC2H3C3HCHCH3CSC2H4CHCHCHCH5C3HFeHCH3CFeH4CSH2CSH2C5HCFeCHCFeHCHC5HCSFeHC2H2C6HSCHPCHCHC2SFeH2CHC6H4CSH2CHC3SC2SC3SHC2SHC3PC3H2C2SFeHFeC3SHC2FeCH2SH5CS2CSC2H2C3H2C2H2CHC6H2PCHC2H3CH2C3H2C4H6C2HCHCH7C3HCHSCH2CSC2H2C2H4C3HC3HC6HSH2FeHC2HCH2CSCH2C4HCHSH2C2PCH5CSCHCSC7SHFeC2H3CH3C2H2FeH2CFeHCH3C2HCHC3SC3SH3CH2CHSHC5H2PC2H2CHCH3C3H2C5H2CSHSCFeH3CHCHCHCHC5HPH2C2HCHCHSHCH3CHC2HC2H2SC2HC5HCFe4C2SHC2HC2HC2H3CHC6H2C3HCHC2HFeH2CHFeC2P2CHC2HC4SH2C3SCHSHCH2C2HCHFeCH3C2HC3HC2SC5SH2SH5S2C4HC2SCHSHCSHCHCHSHC2H2PCH2CHC3H3C2SC3FeC3H2C2FeHC2H3CH2CH3CH2C6H2CH
_chemical_formula_sum              "C1800 H1440 Fe120 S240 P60"
_cell_length_a       44.349
_cell_length_b       40.8211
_cell_length_c       32.4611
_cell_angle_alpha    89.6862
_cell_angle_beta     78.3028
_cell_angle_gamma    121.277

_space_group_name_H-M_alt    "P 1"
_space_group_IT_number       1

loop_
  _space_group_symop_operation_xyz
  'x, y, z'

loop_
  _atom_site_type_symbol
  _atom_site_label
  _atom_site_symmetry_multiplicity
  _atom_site_fract_x
  _atom_site_fract_y
  _atom_site_fract_z
  _atom_site_occupancy
  C   C1        1.0  0.27302  0.53119  0.40600  1.0000
  C   C2        1.0  0.38501  0.11257  0.50694  1.0000
  C   C3        1.0  0.26147  0.41182  0.48363  1.0000
  C   C4        1.0  0.20499  0.50252  0.61485  1.0000
  C   C5        1.0  0.20600  0.40936  0.48332  1.0000
  H   H1        1.0  0.14637  0.20917  0.60350  1.0000
  H   H2        1.0  0.05819  0.30453  0.43617  1.0000
  Fe  Fe1       1.0  0.11809  0.49287  0.46969  1.0000
  C   C6        1.0  0.26577  0.24329  0.46148  1.0000
  H   H3        1.0  0.07397  0.42273  0.56356  1.0000
  H   H4        1.0  0.22179  0.47766  0.41212  1.0000
  H   H5        1.0  0.39025  0.44452  0.57870  1.0000
  Fe  Fe2       1.0  0.25094  0.12303  0.54219  1.0000
  C   C7        1.0  0.13193  0.17845  0.61368  1.0000
  S   S1        1.0  0.25320  0.55877  0.41755  1.0000
  H   H6        1.0  0.24943  0.44022  0.38685  1.0000
  C   C8        1.0  0.29163  0.34581  0.61001  1.0000
  H   H7        1.0  0.12784  0.38102  0.51150  1.0000
  H   H8        1.0  0.18844  0.43505  0.53207  1.0000
  H   H9        1.0  0.20892  0.32273  0.54304  1.0000
  C   C9        1.0  0.36413  0.26086  0.60993  1.0000
  S   S2        1.0  0.25433  0.11355  0.47377  1.0000
  C   C10       1.0  0.15428  0.30184  0.47494  1.0000
  H   H10       1.0  0.13732  0.45406  0.56853  1.0000
  C   C11       1.0  0.22007  0.17611  0.48760  1.0000
  C   C12       1.0  0.35394  0.48563  0.46412  1.0000
  H   H11       1.0  0.15267  0.31920  0.53735  1.0000
  H   H12       1.0  0.35935  0.49287  0.60859  1.0000
  H   H13       1.0  0.19312  0.38289  0.60203  1.0000
  C   C13       1.0  0.25097  0.49179  0.40361  1.0000
  P   P1        1.0  0.24379  0.46781  0.58198  1.0000
  C   C14       1.0  0.36554  0.12476  0.62177  1.0000
  S   S3        1.0  0.27985  0.11087  0.58344  1.0000
  C   C15       1.0  0.40195  0.51222  0.50166  1.0000
  S   S4        1.0  0.19982  0.10006  0.59319  1.0000
  H   H14       1.0  0.09610  0.32763  0.57171  1.0000
  C   C16       1.0  0.09496  0.15515  0.61481  1.0000
  H   H15       1.0  0.33814  0.32164  0.58394  1.0000
  H   H16       1.0  0.08087  0.16806  0.60606  1.0000
  C   C17       1.0  0.16731  0.31236  0.51150  1.0000
  S   S5        1.0  0.03913  0.24708  0.57663  1.0000
  C   C18       1.0  0.37570  0.15132  0.58683  1.0000
  Fe  Fe3       1.0  0.22491  0.16033  0.60996  1.0000
  Fe  Fe4       1.0  0.29914  0.17104  0.59981  1.0000
  H   H17       1.0  0.32733  0.25689  0.57311  1.0000
  C   C19       1.0  0.04432  0.54763  0.42986  1.0000
  H   H18       1.0  0.35546  0.14973  0.57181  1.0000
  C   C20       1.0  0.41007  0.48412  0.48966  1.0000
  H   H19       1.0  0.10865  0.29861  0.40173  1.0000
  S   S6        1.0  0.35574  0.21454  0.60482  1.0000
  H   H20       1.0  0.28183  0.40565  0.46902  1.0000
  C   C21       1.0  0.05956  0.28637  0.53720  1.0000
  C   C22       1.0  0.08777  0.32290  0.54213  1.0000
  S   S7        1.0  0.27348  0.18419  0.55537  1.0000
  C   C23       1.0  0.08062  0.40914  0.58594  1.0000
  H   H21       1.0  0.34749  0.12149  0.48289  1.0000
  C   C24       1.0  0.04353  0.11372  0.50776  1.0000
  H   H22       1.0  0.23688  0.26401  0.57149  1.0000
  H   H23       1.0  0.08782  0.09247  0.53468  1.0000
  H   H24       1.0  0.32600  0.40255  0.57413  1.0000
  C   C25       1.0  0.34595  0.27447  0.59192  1.0000
  H   H25       1.0  0.19059  0.23360  0.52808  1.0000
  C   C26       1.0  0.38889  0.08748  0.53179  1.0000
  C   C27       1.0  0.04804  0.16695  0.54424  1.0000
  C   C28       1.0  0.19932  0.31449  0.51446  1.0000
  C   C29       1.0  0.12440  0.07325  0.53516  1.0000
  C   C30       1.0  0.16861  0.18087  0.40519  1.0000
  C   C31       1.0  0.35204  0.31115  0.59811  1.0000
  H   H26       1.0  0.36859  0.53545  0.49688  1.0000
  H   H27       1.0  0.17112  0.16501  0.53089  1.0000
  C   C32       1.0  0.43316  0.06867  0.39258  1.0000
  C   C33       1.0  0.25559  0.29446  0.57159  1.0000
  C   C34       1.0  0.08304  0.19172  0.51890  1.0000
  C   C35       1.0  0.22899  0.51503  0.53866  1.0000
  C   C36       1.0  0.29747  0.33539  0.44246  1.0000
  H   H28       1.0  0.09815  0.22181  0.52377  1.0000
  C   C37       1.0  0.20855  0.22586  0.50933  1.0000
  C   C38       1.0  0.04822  0.28051  0.49949  1.0000
  C   C39       1.0  0.10861  0.08888  0.51527  1.0000
  C   C40       1.0  0.19724  0.18686  0.51088  1.0000
  H   H29       1.0  0.41528  0.09762  0.53750  1.0000
  C   C41       1.0  0.26999  0.32096  0.53469  1.0000
  C   C42       1.0  0.26633  0.30684  0.60904  1.0000
  H   H30       1.0  0.18289  0.55991  0.56948  1.0000
  C   C43       1.0  0.41199  0.18081  0.57143  1.0000
  C   C44       1.0  0.37521  0.33345  0.62363  1.0000
  C   C45       1.0  0.35086  0.10165  0.50098  1.0000
  C   C46       1.0  0.10583  0.35294  0.50805  1.0000
  H   H31       1.0  0.40824  0.14112  0.49359  1.0000
  C   C47       1.0  0.29499  0.36020  0.53615  1.0000
  H   H32       1.0  0.33334  0.48716  0.45258  1.0000
  H   H33       1.0  0.41904  0.20121  0.54438  1.0000
  P   P2        1.0  0.25786  0.30491  0.48535  1.0000
  H   H34       1.0  0.41808  0.53436  0.51965  1.0000
  H   H35       1.0  0.21178  0.14609  0.48980  1.0000
  C   C48       1.0  0.24325  0.25452  0.48525  1.0000
  C   C49       1.0  0.21839  0.30586  0.48077  1.0000
  H   H36       1.0  0.05299  0.37217  0.52363  1.0000
  C   C50       1.0  0.16211  0.07823  0.46722  1.0000
  C   C51       1.0  0.05352  0.37451  0.61226  1.0000
  C   C52       1.0  0.09852  0.17743  0.48803  1.0000
  C   C53       1.0  0.30575  0.37254  0.57366  1.0000
  H   H37       1.0  0.30708  0.38112  0.50803  1.0000
  C   C54       1.0  0.25337  0.07117  0.46340  1.0000
  C   C55       1.0  0.07873  0.13826  0.48219  1.0000
  C   C56       1.0  0.26511  0.43180  0.51901  1.0000
  C   C57       1.0  0.25410  0.20417  0.46252  1.0000
  C   C58       1.0  0.11985  0.09972  0.47106  1.0000
  C   C59       1.0  0.23199  0.40063  0.46588  1.0000
  C   C60       1.0  0.09605  0.34569  0.46914  1.0000
  H   H38       1.0  0.27190  0.19557  0.44494  1.0000
  C   C61       1.0  0.14676  0.09432  0.44724  1.0000
  C   C62       1.0  0.06651  0.30998  0.46559  1.0000
  H   H39       1.0  0.33368  0.32747  0.47130  1.0000
  H   H40       1.0  0.18386  0.40158  0.46832  1.0000
  H   H41       1.0  0.12984  0.30087  0.47248  1.0000
  C   C63       1.0  0.20912  0.42882  0.51906  1.0000
  H   H42       1.0  0.29435  0.55285  0.57005  1.0000
  H   H43       1.0  0.12587  0.19688  0.46921  1.0000
  H   H44       1.0  0.28852  0.44050  0.53156  1.0000
  H   H45       1.0  0.29247  0.26437  0.44256  1.0000
  C   C64       1.0  0.41330  0.46784  0.58836  1.0000
  C   C65       1.0  0.33125  0.34107  0.44443  1.0000
  C   C66       1.0  0.11681  0.42699  0.58841  1.0000
  H   H46       1.0  0.39437  0.43392  0.45601  1.0000
  H   H47       1.0  0.22953  0.38564  0.43809  1.0000
  H   H48       1.0  0.08250  0.23922  0.45183  1.0000
  H   H49       1.0  0.04262  0.52812  0.45427  1.0000
  P   P3        1.0  0.09894  0.11870  0.44444  1.0000
  C   C67       1.0  0.20423  0.29374  0.44490  1.0000
  C   C68       1.0  0.23913  0.44088  0.53687  1.0000
  H   H50       1.0  0.29648  0.45114  0.60077  1.0000
  C   C69       1.0  0.42871  0.15530  0.62389  1.0000
  H   H51       1.0  0.05525  0.17529  0.42624  1.0000
  H   H52       1.0  0.28965  0.09646  0.40168  1.0000
  C   C70       1.0  0.38883  0.45586  0.46611  1.0000
  C   C71       1.0  0.27373  0.07072  0.42467  1.0000
  C   C72       1.0  0.36098  0.45677  0.45333  1.0000
  Fe  Fe5       1.0  0.19409  0.52086  0.41773  1.0000
  H   H53       1.0  0.34615  0.43634  0.43299  1.0000
  S   S8        1.0  0.09082  0.45062  0.42585  1.0000
  S   S9        1.0  0.15741  0.47486  0.47296  1.0000
  C   C73       1.0  0.17266  0.29239  0.44171  1.0000
  S   S10       1.0  0.12329  0.37774  0.42278  1.0000
  C   C74       1.0  0.08213  0.23726  0.41869  1.0000
  C   C75       1.0  0.30962  0.48221  0.59500  1.0000
  C   C76       1.0  0.37403  0.51299  0.48880  1.0000
  C   C77       1.0  0.04835  0.49357  0.52998  1.0000
  Fe  Fe6       1.0  0.13375  0.43697  0.42466  1.0000
  C   C78       1.0  0.29093  0.49865  0.58363  1.0000
  S   S11       1.0  0.09218  0.50475  0.52926  1.0000
  C   C79       1.0  0.22426  0.49692  0.57841  1.0000
  C   C80       1.0  0.29537  0.35362  0.40721  1.0000
  H   H54       1.0  0.17649  0.17747  0.43354  1.0000
  C   C81       1.0  0.43865  0.18378  0.59079  1.0000
  C   C82       1.0  0.36198  0.36347  0.41116  1.0000
  C   C83       1.0  0.03849  0.51996  0.54319  1.0000
  C   C84       1.0  0.06406  0.07961  0.42345  1.0000
  H   H55       1.0  0.38771  0.36686  0.41207  1.0000
  H   H56       1.0  0.15572  0.10246  0.41323  1.0000
  C   C85       1.0  0.41189  0.08290  0.41189  1.0000
  H   H57       1.0  0.21762  0.28530  0.41934  1.0000
  H   H58       1.0  0.42414  0.10940  0.42593  1.0000
  H   H59       1.0  0.34460  0.26151  0.40148  1.0000
  C   C86       1.0  0.19022  0.52517  0.61139  1.0000
  C   C87       1.0  0.34517  0.50574  0.59961  1.0000
  C   C88       1.0  0.03659  0.08310  0.41271  1.0000
  C   C89       1.0  0.36224  0.54594  0.59330  1.0000
  H   H60       1.0  0.27036  0.35109  0.40479  1.0000
  H   H61       1.0  0.43981  0.25532  0.58286  1.0000
  H   H62       1.0  0.16240  0.28387  0.41349  1.0000
  C   C90       1.0  0.13275  0.15614  0.40138  1.0000
  H   H63       1.0  0.24433  0.51203  0.50996  1.0000
  C   C91       1.0  0.19443  0.54237  0.57176  1.0000
  C   C92       1.0  0.09610  0.27064  0.39058  1.0000
  C   C93       1.0  0.06679  0.20120  0.40426  1.0000
  H   H64       1.0  0.03821  0.36080  0.45438  1.0000
  S   S12       1.0  0.15630  0.54177  0.41738  1.0000
  C   C94       1.0  0.21376  0.53723  0.53543  1.0000
  C   C95       1.0  0.26662  0.47045  0.38953  1.0000
  C   C96       1.0  0.30830  0.53911  0.57737  1.0000
  C   C97       1.0  0.15119  0.06806  0.51115  1.0000
  C   C98       1.0  0.52407  0.53059  0.47295  1.0000
  H   H65       1.0  0.03544  0.10868  0.41763  1.0000
  H   H66       1.0  0.21694  0.55033  0.50457  1.0000
  C   C99       1.0  0.31088  0.54880  0.39618  1.0000
  H   H67       1.0  0.05840  0.54759  0.55084  1.0000
  H   H68       1.0  0.35803  0.07344  0.42815  1.0000
  C   C100      1.0  0.12643  0.41015  0.61658  1.0000
  H   H69       1.0  0.02894  0.54777  0.62546  1.0000
  H   H70       1.0  0.04025  0.43720  0.61143  1.0000
  H   H71       1.0  0.15437  0.42395  0.61845  1.0000
  C   C101      1.0  0.34380  0.56257  0.58219  1.0000
  H   H72       1.0  0.03016  0.43734  0.50990  1.0000
  C   C102      1.0  0.07250  0.56234  0.39321  1.0000
  H   H73       1.0  0.42783  0.41497  0.55638  1.0000
  C   C103      1.0  0.41045  0.47224  0.63143  1.0000
  C   C104      1.0  0.07615  0.11528  0.62727  1.0000
  H   H74       1.0  0.03623  0.17741  0.56902  1.0000
  H   H75       1.0  0.09260  0.55426  0.38911  1.0000
  C   C105      1.0  0.49595  0.33305  0.43620  1.0000
  H   H76       1.0  0.49557  0.54922  0.62547  1.0000
  H   H77       1.0  0.18326  0.07448  0.44905  1.0000
  H   H78       1.0  0.48530  0.15449  0.53293  1.0000
  H   H79       1.0  0.46798  0.46077  0.42314  1.0000
  H   H80       1.0  0.38953  0.56423  0.59761  1.0000
  C   C106      1.0  0.49089  0.52630  0.47071  1.0000
  H   H81       1.0  0.52159  0.37625  0.56586  1.0000
  H   H82       1.0  0.46619  0.55084  0.44043  1.0000
  H   H83       1.0  0.46195  0.08398  0.39196  1.0000
  H   H84       1.0  0.49756  0.09713  0.63099  1.0000
  S   S13       1.0  0.02987  0.08752  0.62802  1.0000
  C   C107      1.0  0.51430  0.34643  0.56698  1.0000
  C   C108      1.0  0.49113  0.55371  0.44409  1.0000
  C   C109      1.0  0.49366  0.34415  0.39671  1.0000
  H   H85       1.0  0.50085  0.54255  0.54977  1.0000
  C   C110      1.0  0.47780  0.31650  0.57465  1.0000
  C   C111      1.0  0.43559  0.41229  0.52343  1.0000
  C   C112      1.0  0.44838  0.44270  0.49118  1.0000
  C   C113      1.0  0.44600  0.49241  0.55825  1.0000
  C   C114      1.0  0.47256  0.52654  0.61506  1.0000
  C   C115      1.0  0.45855  0.43799  0.44875  1.0000
  H   H86       1.0  0.52449  0.50952  0.49289  1.0000
  H   H87       1.0  0.43768  0.34527  0.46316  1.0000
  H   H88       1.0  0.42189  0.35388  0.53819  1.0000
  C   C116      1.0  0.43224  0.37747  0.51326  1.0000
  C   C117      1.0  0.47163  0.08256  0.62266  1.0000
  C   C118      1.0  0.48793  0.17374  0.50748  1.0000
  C   C119      1.0  0.44151  0.37272  0.47095  1.0000
  H   H89       1.0  0.48437  0.17559  0.40385  1.0000
  C   C120      1.0  0.49550  0.26914  0.56923  1.0000
  P   P4        1.0  0.44878  0.48620  0.50263  1.0000
  H   H90       1.0  0.48382  0.13477  0.46120  1.0000
  C   C121      1.0  0.48617  0.18482  0.43495  1.0000
  C   C122      1.0  0.49205  0.20957  0.51497  1.0000
  H   H91       1.0  0.49617  0.26048  0.48664  1.0000
  C   C123      1.0  0.47047  0.07639  0.58069  1.0000
  P   P5        1.0  0.48561  0.22027  0.56863  1.0000
  C   C124      1.0  0.48577  0.16182  0.46733  1.0000
  C   C125      1.0  0.51341  0.21708  0.60009  1.0000
  C   C126      1.0  0.45517  0.40315  0.43874  1.0000
  H   H92       1.0  0.49131  0.23859  0.41662  1.0000
  H   H93       1.0  0.49542  0.08607  0.55678  1.0000
  H   H94       1.0  0.45686  0.32326  0.57941  1.0000
  H   H95       1.0  0.46231  0.39949  0.40581  1.0000
  H   H96       1.0  0.47186  0.31014  0.45826  1.0000
  C   C127      1.0  0.49361  0.23304  0.48178  1.0000
  C   C128      1.0  0.46828  0.27789  0.57607  1.0000
  C   C129      1.0  0.49023  0.22044  0.44212  1.0000
  C   C130      1.0  0.47550  0.52230  0.57193  1.0000
  C   C131      1.0  0.15033  0.16196  0.62501  1.0000
  S   S14       1.0  0.19617  0.19207  0.62482  1.0000
  C   C132      1.0  0.22161  0.43494  0.63100  1.0000
  C   C133      1.0  0.38912  0.28432  0.63304  1.0000
  C   C134      1.0  0.19808  0.39502  0.63129  1.0000
  H   H97       1.0  0.46760  0.33026  0.38845  1.0000
  H   H98       1.0  0.33709  0.10295  0.63442  1.0000
  H   H99       1.0  0.03842  0.47857  0.38608  1.0000
  H   H100      1.0  0.06396  0.33472  0.80995  1.0000
  C   C135      1.0  0.39221  0.12655  0.63998  1.0000
  C   C136      1.0  0.23031  0.11468  0.81227  1.0000
  C   C137      1.0  0.21805  0.19360  0.85586  1.0000
  H   H101      1.0  0.32058  0.29645  0.69626  1.0000
  C   C138      1.0  0.23565  0.34509  0.74914  1.0000
  H   H102      1.0  0.34961  0.15430  0.73661  1.0000
  H   H103      1.0  0.20985  0.06695  0.86046  1.0000
  H   H104      1.0  0.03296  0.09273  0.76409  1.0000
  C   C139      1.0  0.25442  0.20481  0.84991  1.0000
  S   S15       1.0  0.35839  0.07215  0.75238  1.0000
  Fe  Fe7       1.0  0.39706  0.38515  0.69814  1.0000
  C   C140      1.0  0.08380  0.39525  0.79935  1.0000
  H   H105      1.0  0.30140  0.09015  0.75585  1.0000
  H   H106      1.0  0.04546  0.52353  0.68028  1.0000
  C   C141      1.0  0.43936  0.06883  0.65373  1.0000
  C   C142      1.0  0.44468  0.28925  0.76597  1.0000
  C   C143      1.0  0.52203  0.46907  0.76605  1.0000
  C   C144      1.0  0.31308  0.39073  0.85851  1.0000
  C   C145      1.0  0.24441  0.36846  0.78174  1.0000
  C   C146      1.0  0.51217  0.22913  0.64049  1.0000
  H   H107      1.0  0.35657  0.48913  0.84511  1.0000
  C   C147      1.0  0.22151  0.13494  0.78734  1.0000
  H   H108      1.0  0.47924  0.52892  0.84562  1.0000
  H   H109      1.0  0.24270  0.34496  0.68141  1.0000
  H   H110      1.0  0.36134  0.20831  0.68838  1.0000
  H   H111      1.0  0.48353  0.21098  0.87165  1.0000
  H   H112      1.0  0.36792  0.43644  0.82878  1.0000
  C   C148      1.0  0.29123  0.27905  0.70537  1.0000
  C   C149      1.0  0.09451  0.09867  0.63880  1.0000
  C   C150      1.0  0.16653  0.07088  0.84558  1.0000
  H   H113      1.0  0.24832  0.50583  0.77723  1.0000
  Fe  Fe8       1.0  0.43026  0.36248  0.75726  1.0000
  H   H114      1.0  0.44720  0.30686  0.70200  1.0000
  C   C151      1.0  0.44042  0.26010  0.79383  1.0000
  H   H115      1.0  0.08555  0.53540  0.73934  1.0000
  Fe  Fe9       1.0  0.17910  0.45790  0.84509  1.0000
  H   H116      1.0  0.09679  0.45407  0.79521  1.0000
  C   C152      1.0  0.34505  0.17620  0.74955  1.0000
  H   H117      1.0  0.27442  0.22846  0.82554  1.0000
  H   H118      1.0  0.20127  0.48978  0.64609  1.0000
  C   C153      1.0  0.18565  0.38525  0.70812  1.0000
  H   H119      1.0  0.48439  0.39350  0.83154  1.0000
  C   C154      1.0  0.33323  0.17424  0.79329  1.0000
  Fe  Fe10      1.0  0.39716  0.09307  0.85275  1.0000
  H   H120      1.0  0.13141  0.24246  0.65573  1.0000
  H   H121      1.0  0.44023  0.07297  0.68652  1.0000
  C   C155      1.0  0.33485  0.45922  0.85483  1.0000
  C   C156      1.0  0.16300  0.24916  0.83874  1.0000
  Fe  Fe11      1.0  0.40313  0.12797  0.76642  1.0000
  C   C157      1.0  0.11057  0.27496  0.74669  1.0000
  H   H122      1.0  0.49416  0.23911  0.65266  1.0000
  C   C158      1.0  0.34758  0.23617  0.73851  1.0000
  C   C159      1.0  0.46962  0.50631  0.87119  1.0000
  H   H123      1.0  0.08983  0.27950  0.76442  1.0000
  H   H124      1.0  0.44130  0.26411  0.82658  1.0000
  H   H125      1.0  0.30147  0.35496  0.63838  1.0000
  H   H126      1.0  0.22080  0.18772  0.70561  1.0000
  C   C160      1.0  0.05716  0.35655  0.81496  1.0000
  C   C161      1.0  0.27451  0.40244  0.69701  1.0000
  H   H127      1.0  0.25504  0.30893  0.81732  1.0000
  S   S16       1.0  0.48468  0.50406  0.75676  1.0000
  C   C162      1.0  0.27733  0.54809  0.72087  1.0000
  H   H128      1.0  0.14043  0.23892  0.82423  1.0000
  H   H129      1.0  0.05333  0.50036  0.82669  1.0000
  H   H130      1.0  0.48498  0.08060  0.73800  1.0000
  C   C163      1.0  0.28413  0.42540  0.72951  1.0000
  C   C164      1.0  0.15392  0.56233  0.80894  1.0000
  H   H131      1.0  0.49967  0.44310  0.75922  1.0000
  H   H132      1.0  0.18597  0.21566  0.73875  1.0000
  C   C165      1.0  0.23514  0.21767  0.71100  1.0000
  C   C166      1.0  0.13412  0.25425  0.68551  1.0000
  C   C167      1.0  0.13173  0.12204  0.63748  1.0000
  H   H133      1.0  0.27645  0.42620  0.79704  1.0000
  C   C168      1.0  0.11145  0.11902  0.75767  1.0000
  H   H134      1.0  0.11782  0.46072  0.68191  1.0000
  H   H135      1.0  0.24564  0.48022  0.67028  1.0000
  C   C169      1.0  0.23339  0.27314  0.73427  1.0000
  H   H136      1.0  0.09558  0.13272  0.86161  1.0000
  C   C170      1.0  0.39429  0.32038  0.64042  1.0000
  Fe  Fe12      1.0  0.36844  0.37524  0.79312  1.0000
  H   H137      1.0  0.14363  0.29720  0.79148  1.0000
  C   C171      1.0  0.19833  0.27648  0.81562  1.0000
  C   C172      1.0  0.27309  0.24032  0.69875  1.0000
  H   H138      1.0  0.43820  0.50415  0.67838  1.0000
  H   H139      1.0  0.11087  0.40318  0.78239  1.0000
  S   S17       1.0  0.17228  0.48344  0.78929  1.0000
  H   H140      1.0  0.30375  0.55399  0.72266  1.0000
  S   S18       1.0  0.38772  0.42315  0.74148  1.0000
  H   H141      1.0  0.17910  0.13999  0.77265  1.0000
  H   H142      1.0  0.10748  0.36237  0.66413  1.0000
  H   H143      1.0  0.09222  0.24188  0.86886  1.0000
  H   H144      1.0  0.03568  0.43644  0.83685  1.0000
  H   H145      1.0  0.14243  0.53504  0.79610  1.0000
  C   C173      1.0  0.18526  0.12402  0.79252  1.0000
  C   C174      1.0  0.04182  0.47580  0.74307  1.0000
  C   C175      1.0  0.36793  0.27654  0.86573  1.0000
  C   C176      1.0  0.24039  0.56180  0.68746  1.0000
  H   H146      1.0  0.17592  0.53003  0.63948  1.0000
  C   C177      1.0  0.44393  0.28432  0.72356  1.0000
  H   H147      1.0  0.52417  0.13612  0.68082  1.0000
  H   H148      1.0  0.43211  0.20338  0.80089  1.0000
  S   S19       1.0  0.45358  0.33267  0.78437  1.0000
  S   S20       1.0  0.42316  0.39866  0.80463  1.0000
  H   H149      1.0  0.35317  0.26009  0.71717  1.0000
  C   C178      1.0  0.32937  0.20386  0.81020  1.0000
  S   S21       1.0  0.25217  0.15139  0.65578  1.0000
  C   C179      1.0  0.26903  0.40840  0.77181  1.0000
  C   C180      1.0  0.09661  0.46483  0.69895  1.0000
  C   C181      1.0  0.52440  0.10265  0.87280  1.0000
  H   H150      1.0  0.51250  0.49923  0.65391  1.0000
  C   C182      1.0  0.24602  0.52102  0.75184  1.0000
  C   C183      1.0  0.25010  0.36249  0.70679  1.0000
  C   C184      1.0  0.18033  0.37030  0.66976  1.0000
  H   H151      1.0  0.49845  0.22136  0.79305  1.0000
  C   C185      1.0  0.27276  0.07044  0.75862  1.0000
  S   S22       1.0  0.43130  0.10137  0.78779  1.0000
  C   C186      1.0  0.51454  0.37327  0.85568  1.0000
  H   H152      1.0  0.25829  0.12290  0.80802  1.0000
  C   C187      1.0  0.06366  0.35768  0.64026  1.0000
  H   H153      1.0  0.41117  0.33496  0.86611  1.0000
  C   C188      1.0  0.50951  0.24595  0.81054  1.0000
  Fe  Fe13      1.0  0.44353  0.44355  0.74961  1.0000
  C   C189      1.0  0.33671  0.23488  0.78231  1.0000
  C   C190      1.0  0.20916  0.42485  0.70803  1.0000
  C   C191      1.0  0.52147  0.50300  0.76747  1.0000
  H   H154      1.0  0.28857  0.22809  0.68395  1.0000
  H   H155      1.0  0.17182  0.36627  0.73803  1.0000
  H   H156      1.0  0.11729  0.10146  0.73674  1.0000
  C   C192      1.0  0.07819  0.50667  0.73216  1.0000
  H   H157      1.0  0.38543  0.45226  0.65454  1.0000
  C   C193      1.0  0.25722  0.07103  0.72508  1.0000
  H   H158      1.0  0.30306  0.45638  0.72207  1.0000
  H   H159      1.0  0.51293  0.35792  0.71357  1.0000
  C   C194      1.0  0.35190  0.20692  0.72218  1.0000
  C   C195      1.0  0.51649  0.12264  0.84604  1.0000
  C   C196      1.0  0.51431  0.09468  0.73098  1.0000
  H   H160      1.0  0.24285  0.15896  0.76381  1.0000
  H   H161      1.0  0.09259  0.18962  0.75322  1.0000
  C   C197      1.0  0.27159  0.29543  0.72341  1.0000
  C   C198      1.0  0.10715  0.11305  0.80171  1.0000
  C   C199      1.0  0.21536  0.23382  0.72919  1.0000
  C   C200      1.0  0.04161  0.41426  0.82997  1.0000
  C   C201      1.0  0.44023  0.25056  0.70869  1.0000
  C   C202      1.0  0.16463  0.26399  0.70103  1.0000
  C   C203      1.0  0.09405  0.16391  0.81006  1.0000
  C   C204      1.0  0.44016  0.50134  0.64485  1.0000
  H   H162      1.0  0.40363  0.27407  0.64649  1.0000
  H   H163      1.0  0.28644  0.32534  0.72895  1.0000
  P   P6        1.0  0.31161  0.19996  0.86658  1.0000
  C   C205      1.0  0.44129  0.46945  0.86812  1.0000
  C   C206      1.0  0.07600  0.42407  0.80682  1.0000
  S   S23       1.0  0.45475  0.40922  0.70211  1.0000
  H   H164      1.0  0.13313  0.52559  0.70135  1.0000
  H   H165      1.0  0.03610  0.21122  0.84156  1.0000
  S   S24       1.0  0.32043  0.35323  0.84785  1.0000
  C   C207      1.0  0.10538  0.50118  0.71024  1.0000
  S   S25       1.0  0.37345  0.33549  0.74957  1.0000
  C   C208      1.0  0.10725  0.14741  0.74021  1.0000
  H   H166      1.0  0.21061  0.20797  0.83551  1.0000
  C   C209      1.0  0.50095  0.24016  0.85486  1.0000
  H   H167      1.0  0.07827  0.55184  0.87161  1.0000
  H   H168      1.0  0.16228  0.33955  0.66988  1.0000
  H   H169      1.0  0.08009  0.06798  0.64890  1.0000
  C   C210      1.0  0.48491  0.12369  0.85882  1.0000
  H   H170      1.0  0.47956  0.14010  0.83850  1.0000
  C   C211      1.0  0.03301  0.43947  0.73091  1.0000
  C   C212      1.0  0.43576  0.22129  0.73667  1.0000
  S   S26       1.0  0.43220  0.17986  0.71762  1.0000
  H   H171      1.0  0.03571  0.13551  0.71625  1.0000
  C   C213      1.0  0.43523  0.22577  0.77936  1.0000
  H   H172      1.0  0.38122  0.27467  0.83479  1.0000
  H   H173      1.0  0.21323  0.43647  0.73780  1.0000
  C   C214      1.0  0.20290  0.08304  0.84180  1.0000
  H   H174      1.0  0.50604  0.34936  0.83719  1.0000
  H   H175      1.0  0.05152  0.18775  0.66137  1.0000
  H   H176      1.0  0.14565  0.10932  0.64743  1.0000
  H   H177      1.0  0.27406  0.09082  0.69619  1.0000
  C   C215      1.0  0.22737  0.28865  0.83495  1.0000
  H   H178      1.0  0.18334  0.53027  0.71687  1.0000
  C   C216      1.0  0.16795  0.27864  0.74010  1.0000
  S   S27       1.0  0.14484  0.32152  0.86899  1.0000
  H   H179      1.0  0.23252  0.35619  0.81482  1.0000
  C   C217      1.0  0.34119  0.42944  0.84539  1.0000
  C   C218      1.0  0.14100  0.28469  0.76224  1.0000
  C   C219      1.0  0.09801  0.16939  0.76643  1.0000
  H   H180      1.0  0.38490  0.10622  0.66697  1.0000
  H   H181      1.0  0.44881  0.15545  0.63810  1.0000
  C   C220      1.0  0.50187  0.39804  0.85260  1.0000
  H   H182      1.0  0.42940  0.46496  0.84105  1.0000
  H   H183      1.0  0.10951  0.15126  0.70653  1.0000
  H   H184      1.0  0.05351  0.40593  0.70008  1.0000
  H   H185      1.0  0.44020  0.24683  0.67570  1.0000
  C   C221      1.0  0.22099  0.27512  0.87731  1.0000
  C   C222      1.0  0.20936  0.53477  0.71786  1.0000
  H   H186      1.0  0.08332  0.25182  0.69645  1.0000
  C   C223      1.0  0.22745  0.44954  0.66966  1.0000
  C   C224      1.0  0.04616  0.52195  0.82731  1.0000
  H   H187      1.0  0.41272  0.33775  0.65959  1.0000
  H   H188      1.0  0.18544  0.26007  0.68228  1.0000
  S   S28       1.0  0.21170  0.43046  0.83645  1.0000
  H   H189      1.0  0.33418  0.25817  0.79434  1.0000
  C   C225      1.0  0.06040  0.43399  0.70922  1.0000
  C   C226      1.0  0.10701  0.25954  0.70842  1.0000
  C   C227      1.0  0.09926  0.13648  0.82759  1.0000
  P   P7        1.0  0.11029  0.07506  0.82565  1.0000
  H   H190      1.0  0.28601  0.41553  0.66430  1.0000
  S   S29       1.0  0.37240  0.12417  0.83183  1.0000
  P   P8        1.0  0.20775  0.29303  0.76024  1.0000
  C   C228      1.0  0.15746  0.09203  0.82203  1.0000
  Fe  Fe14      1.0  0.32922  0.06646  0.81938  1.0000
  H   H191      1.0  0.08501  0.17951  0.83064  1.0000
  H   H192      1.0  0.50484  0.45009  0.87035  1.0000
  C   C229      1.0  0.21206  0.51492  0.75057  1.0000
  C   C230      1.0  0.51323  0.42993  0.87482  1.0000
  H   H193      1.0  0.32699  0.14942  0.81350  1.0000
  H   H194      1.0  0.04373  0.33077  0.66057  1.0000
  H   H195      1.0  0.25605  0.28570  0.63670  1.0000
  Fe  Fe15      1.0  0.23044  0.09258  0.63586  1.0000
  C   C231      1.0  0.06050  0.55130  0.85277  1.0000
  H   H196      1.0  0.17999  0.54709  0.84734  1.0000
  C   C232      1.0  0.09995  0.37549  0.64241  1.0000
  S   S30       1.0  0.37771  0.37569  0.63826  1.0000
  C   C233      1.0  0.26440  0.18558  0.87508  1.0000
  C   C234      1.0  0.51485  0.27186  0.87747  1.0000
  C   C235      1.0  0.30013  0.45004  0.87619  1.0000
  C   C236      1.0  0.15662  0.23531  0.88113  1.0000
  C   C237      1.0  0.38519  0.31078  0.88366  1.0000
  C   C238      1.0  0.27873  0.38183  0.88038  1.0000
  H   H197      1.0  0.30204  0.56222  0.86570  1.0000
  Fe  Fe16      1.0  0.16503  0.38177  0.88344  1.0000
  H   H198      1.0  0.27145  0.11453  0.88497  1.0000
  C   C239      1.0  0.17187  0.34705  0.05880  1.0000
  H   H199      1.0  0.06516  0.45935  0.90145  1.0000
  H   H200      1.0  0.35880  0.49571  0.09637  1.0000
  C   C240      1.0  0.14353  0.08326  0.02825  1.0000
  C   C241      1.0  0.29888  0.20924  0.07198  1.0000
  H   H201      1.0  0.25693  0.35215  0.89069  1.0000
  H   H202      1.0  0.27506  0.36000  0.06816  1.0000
  C   C242      1.0  0.03273  0.52123  0.02227  1.0000
  H   H203      1.0  0.46586  0.18848  0.12760  1.0000
  P   P9        1.0  0.49307  0.17509  0.04360  1.0000
  C   C243      1.0  0.27607  0.17982  0.10616  1.0000
  H   H204      1.0  0.24546  0.40396  0.90488  1.0000
  H   H205      1.0  0.14585  0.54953  0.92415  1.0000
  C   C244      1.0  0.05599  0.22171  0.93097  1.0000
  C   C245      1.0  0.46100  0.56183  0.96582  1.0000
  C   C246      1.0  0.29132  0.37586  0.03733  1.0000
  H   H206      1.0  0.43863  0.11360  0.00732  1.0000
  H   H207      1.0  0.37773  0.09631  0.00110  1.0000
  C   C247      1.0  0.14560  0.29692  0.01441  1.0000
  H   H208      1.0  0.26544  0.31118  0.98225  1.0000
  H   H209      1.0  0.25066  0.11905  0.12866  1.0000
  C   C248      1.0  0.42810  0.13126  0.01970  1.0000
  C   C249      1.0  0.41572  0.45382  0.04265  1.0000
  C   C250      1.0  0.11330  0.38143  0.11523  1.0000
  C   C251      1.0  0.03027  0.56537  0.11239  1.0000
  C   C252      1.0  0.33256  0.11647  0.93468  1.0000
  H   H210      1.0  0.30081  0.44013  0.96094  1.0000
  S   S31       1.0  0.12179  0.43614  0.00217  1.0000
  C   C253      1.0  0.52092  0.19051  0.98993  1.0000
  H   H211      1.0  0.23547  0.35923  0.97079  1.0000
  H   H212      1.0  0.27134  0.46351  0.10076  1.0000
  H   H213      1.0  0.02997  0.08930  0.06869  1.0000
  C   C254      1.0  0.09105  0.36242  0.08763  1.0000
  H   H214      1.0  0.25864  0.25799  0.94085  1.0000
  H   H215      1.0  0.38020  0.26549  0.04047  1.0000
  C   C255      1.0  0.28441  0.40114  0.01777  1.0000
  H   H216      1.0  0.38888  0.44547  0.03926  1.0000
  H   H217      1.0  0.52072  0.13780  0.98167  1.0000
  C   C256      1.0  0.12216  0.15016  0.04393  1.0000
  H   H218      1.0  0.40316  0.39553  0.04811  1.0000
  H   H219      1.0  0.12231  0.27069  0.00884  1.0000
  C   C257      1.0  0.24743  0.28140  0.99696  1.0000
  C   C258      1.0  0.24156  0.40149  0.09971  1.0000
  H   H220      1.0  0.49325  0.53233  0.05709  1.0000
  H   H221      1.0  0.16315  0.15510  0.89203  1.0000
  H   H222      1.0  0.12910  0.21487  0.89912  1.0000
  C   C259      1.0  0.20097  0.14483  0.91323  1.0000
  C   C260      1.0  0.05358  0.33758  0.10348  1.0000
  C   C261      1.0  0.24343  0.25142  0.97354  1.0000
  C   C262      1.0  0.06788  0.26995  0.97890  1.0000
  C   C263      1.0  0.48352  0.47484  0.05605  1.0000
  H   H223      1.0  0.03494  0.14038  0.02142  1.0000
  C   C264      1.0  0.42405  0.42560  0.04737  1.0000
  C   C265      1.0  0.16364  0.53845  0.01840  1.0000
  S   S32       1.0  0.27545  0.08771  0.05760  1.0000
  H   H224      1.0  0.41033  0.55129  0.11879  1.0000
  H   H225      1.0  0.12702  0.08067  0.91110  1.0000
  H   H226      1.0  0.24441  0.14237  0.92870  1.0000
  C   C266      1.0  0.15733  0.14809  0.11201  1.0000
  C   C267      1.0  0.51302  0.41374  0.05476  1.0000
  H   H227      1.0  0.21315  0.33908  0.11016  1.0000
  H   H228      1.0  0.43521  0.42070  0.95762  1.0000
  C   C268      1.0  0.48721  0.13264  0.07073  1.0000
  H   H229      1.0  0.41654  0.56289  0.00630  1.0000
  C   C269      1.0  0.37287  0.49066  0.11677  1.0000
  C   C270      1.0  0.39356  0.12133  0.01616  1.0000
  C   C271      1.0  0.46900  0.08493  0.92531  1.0000
  C   C272      1.0  0.10655  0.28775  0.90781  1.0000
  C   C273      1.0  0.16156  0.55494  0.94757  1.0000
  H   H230      1.0  0.40651  0.27973  0.96303  1.0000
  H   H231      1.0  0.09935  0.44756  0.13073  1.0000
  C   C274      1.0  0.27216  0.41136  0.88844  1.0000
  H   H232      1.0  0.19266  0.42334  0.02949  1.0000
  H   H233      1.0  0.15026  0.52017  0.04874  1.0000
  C   C275      1.0  0.09732  0.29812  0.94720  1.0000
  C   C276      1.0  0.44085  0.49229  0.04575  1.0000
  H   H234      1.0  0.11760  0.16463  0.12875  1.0000
  H   H235      1.0  0.48413  0.48631  0.96469  1.0000
  C   C277      1.0  0.25729  0.51767  0.99428  1.0000
  H   H236      1.0  0.33073  0.12256  0.13023  1.0000
  C   C278      1.0  0.30115  0.10183  0.91967  1.0000
  H   H237      1.0  0.15208  0.26213  0.09424  1.0000
  C   C279      1.0  0.51459  0.31876  0.96560  1.0000
  P   P10       1.0  0.16271  0.15522  0.05544  1.0000
  H   H238      1.0  0.43194  0.11093  0.10612  1.0000
  H   H239      1.0  0.48032  0.29534  0.02886  1.0000
  P   P11       1.0  0.24578  0.40428  0.04295  1.0000
  C   C280      1.0  0.28261  0.13366  0.06414  1.0000
  C   C281      1.0  0.22789  0.27282  0.03921  1.0000
  C   C282      1.0  0.05650  0.11408  0.05395  1.0000
  C   C283      1.0  0.09026  0.44972  0.94631  1.0000
  H   H240      1.0  0.50920  0.37780  0.10780  1.0000
  H   H241      1.0  0.08720  0.49572  0.10465  1.0000
  C   C284      1.0  0.40209  0.52198  0.12907  1.0000
  C   C285      1.0  0.45820  0.43594  0.05359  1.0000
  C   C286      1.0  0.04734  0.23174  0.97079  1.0000
  H   H242      1.0  0.18184  0.30167  0.95626  1.0000
  H   H243      1.0  0.04607  0.39913  0.04514  1.0000
  C   C287      1.0  0.45460  0.10684  0.10059  1.0000
  S   S33       1.0  0.13049  0.40695  0.88810  1.0000
  C   C288      1.0  0.47249  0.48188  0.93747  1.0000
  H   H244      1.0  0.18074  0.23835  0.93340  1.0000
  C   C289      1.0  0.21928  0.21298  0.99199  1.0000
  H   H245      1.0  0.15032  0.20501  0.00302  1.0000
  C   C290      1.0  0.45146  0.07624  0.12480  1.0000
  S   S34       1.0  0.32569  0.41395  0.11538  1.0000
  C   C291      1.0  0.08491  0.43275  0.98677  1.0000
  C   C292      1.0  0.49369  0.21220  0.11543  1.0000
  C   C293      1.0  0.22458  0.36544  0.12454  1.0000
  C   C294      1.0  0.31245  0.20049  0.03383  1.0000
  C   C295      1.0  0.20784  0.12832  0.02122  1.0000
  H   H246      1.0  0.29371  0.22315  0.94775  1.0000
  H   H247      1.0  0.24250  0.10693  0.99683  1.0000
  H   H248      1.0  0.23019  0.15550  0.02664  1.0000
  H   H249      1.0  0.38294  0.16741  0.93852  1.0000
  C   C296      1.0  0.35119  0.18148  0.90833  1.0000
  C   C297      1.0  0.14409  0.53285  0.98761  1.0000
  C   C298      1.0  0.45948  0.36874  0.99103  1.0000
  C   C299      1.0  0.40237  0.29435  0.02669  1.0000
  C   C300      1.0  0.36156  0.45274  0.13139  1.0000
  C   C301      1.0  0.42891  0.43857  0.89911  1.0000
  C   C302      1.0  0.33489  0.41707  0.95801  1.0000
  C   C303      1.0  0.34147  0.39182  0.97803  1.0000
  C   C304      1.0  0.05021  0.41256  0.01401  1.0000
  C   C305      1.0  0.46068  0.10413  0.89801  1.0000
  H   H250      1.0  0.11334  0.32755  0.95364  1.0000
  H   H251      1.0  0.49221  0.31223  0.95166  1.0000
  C   C306      1.0  0.21497  0.10084  0.00442  1.0000
  H   H252      1.0  0.18940  0.22816  0.09064  1.0000
  C   C307      1.0  0.18562  0.24855  0.90050  1.0000
  P   P12       1.0  0.46544  0.39830  0.06809  1.0000
  H   H253      1.0  0.45646  0.34623  0.93105  1.0000
  H   H254      1.0  0.23033  0.29584  0.05734  1.0000
  C   C308      1.0  0.35791  0.15626  0.92834  1.0000
  C   C309      1.0  0.25709  0.43529  0.11915  1.0000
  C   C310      1.0  0.31979  0.37134  0.01781  1.0000
  H   H255      1.0  0.32487  0.35191  0.03379  1.0000
  C   C311      1.0  0.31916  0.16702  0.89404  1.0000
  C   C312      1.0  0.30451  0.16301  0.03006  1.0000
  C   C313      1.0  0.05926  0.14274  0.02698  1.0000
  C   C314      1.0  0.28447  0.48338  0.01389  1.0000
  H   H256      1.0  0.11547  0.51070  0.99453  1.0000
  H   H257      1.0  0.38251  0.34016  0.93790  1.0000
  H   H258      1.0  0.48149  0.39738  0.97651  1.0000
  C   C315      1.0  0.26783  0.14179  0.10220  1.0000
  C   C316      1.0  0.08763  0.11807  0.06318  1.0000
  C   C317      1.0  0.44907  0.16400  0.03850  1.0000
  C   C318      1.0  0.44465  0.44471  0.93371  1.0000
  H   H259      1.0  0.40731  0.40992  0.89589  1.0000
  C   C319      1.0  0.17929  0.31387  0.98533  1.0000
  H   H260      1.0  0.16851  0.35969  0.08716  1.0000
  C   C320      1.0  0.50076  0.08399  0.91259  1.0000
  C   C321      1.0  0.17206  0.12020  0.03209  1.0000
  H   H261      1.0  0.35164  0.43285  0.92705  1.0000
  C   C322      1.0  0.48504  0.51308  0.90632  1.0000
  Fe  Fe17      1.0  0.23119  0.45788  0.89280  1.0000
  H   H262      1.0  0.03181  0.33675  0.99019  1.0000
  C   C323      1.0  0.06086  0.44617  0.93279  1.0000
  S   S35       1.0  0.18661  0.40658  0.93968  1.0000
  H   H263      1.0  0.33784  0.09687  0.94990  1.0000
  H   H264      1.0  0.19657  0.13093  0.10726  1.0000
  H   H265      1.0  0.04021  0.19223  0.92458  1.0000
  C   C324      1.0  0.51380  0.09777  0.09120  1.0000
  C   C325      1.0  0.51680  0.12811  0.06691  1.0000
  C   C326      1.0  0.21946  0.44938  0.02104  1.0000
  C   C327      1.0  0.33616  0.28200  0.94706  1.0000
  H   H266      1.0  0.28234  0.07095  0.92291  1.0000
  H   H267      1.0  0.37147  0.21214  0.90322  1.0000
  H   H268      1.0  0.24372  0.28565  0.89186  1.0000
  H   H269      1.0  0.50941  0.48342  0.06255  1.0000
  C   C328      1.0  0.14155  0.25175  0.12779  1.0000
  C   C329      1.0  0.25031  0.44868  0.02382  1.0000
  C   C330      1.0  0.12459  0.17898  0.01684  1.0000
  H   H270      1.0  0.40160  0.31706  0.08582  1.0000
  C   C331      1.0  0.20624  0.36323  0.03080  1.0000
  H   H271      1.0  0.06119  0.27765  0.00977  1.0000
  H   H272      1.0  0.06154  0.53388  0.00907  1.0000
  H   H273      1.0  0.45014  0.06939  0.95538  1.0000
  C   C332      1.0  0.52604  0.39712  0.07869  1.0000
  H   H274      1.0  0.35299  0.13623  0.02836  1.0000
  C   C333      1.0  0.51382  0.21301  0.07576  1.0000
  H   H275      1.0  0.52776  0.45362  0.99929  1.0000
  H   H276      1.0  0.19919  0.48368  0.00258  1.0000
  C   C334      1.0  0.31886  0.24774  0.92918  1.0000
  H   H277      1.0  0.50790  0.26643  0.91168  1.0000
  H   H278      1.0  0.51958  0.45852  0.12085  1.0000
  H   H279      1.0  0.44326  0.53324  0.95814  1.0000
  C   C335      1.0  0.22301  0.48368  0.00597  1.0000
  S   S36       1.0  0.07367  0.21658  0.11245  1.0000
  C   C336      1.0  0.47464  0.50280  0.05258  1.0000
  C   C337      1.0  0.19953  0.20411  0.03437  1.0000
  C   C338      1.0  0.40080  0.17730  0.04886  1.0000
  C   C339      1.0  0.43557  0.18753  0.05218  1.0000
  H   H280      1.0  0.26010  0.54395  0.98161  1.0000
  H   H281      1.0  0.32415  0.28375  0.97899  1.0000
  H   H282      1.0  0.35664  0.24570  0.11958  1.0000
  C   C340      1.0  0.33420  0.24506  0.88801  1.0000
  C   C341      1.0  0.44557  0.38274  0.12462  1.0000
  H   H283      1.0  0.08458  0.09652  0.08607  1.0000
  H   H284      1.0  0.11535  0.30070  0.07280  1.0000
  H   H285      1.0  0.11718  0.46584  0.92540  1.0000
  C   C342      1.0  0.20452  0.23437  0.05804  1.0000
  C   C343      1.0  0.44540  0.33979  0.96507  1.0000
  H   H286      1.0  0.18039  0.12183  0.93812  1.0000
  H   H287      1.0  0.36310  0.38782  0.96275  1.0000
  C   C344      1.0  0.29482  0.12682  0.89862  1.0000
  C   C345      1.0  0.09327  0.17528  0.00861  1.0000
  H   H288      1.0  0.31455  0.54395  0.98956  1.0000
  S   S37       1.0  0.20184  0.48941  0.89819  1.0000
  H   H289      1.0  0.45176  0.21372  0.06516  1.0000
  C   C346      1.0  0.20958  0.34678  0.99356  1.0000
  H   H290      1.0  0.21524  0.19029  0.97289  1.0000
  C   C347      1.0  0.09851  0.06952  0.91503  1.0000
  H   H291      1.0  0.09503  0.19812  0.98905  1.0000
  H   H292      1.0  0.43342  0.51362  0.04486  1.0000
  C   C348      1.0  0.48107  0.07169  0.12000  1.0000
  C   C349      1.0  0.08560  0.24971  0.89955  1.0000
  C   C350      1.0  0.36911  0.31368  0.92406  1.0000
  Fe  Fe18      1.0  0.15589  0.43608  0.94093  1.0000
  C   C351      1.0  0.30621  0.42144  0.97755  1.0000
  H   H293      1.0  0.14229  0.40100  0.10272  1.0000
  S   S38       1.0  0.31305  0.25782  0.07523  1.0000
  H   H294      1.0  0.39000  0.19502  0.05989  1.0000
  H   H295      1.0  0.42274  0.27067  0.10367  1.0000
  C   C352      1.0  0.23740  0.15622  0.90751  1.0000
  C   C353      1.0  0.41529  0.32363  0.05257  1.0000
  C   C354      1.0  0.37979  0.14410  0.03111  1.0000
  H   H296      1.0  0.31529  0.15668  0.00053  1.0000
  H   H297      1.0  0.10279  0.36701  0.05378  1.0000
  C   C355      1.0  0.44507  0.36074  0.03519  1.0000
  C   C356      1.0  0.28797  0.51761  0.99864  1.0000
  H   H298      1.0  0.32980  0.22293  0.00721  1.0000
  C   C357      1.0  0.40369  0.24501  0.12612  1.0000
  C   C358      1.0  0.14173  0.31391  0.05068  1.0000
  H   H299      1.0  0.11559  0.07474  0.03986  1.0000
  C   C359      1.0  0.50776  0.30901  0.00929  1.0000
  C   C360      1.0  0.41730  0.30236  0.98302  1.0000
  H   H300      1.0  0.30846  0.48388  0.01745  1.0000
  S   S39       1.0  0.29099  0.48628  0.88784  1.0000
  S   S40       1.0  0.41880  0.10115  0.91140  1.0000
  S   S41       1.0  0.26616  0.30381  0.12836  1.0000
  C   C361      1.0  0.17785  0.13642  0.12815  1.0000
  C   C362      1.0  0.19130  0.16365  0.88753  1.0000
  P   P13       1.0  0.51922  0.56127  0.91326  1.0000
  H   H301      1.0  0.52583  0.24612  0.98634  1.0000
  H   H302      1.0  0.44726  0.33077  0.12536  1.0000
  H   H303      1.0  0.03677  0.32341  0.08142  1.0000
  H   H304      1.0  0.08955  0.07008  0.98281  1.0000
  H   H305      1.0  0.50651  0.06798  0.93294  1.0000
  C   C363      1.0  0.36655  0.23072  0.13466  1.0000
  C   C364      1.0  0.15180  0.24542  0.19730  1.0000
  H   H306      1.0  0.40221  0.17805  0.19036  1.0000
  C   C365      1.0  0.48793  0.37438  0.23672  1.0000
  S   S42       1.0  0.50012  0.34684  0.20317  1.0000
  C   C366      1.0  0.06564  0.27829  0.25738  1.0000
  C   C367      1.0  0.41970  0.51514  0.15606  1.0000
  C   C368      1.0  0.12321  0.16208  0.36457  1.0000
  H   H307      1.0  0.07726  0.41214  0.32119  1.0000
  H   H308      1.0  0.35584  0.54106  0.37364  1.0000
  C   C369      1.0  0.45326  0.37829  0.30292  1.0000
  H   H309      1.0  0.26137  0.10747  0.33644  1.0000
  C   C370      1.0  0.15639  0.34224  0.31307  1.0000
  C   C371      1.0  0.14919  0.19168  0.33193  1.0000
  H   H310      1.0  0.44570  0.32529  0.28196  1.0000
  C   C372      1.0  0.23624  0.07954  0.34371  1.0000
  H   H311      1.0  0.15524  0.39219  0.33357  1.0000
  C   C373      1.0  0.46118  0.35638  0.27469  1.0000
  H   H312      1.0  0.20325  0.10381  0.35961  1.0000
  C   C374      1.0  0.34197  0.19718  0.16318  1.0000
  C   C375      1.0  0.43898  0.34794  0.14362  1.0000
  S   S43       1.0  0.17333  0.48127  0.36908  1.0000
  H   H313      1.0  0.25876  0.51357  0.31121  1.0000
  C   C376      1.0  0.43650  0.40554  0.15028  1.0000
  C   C377      1.0  0.34340  0.12985  0.26103  1.0000
  S   S44       1.0  0.34334  0.33344  0.15407  1.0000
  S   S45       1.0  0.48101  0.29620  0.31268  1.0000
  C   C378      1.0  0.17861  0.32694  0.30336  1.0000
  C   C379      1.0  0.51364  0.13749  0.19101  1.0000
  S   S46       1.0  0.26884  0.25191  0.20305  1.0000
  H   H314      1.0  0.06180  0.19850  0.20196  1.0000
  S   S47       1.0  0.40606  0.47179  0.27683  1.0000
  C   C380      1.0  0.48960  0.12657  0.26700  1.0000
  H   H315      1.0  0.11647  0.38684  0.29499  1.0000
  C   C381      1.0  0.13330  0.15492  0.14030  1.0000
  C   C382      1.0  0.23040  0.38691  0.31384  1.0000
  C   C383      1.0  0.09817  0.37495  0.15886  1.0000
  H   H316      1.0  0.50971  0.46723  0.24534  1.0000
  C   C384      1.0  0.23916  0.39694  0.18686  1.0000
  S   S48       1.0  0.03789  0.12273  0.18019  1.0000
  C   C385      1.0  0.04620  0.54678  0.24037  1.0000
  H   H317      1.0  0.52543  0.42848  0.19651  1.0000
  H   H318      1.0  0.41764  0.30871  0.20141  1.0000
  C   C386      1.0  0.03805  0.33121  0.14727  1.0000
  C   C387      1.0  0.28792  0.17137  0.26037  1.0000
  C   C388      1.0  0.26454  0.53895  0.29213  1.0000
  H   H319      1.0  0.05161  0.51611  0.31857  1.0000
  Fe  Fe19      1.0  0.47426  0.21186  0.25422  1.0000
  C   C389      1.0  0.35473  0.13658  0.33160  1.0000
  H   H320      1.0  0.14154  0.19612  0.30369  1.0000
  C   C390      1.0  0.42213  0.33528  0.18675  1.0000
  C   C391      1.0  0.35440  0.17787  0.18386  1.0000
  Fe  Fe20      1.0  0.48900  0.29442  0.24295  1.0000
  H   H321      1.0  0.25892  0.40411  0.31441  1.0000
  H   H322      1.0  0.19135  0.09029  0.25325  1.0000
  Fe  Fe21      1.0  0.23901  0.28140  0.19676  1.0000
  H   H323      1.0  0.24304  0.08241  0.22841  1.0000
  S   S49       1.0  0.43912  0.23556  0.24936  1.0000
  H   H324      1.0  0.23148  0.50655  0.24959  1.0000
  C   C392      1.0  0.42029  0.39313  0.19360  1.0000
  H   H325      1.0  0.42333  0.47221  0.18928  1.0000
  S   S50       1.0  0.46409  0.20852  0.32514  1.0000
  C   C393      1.0  0.14991  0.13773  0.19985  1.0000
  Fe  Fe22      1.0  0.51322  0.26905  0.31171  1.0000
  C   C394      1.0  0.20855  0.40241  0.32329  1.0000
  P   P14       1.0  0.10850  0.31155  0.31438  1.0000
  H   H326      1.0  0.26518  0.18643  0.13562  1.0000
  C   C395      1.0  0.49605  0.43632  0.25351  1.0000
  C   C396      1.0  0.15588  0.54572  0.23495  1.0000
  H   H327      1.0  0.50230  0.49876  0.16391  1.0000
  C   C397      1.0  0.03425  0.35855  0.35959  1.0000
  H   H328      1.0  0.09580  0.14413  0.36072  1.0000
  S   S51       1.0  0.11653  0.50453  0.31349  1.0000
  C   C398      1.0  0.34637  0.26367  0.36775  1.0000
  S   S52       1.0  0.27800  0.33632  0.21756  1.0000
  H   H329      1.0  0.21141  0.33534  0.18655  1.0000
  C   C399      1.0  0.12939  0.14933  0.18408  1.0000
  Fe  Fe23      1.0  0.44096  0.53340  0.24497  1.0000
  H   H330      1.0  0.40042  0.34862  0.24532  1.0000
  C   C400      1.0  0.47071  0.41833  0.29259  1.0000
  C   C401      1.0  0.22354  0.36321  0.16785  1.0000
  C   C402      1.0  0.12334  0.31437  0.18558  1.0000
  C   C403      1.0  0.09063  0.21510  0.18816  1.0000
  C   C404      1.0  0.41630  0.22610  0.14661  1.0000
  C   C405      1.0  0.28300  0.13775  0.24374  1.0000
  S   S53       1.0  0.52541  0.27116  0.24113  1.0000
  H   H331      1.0  0.11562  0.38884  0.18037  1.0000
  H   H332      1.0  0.51554  0.14846  0.15956  1.0000
  C   C406      1.0  0.41272  0.35786  0.21166  1.0000
  C   C407      1.0  0.08775  0.29089  0.18113  1.0000
  H   H333      1.0  0.32396  0.15596  0.30887  1.0000
  H   H334      1.0  0.38289  0.39701  0.34941  1.0000
  H   H335      1.0  0.20497  0.23857  0.31013  1.0000
  H   H336      1.0  0.15776  0.33842  0.22885  1.0000
  C   C408      1.0  0.36506  0.11377  0.25179  1.0000
  Fe  Fe24      1.0  0.43275  0.23651  0.31931  1.0000
  C   C409      1.0  0.06574  0.19859  0.36165  1.0000
  H   H337      1.0  0.31483  0.19470  0.26118  1.0000
  C   C410      1.0  0.50955  0.24175  0.14016  1.0000
  C   C411      1.0  0.25578  0.43295  0.16258  1.0000
  C   C412      1.0  0.17162  0.38002  0.32367  1.0000
  C   C413      1.0  0.37964  0.44604  0.15761  1.0000
  H   H338      1.0  0.26275  0.20202  0.28728  1.0000
  C   C414      1.0  0.08053  0.33097  0.33360  1.0000
  S   S54       1.0  0.48586  0.54886  0.27732  1.0000
  C   C415      1.0  0.05893  0.27255  0.21709  1.0000
  H   H339      1.0  0.47302  0.12930  0.29453  1.0000
  S   S55       1.0  0.41255  0.55413  0.29264  1.0000
  C   C416      1.0  0.10127  0.30185  0.26213  1.0000
  C   C417      1.0  0.22360  0.14653  0.27217  1.0000
  C   C418      1.0  0.04323  0.47941  0.20900  1.0000
  H   H340      1.0  0.32070  0.29646  0.37025  1.0000
  Fe  Fe25      1.0  0.44935  0.48843  0.31207  1.0000
  H   H341      1.0  0.44160  0.43284  0.13727  1.0000
  H   H342      1.0  0.35121  0.14590  0.36246  1.0000
  H   H343      1.0  0.03588  0.27686  0.37088  1.0000
  C   C419      1.0  0.06828  0.38253  0.33179  1.0000
  H   H344      1.0  0.43306  0.36394  0.33259  1.0000
  C   C420      1.0  0.09315  0.26802  0.34841  1.0000
  C   C421      1.0  0.13013  0.32004  0.22596  1.0000
  C   C422      1.0  0.36327  0.24790  0.34152  1.0000
  C   C423      1.0  0.05722  0.49554  0.16609  1.0000
  H   H345      1.0  0.37098  0.41678  0.16878  1.0000
  H   H346      1.0  0.07770  0.42171  0.20750  1.0000
  H   H347      1.0  0.09198  0.54575  0.25244  1.0000
  P   P15       1.0  0.32232  0.13486  0.22108  1.0000
  H   H348      1.0  0.04215  0.44118  0.25693  1.0000
  H   H349      1.0  0.20084  0.15024  0.28260  1.0000
  Fe  Fe26      1.0  0.30803  0.35669  0.14978  1.0000
  H   H350      1.0  0.50580  0.09607  0.30327  1.0000
  C   C424      1.0  0.52510  0.37230  0.36726  1.0000
  H   H351      1.0  0.37011  0.10545  0.22075  1.0000
  Fe  Fe27      1.0  0.13225  0.49803  0.37329  1.0000
  C   C425      1.0  0.35935  0.38054  0.37577  1.0000
  S   S56       1.0  0.46309  0.44535  0.33104  1.0000
  S   S57       1.0  0.38179  0.22526  0.36384  1.0000
  H   H352      1.0  0.03149  0.25322  0.21391  1.0000
  H   H353      1.0  0.04306  0.26420  0.28496  1.0000
  H   H354      1.0  0.49369  0.24084  0.17070  1.0000
  H   H355      1.0  0.41325  0.41056  0.21347  1.0000
  H   H356      1.0  0.35292  0.27189  0.24665  1.0000
  C   C426      1.0  0.50787  0.10748  0.27194  1.0000
  H   H357      1.0  0.14570  0.32735  0.15778  1.0000
  C   C427      1.0  0.33301  0.28348  0.35015  1.0000
  C   C428      1.0  0.15243  0.54534  0.27883  1.0000
  H   H358      1.0  0.38916  0.11767  0.34545  1.0000
  H   H359      1.0  0.18979  0.12188  0.18399  1.0000
  Fe  Fe28      1.0  0.30960  0.30836  0.22119  1.0000
  H   H360      1.0  0.23208  0.33675  0.29724  1.0000
  Fe  Fe29      1.0  0.45508  0.56569  0.32730  1.0000
  C   C429      1.0  0.25839  0.17565  0.27484  1.0000
  C   C430      1.0  0.33581  0.28692  0.30648  1.0000
  H   H361      1.0  0.10383  0.21146  0.24745  1.0000
  S   S58       1.0  0.32122  0.31446  0.28571  1.0000
  Fe  Fe30      1.0  0.38188  0.49419  0.32755  1.0000
  C   C431      1.0  0.09092  0.36845  0.31791  1.0000
  C   C432      1.0  0.50489  0.41440  0.22582  1.0000
  H   H362      1.0  0.07583  0.22877  0.30157  1.0000
  C   C433      1.0  0.20330  0.07739  0.35717  1.0000
  C   C434      1.0  0.21533  0.34905  0.30411  1.0000
  H   H363      1.0  0.13702  0.52044  0.22256  1.0000
  C   C435      1.0  0.40893  0.47730  0.16959  1.0000
  H   H364      1.0  0.26895  0.45910  0.17711  1.0000
  C   C436      1.0  0.05093  0.45276  0.22369  1.0000
  H   H365      1.0  0.39868  0.09773  0.27450  1.0000
  C   C437      1.0  0.07122  0.44153  0.19557  1.0000
  S   S59       1.0  0.32238  0.46011  0.35976  1.0000
  C   C438      1.0  0.38117  0.10906  0.28227  1.0000
  H   H366      1.0  0.23925  0.39522  0.22013  1.0000
  H   H367      1.0  0.19416  0.27673  0.14100  1.0000
  C   C439      1.0  0.24929  0.53505  0.25744  1.0000
  H   H368      1.0  0.05422  0.17067  0.35030  1.0000
  S   S60       1.0  0.18078  0.25422  0.23065  1.0000
  C   C440      1.0  0.32613  0.37573  0.37391  1.0000
  H   H369      1.0  0.24449  0.56503  0.20674  1.0000
  H   H370      1.0  0.32422  0.38886  0.34617  1.0000
  C   C441      1.0  0.39178  0.19232  0.17499  1.0000
  H   H371      1.0  0.21997  0.43160  0.33124  1.0000
  C   C442      1.0  0.07831  0.23178  0.33390  1.0000
  C   C443      1.0  0.04564  0.30663  0.36001  1.0000
  C   C444      1.0  0.30868  0.09246  0.19450  1.0000
  C   C445      1.0  0.33900  0.14196  0.30101  1.0000
  C   C446      1.0  0.06066  0.34989  0.17493  1.0000
  C   C447      1.0  0.11442  0.22328  0.21430  1.0000
  S   S61       1.0  0.42289  0.50699  0.36505  1.0000
  C   C448      1.0  0.37594  0.12039  0.32219  1.0000
  C   C449      1.0  0.10409  0.22887  0.14480  1.0000
  C   C450      1.0  0.17426  0.13146  0.17185  1.0000
  C   C451      1.0  0.18492  0.21568  0.33566  1.0000
  C   C452      1.0  0.35126  0.26976  0.28034  1.0000
  C   C453      1.0  0.19465  0.21027  0.37230  1.0000
  C   C454      1.0  0.36546  0.25070  0.29783  1.0000
  C   C455      1.0  0.49245  0.14152  0.22635  1.0000
  C   C456      1.0  0.21831  0.11289  0.25560  1.0000
  H   H372      1.0  0.37745  0.23762  0.27760  1.0000
  C   C457      1.0  0.24785  0.10847  0.24149  1.0000
  H   H373      1.0  0.31327  0.18651  0.16918  1.0000
  H   H374      1.0  0.11035  0.15388  0.20588  1.0000
  H   H375      1.0  0.16738  0.29762  0.29573  1.0000
  H   H376      1.0  0.14663  0.13321  0.23375  1.0000
  S   S62       1.0  0.46769  0.16248  0.21788  1.0000
  H   H377      1.0  0.08261  0.28599  0.14983  1.0000
  Fe  Fe31      1.0  0.29955  0.27903  0.13565  1.0000
  C   C458      1.0  0.16539  0.25988  0.15415  1.0000
  C   C459      1.0  0.31695  0.09499  0.15005  1.0000
  C   C460      1.0  0.08198  0.56367  0.24484  1.0000
  C   C461      1.0  0.08377  0.45649  0.15255  1.0000
  S   S63       1.0  0.45341  0.55345  0.17557  1.0000
  H   H378      1.0  0.04973  0.34469  0.20887  1.0000
  H   H379      1.0  0.44514  0.23801  0.14094  1.0000
  H   H380      1.0  0.05291  0.51735  0.15463  1.0000
  H   H381      1.0  0.22240  0.22894  0.37518  1.0000
  H   H382      1.0  0.52277  0.38007  0.33660  1.0000
  C   C462      1.0  0.30431  0.48812  0.37815  1.0000
  H   H383      1.0  0.52833  0.54312  0.35631  1.0000
  C   C463      1.0  0.32661  0.52732  0.38190  1.0000
  C   C464      1.0  0.07687  0.48361  0.13784  1.0000
  H   H384      1.0  0.16643  0.96445  0.45261  1.0000
  H   H385      1.0  0.48243  0.68879  0.40330  1.0000
  C   C465      1.0  0.25309  0.00398  0.44562  1.0000
  H   H386      1.0  0.15476  0.97134  0.52889  1.0000
  C   C466      1.0  0.26884  0.82963  0.57809  1.0000
  C   C467      1.0  0.04849  0.67522  0.40334  1.0000
  S   S64       1.0  0.11595  0.78317  0.49008  1.0000
  H   H387      1.0  0.05308  0.77583  0.46517  1.0000
  H   H388      1.0  0.03884  0.87457  0.55093  1.0000
  C   C468      1.0  0.35911  0.77197  0.42783  1.0000
  H   H389      1.0  0.15650  0.66562  0.43428  1.0000
  C   C469      1.0  0.11941  0.96427  0.44281  1.0000
  C   C470      1.0  0.23243  0.00429  0.48428  1.0000
  H   H390      1.0  0.06196  0.97599  0.51990  1.0000
  C   C471      1.0  0.13186  0.86244  0.39772  1.0000
  C   C472      1.0  0.28847  0.82203  0.60108  1.0000
  C   C473      1.0  0.41946  0.78411  0.42424  1.0000
  H   H391      1.0  0.16377  0.05633  0.52649  1.0000
  S   S65       1.0  0.15836  0.88948  0.50867  1.0000
  H   H392      1.0  0.08939  0.77647  0.58169  1.0000
  H   H393      1.0  0.44714  0.85585  0.44606  1.0000
  C   C474      1.0  0.04995  0.88764  0.57737  1.0000
  C   C475      1.0  0.47380  0.86470  0.45022  1.0000
  H   H394      1.0  0.05288  0.90086  0.40388  1.0000
  S   S66       1.0  0.25887  0.64407  0.60342  1.0000
  C   C476      1.0  0.06420  0.04563  0.41718  1.0000
  C   C477      1.0  0.42920  0.75644  0.57837  1.0000
  C   C478      1.0  0.32480  0.03933  0.54202  1.0000
  P   P16       1.0  0.45335  0.78743  0.44987  1.0000
  C   C479      1.0  0.37429  0.98666  0.51133  1.0000
  C   C480      1.0  0.23267  0.03799  0.49329  1.0000
  C   C481      1.0  0.26243  0.81359  0.54049  1.0000
  H   H395      1.0  0.07232  0.96836  0.44397  1.0000
  C   C482      1.0  0.37624  0.92848  0.51290  1.0000
  H   H396      1.0  0.05909  0.70933  0.47983  1.0000
  H   H397      1.0  0.03776  0.98985  0.39571  1.0000
  H   H398      1.0  0.50261  0.93289  0.63055  1.0000
  H   H399      1.0  0.39812  0.84321  0.50432  1.0000
  C   C483      1.0  0.15885  0.61964  0.51496  1.0000
  C   C484      1.0  0.03769  0.01605  0.39995  1.0000
  C   C485      1.0  0.13879  0.72767  0.57877  1.0000
  H   H400      1.0  0.09149  0.87378  0.56519  1.0000
  C   C486      1.0  0.29401  0.78115  0.55010  1.0000
  C   C487      1.0  0.48433  0.83791  0.45314  1.0000
  H   H401      1.0  0.38912  0.96498  0.45578  1.0000
  H   H402      1.0  0.21631  0.97865  0.50734  1.0000
  S   S67       1.0  0.46203  0.97074  0.43703  1.0000
  H   H403      1.0  0.08453  0.04167  0.42560  1.0000
  H   H404      1.0  0.52875  0.95089  0.54342  1.0000
  H   H405      1.0  0.22873  0.71379  0.49775  1.0000
  C   C488      1.0  0.48951  0.71849  0.39783  1.0000
  C   C489      1.0  0.23483  0.66538  0.48972  1.0000
  S   S68       1.0  0.13445  0.90930  0.62734  1.0000
  C   C490      1.0  0.12790  0.89355  0.40753  1.0000
  C   C491      1.0  0.04412  0.61817  0.51734  1.0000
  C   C492      1.0  0.44492  0.77766  0.53782  1.0000
  C   C493      1.0  0.09587  0.90677  0.61764  1.0000
  H   H406      1.0  0.09371  0.73348  0.40016  1.0000
  Fe  Fe32      1.0  0.28989  0.70892  0.59646  1.0000
  H   H407      1.0  0.32795  0.57923  0.39830  1.0000
  C   C494      1.0  0.43712  0.05668  0.56964  1.0000
  C   C495      1.0  0.39760  0.83051  0.60807  1.0000
  H   H408      1.0  0.37392  0.79128  0.56361  1.0000
  C   C496      1.0  0.40447  0.04347  0.60039  1.0000
  C   C497      1.0  0.36489  0.98178  0.55581  1.0000
  C   C498      1.0  0.42599  0.88914  0.54071  1.0000
  C   C499      1.0  0.40128  0.71753  0.58401  1.0000
  C   C500      1.0  0.35864  0.05071  0.55001  1.0000
  C   C501      1.0  0.21465  0.68265  0.50021  1.0000
  P   P17       1.0  0.12941  0.96134  0.38665  1.0000
  H   H409      1.0  0.37818  0.01138  0.49301  1.0000
  H   H410      1.0  0.50596  0.83818  0.58221  1.0000
  C   C502      1.0  0.31948  0.91342  0.41592  1.0000
  C   C503      1.0  0.40473  0.85052  0.53465  1.0000
  C   C504      1.0  0.30052  0.79738  0.58757  1.0000
  H   H411      1.0  0.29341  0.83442  0.63002  1.0000
  C   C505      1.0  0.03535  0.90609  0.60282  1.0000
  C   C506      1.0  0.08449  0.97312  0.50488  1.0000
  C   C507      1.0  0.18600  0.77337  0.42932  1.0000
  H   H412      1.0  0.30106  0.01099  0.55495  1.0000
  H   H413      1.0  0.38199  0.90873  0.49638  1.0000
  C   C508      1.0  0.27392  0.03728  0.41594  1.0000
  H   H414      1.0  0.52413  0.60653  0.40089  1.0000
  H   H415      1.0  0.52838  0.83090  0.46014  1.0000
  C   C509      1.0  0.43254  0.76021  0.50257  1.0000
  S   S69       1.0  0.30557  0.74690  0.53599  1.0000
  H   H416      1.0  0.19397  0.80341  0.42779  1.0000
  S   S70       1.0  0.25297  0.96212  0.43413  1.0000
  C   C510      1.0  0.49812  0.90381  0.45165  1.0000
  C   C511      1.0  0.16124  0.71346  0.56372  1.0000
  H   H417      1.0  0.44699  0.71095  0.44922  1.0000
  C   C512      1.0  0.08441  0.63760  0.57879  1.0000
  C   C513      1.0  0.47857  0.76976  0.41664  1.0000
  C   C514      1.0  0.47449  0.99471  0.51422  1.0000
  H   H418      1.0  0.29450  0.94098  0.60063  1.0000
  C   C515      1.0  0.35890  0.02867  0.39493  1.0000
  H   H419      1.0  0.17627  0.76560  0.49701  1.0000
  C   C516      1.0  0.16477  0.71252  0.47105  1.0000
  H   H420      1.0  0.44575  0.98357  0.52415  1.0000
  C   C517      1.0  0.14308  0.96620  0.46700  1.0000
  P   P18       1.0  0.15133  0.68355  0.52135  1.0000
  C   C518      1.0  0.13693  0.97065  0.50998  1.0000
  H   H421      1.0  0.39415  0.88992  0.41229  1.0000
  C   C519      1.0  0.31288  0.88299  0.44382  1.0000
  H   H422      1.0  0.23284  0.61224  0.48127  1.0000
  H   H423      1.0  0.16534  0.57141  0.50427  1.0000
  H   H424      1.0  0.36532  0.67047  0.55430  1.0000
  H   H425      1.0  0.46633  0.80774  0.53425  1.0000
  C   C520      1.0  0.08012  0.88776  0.58496  1.0000
  C   C521      1.0  0.48786  0.74523  0.62504  1.0000
  H   H426      1.0  0.29907  0.92096  0.41893  1.0000
  C   C522      1.0  0.21708  0.62534  0.49078  1.0000
  H   H427      1.0  0.44818  0.92890  0.58454  1.0000
  H   H428      1.0  0.24628  0.81831  0.52334  1.0000
  C   C523      1.0  0.51576  0.77962  0.59947  1.0000
  Fe  Fe33      1.0  0.15607  0.83376  0.51675  1.0000
  C   C524      1.0  0.51344  0.89257  0.56312  1.0000
  C   C525      1.0  0.17576  0.75166  0.46870  1.0000
  S   S71       1.0  0.21619  0.86052  0.49305  1.0000
  H   H429      1.0  0.33185  0.76221  0.44598  1.0000
  C   C526      1.0  0.18534  0.75626  0.39210  1.0000
  S   S72       1.0  0.15831  0.83627  0.58489  1.0000
  C   C527      1.0  0.04656  0.61812  0.59099  1.0000
  H   H430      1.0  0.46774  0.72220  0.61126  1.0000
  C   C528      1.0  0.07793  0.74650  0.52723  1.0000
  C   C529      1.0  0.17658  0.65998  0.51323  1.0000
  C   C530      1.0  0.49683  0.01337  0.54218  1.0000
  C   C531      1.0  0.36614  0.92303  0.55714  1.0000
  C   C532      1.0  0.36114  0.95000  0.57861  1.0000
  C   C533      1.0  0.04048  0.71998  0.59913  1.0000
  H   H431      1.0  0.43660  0.91189  0.51466  1.0000
  C   C534      1.0  0.38025  0.96019  0.49004  1.0000
  H   H432      1.0  0.09497  0.64820  0.47153  1.0000
  S   S73       1.0  0.22542  0.92581  0.55664  1.0000
  H   H433      1.0  0.48543  0.87996  0.56177  1.0000
  C   C535      1.0  0.08208  0.63920  0.50492  1.0000
  C   C536      1.0  0.05373  0.71275  0.51286  1.0000
  C   C537      1.0  0.37475  0.06273  0.41326  1.0000
  C   C538      1.0  0.41872  0.86931  0.61480  1.0000
  C   C539      1.0  0.40335  0.72154  0.50893  1.0000
  H   H434      1.0  0.12506  0.75760  0.62583  1.0000
  C   C540      1.0  0.09027  0.96828  0.46196  1.0000
  C   C541      1.0  0.14327  0.74788  0.61383  1.0000
  H   H435      1.0  0.12701  0.84154  0.42300  1.0000
  H   H436      1.0  0.43691  0.05164  0.53692  1.0000
  H   H437      1.0  0.21563  0.74829  0.63326  1.0000
  S   S74       1.0  0.25156  0.85792  0.59838  1.0000
  C   C542      1.0  0.10262  0.64975  0.53565  1.0000
  C   C543      1.0  0.38799  0.70025  0.54943  1.0000
  H   H438      1.0  0.27105  0.77809  0.49667  1.0000
  C   C544      1.0  0.46938  0.73128  0.42377  1.0000
  C   C545      1.0  0.38408  0.77144  0.44771  1.0000
  H   H439      1.0  0.32995  0.01298  0.39730  1.0000
  H   H440      1.0  0.29004  0.03718  0.38616  1.0000
  H   H441      1.0  0.33409  0.85012  0.46352  1.0000
  H   H442      1.0  0.20588  0.70899  0.57451  1.0000
  H   H443      1.0  0.37571  0.76195  0.48148  1.0000
  H   H444      1.0  0.39221  0.70789  0.48267  1.0000
  C   C546      1.0  0.10785  0.97437  0.52878  1.0000
  H   H445      1.0  0.03562  0.72276  0.63244  1.0000
  Fe  Fe34      1.0  0.21867  0.91666  0.49030  1.0000
  C   C547      1.0  0.19383  0.74182  0.61837  1.0000
  H   H446      1.0  0.49000  0.92436  0.44897  1.0000
  H   H447      1.0  0.48519  0.01644  0.57344  1.0000
  P   P19       1.0  0.36204  0.01812  0.58414  1.0000
  H   H448      1.0  0.31437  0.79050  0.60659  1.0000
  C   C548      1.0  0.43267  0.89862  0.58062  1.0000
  H   H449      1.0  0.12948  0.60139  0.52435  1.0000
  H   H450      1.0  0.35449  0.94618  0.61299  1.0000
  H   H451      1.0  0.28751  0.86714  0.46752  1.0000
  C   C549      1.0  0.33922  0.87358  0.44166  1.0000
  C   C550      1.0  0.27590  0.79021  0.52586  1.0000
  H   H452      1.0  0.05400  0.81516  0.52311  1.0000
  Fe  Fe35      1.0  0.16461  0.89380  0.57545  1.0000
  H   H453      1.0  0.43838  0.77022  0.60558  1.0000
  H   H454      1.0  0.11719  0.72224  0.56386  1.0000
  H   H455      1.0  0.03292  0.61173  0.62432  1.0000
  H   H456      1.0  0.35652  0.59372  0.57862  1.0000
  H   H457      1.0  0.06120  0.66273  0.41703  1.0000
  C   C551      1.0  0.52536  0.86884  0.57429  1.0000
  C   C552      1.0  0.37291  0.89581  0.41276  1.0000
  C   C553      1.0  0.07111  0.75036  0.57040  1.0000
  H   H458      1.0  0.38908  0.70092  0.61541  1.0000
  C   C554      1.0  0.16457  0.69568  0.43336  1.0000
  H   H459      1.0  0.51683  0.78284  0.56595  1.0000
  C   C555      1.0  0.39097  0.82125  0.56815  1.0000
  H   H460      1.0  0.09946  0.64504  0.60326  1.0000
  C   C556      1.0  0.17913  0.60249  0.50347  1.0000
  Fe  Fe36      1.0  0.21867  0.86750  0.56103  1.0000
  C   C557      1.0  0.18859  0.72022  0.58426  1.0000
  H   H461      1.0  0.11922  0.89563  0.44050  1.0000
  H   H462      1.0  0.36277  0.89827  0.57475  1.0000
  H   H463      1.0  0.22784  0.69209  0.40498  1.0000
  H   H464      1.0  0.21701  0.03837  0.52336  1.0000
  C   C558      1.0  0.48962  0.99198  0.47302  1.0000
  H   H465      1.0  0.26425  0.68318  0.48021  1.0000
  H   H466      1.0  0.10344  0.97827  0.56200  1.0000
  C   C559      1.0  0.29190  0.95793  0.62499  1.0000
  C   C560      1.0  0.32088  0.99548  0.62632  1.0000
  C   C561      1.0  0.17452  0.71738  0.39416  1.0000
  C   C562      1.0  0.52681  0.00619  0.46083  1.0000
  H   H467      1.0  0.38099  0.67954  0.41485  1.0000
  C   C563      1.0  0.32094  0.06492  0.51817  1.0000
  C   C564      1.0  0.06689  0.71546  0.39422  1.0000
  H   H468      1.0  0.20755  0.62376  0.39809  1.0000
  H   H469      1.0  0.29458  0.05638  0.51341  1.0000
  H   H470      1.0  0.11597  0.06528  0.56929  1.0000
  C   C565      1.0  0.51955  0.85095  0.45771  1.0000
  C   C566      1.0  0.52408  0.58556  0.42136  1.0000
  C   C567      1.0  0.17127  0.75565  0.63313  1.0000
  H   H471      1.0  0.07440  0.81673  0.62768  1.0000
  H   H472      1.0  0.38470  0.80721  0.63372  1.0000
  H   H473      1.0  0.41507  0.64826  0.38668  1.0000
  C   C568      1.0  0.05254  0.58025  0.85312  1.0000
  H   H474      1.0  0.06832  0.78177  0.77912  1.0000
  C   C569      1.0  0.05627  0.82040  0.69321  1.0000
  S   S75       1.0  0.07571  0.68043  0.77012  1.0000
  C   C570      1.0  0.07825  0.86254  0.77781  1.0000
  H   H475      1.0  0.08416  0.89564  0.72137  1.0000
  H   H476      1.0  0.08075  0.83923  0.83637  1.0000
  C   C571      1.0  0.07122  0.97110  0.74908  1.0000
  H   H477      1.0  0.05323  0.61144  0.72896  1.0000
  C   C572      1.0  0.08212  0.62689  0.72465  1.0000
  C   C573      1.0  0.04917  0.96857  0.78777  1.0000
  H   H478      1.0  0.06176  0.94702  0.73089  1.0000
  H   H479      1.0  0.04264  0.99650  0.84080  1.0000
  H   H480      1.0  0.09355  0.94005  0.66770  1.0000
  H   H481      1.0  0.08371  0.83979  0.69604  1.0000
  C   C574      1.0  0.06067  0.99976  0.81115  1.0000
  C   C575      1.0  0.09711  0.89399  0.74545  1.0000
  C   C576      1.0  0.05112  0.80700  0.65418  1.0000
  C   C577      1.0  0.09520  0.86203  0.80980  1.0000
  C   C578      1.0  0.08072  0.92437  0.64339  1.0000
  H   H482      1.0  0.05418  0.72424  0.82406  1.0000
  C   C579      1.0  0.09461  0.03411  0.79592  1.0000
  H   H483      1.0  0.06421  0.60349  0.87203  1.0000
  H   H484      1.0  0.08752  0.58536  0.68877  1.0000
  C   C580      1.0  0.04438  0.76787  0.80517  1.0000
  C   C581      1.0  0.03650  0.73542  0.83071  1.0000
  H   H485      1.0  0.03424  0.04681  0.85991  1.0000
  H   H486      1.0  0.03871  0.93683  0.65687  1.0000
  S   S76       1.0  0.32713  0.71381  0.63698  1.0000
  C   C582      1.0  0.05011  0.92331  0.63661  1.0000
  P   P20       1.0  0.03225  0.82402  0.77911  1.0000
  C   C583      1.0  0.47551  0.68327  0.87108  1.0000
  C   C584      1.0  0.51647  0.99022  0.64110  1.0000
  H   H487      1.0  0.52231  0.04462  0.65407  1.0000
  C   C585      1.0  0.29359  0.57932  0.85160  1.0000
  H   H488      1.0  0.33623  0.04661  0.65718  1.0000
  H   H489      1.0  0.51299  0.05813  0.78035  1.0000
  Fe  Fe37      1.0  0.29282  0.64887  0.64861  1.0000
  S   S77       1.0  0.35137  0.03476  0.84556  1.0000
  C   C586      1.0  0.25106  0.04424  0.79562  1.0000
  S   S78       1.0  0.20024  0.04105  0.68593  1.0000
  H   H490      1.0  0.35352  0.85918  0.65152  1.0000
  C   C587      1.0  0.40581  0.04872  0.64285  1.0000
  H   H491      1.0  0.23590  0.91381  0.65158  1.0000
  H   H492      1.0  0.41896  0.02616  0.87129  1.0000
  Fe  Fe38      1.0  0.22196  0.64652  0.66015  1.0000
  H   H493      1.0  0.14380  0.06160  0.74487  1.0000
  H   H494      1.0  0.27704  0.01884  0.70808  1.0000
  H   H495      1.0  0.51318  0.82707  0.79122  1.0000
  H   H496      1.0  0.20034  0.66264  0.84823  1.0000
  C   C588      1.0  0.48591  0.74041  0.66834  1.0000
  C   C589      1.0  0.48550  0.85180  0.72124  1.0000
  C   C590      1.0  0.50373  0.01358  0.65721  1.0000
  H   H497      1.0  0.10496  0.75042  0.71994  1.0000
  Fe  Fe39      1.0  0.38408  0.04514  0.77948  1.0000
  C   C591      1.0  0.21385  0.01901  0.79933  1.0000
  C   C592      1.0  0.45554  0.93324  0.66421  1.0000
  H   H498      1.0  0.19685  0.99918  0.82814  1.0000
  C   C593      1.0  0.17521  0.56928  0.83810  1.0000
  H   H499      1.0  0.23791  0.57773  0.66309  1.0000
  C   C594      1.0  0.51164  0.78253  0.82892  1.0000
  S   S79       1.0  0.39610  0.00270  0.74994  1.0000
  H   H500      1.0  0.16951  0.00044  0.76920  1.0000
  H   H501      1.0  0.36223  0.77890  0.85284  1.0000
  C   C595      1.0  0.35456  0.71127  0.78806  1.0000
  C   C596      1.0  0.19841  0.01960  0.76601  1.0000
  C   C597      1.0  0.37766  0.86512  0.74585  1.0000
  P   P21       1.0  0.42487  0.88154  0.66744  1.0000
  H   H502      1.0  0.39053  0.79881  0.69681  1.0000
  H   H503      1.0  0.12256  0.00668  0.70390  1.0000
  C   C598      1.0  0.51930  0.60326  0.84527  1.0000
  H   H504      1.0  0.11440  0.80358  0.67194  1.0000
  C   C599      1.0  0.25813  0.94249  0.65364  1.0000
  S   S80       1.0  0.31314  0.60948  0.65645  1.0000
  H   H505      1.0  0.51075  0.76598  0.71960  1.0000
  H   H506      1.0  0.32279  0.98693  0.74710  1.0000
  H   H507      1.0  0.15784  0.87180  0.67955  1.0000
  C   C600      1.0  0.27057  0.62181  0.81460  1.0000
  H   H508      1.0  0.43985  0.97373  0.76724  1.0000
  S   S81       1.0  0.16142  0.60805  0.67316  1.0000
  H   H509      1.0  0.41437  0.94489  0.69503  1.0000
  H   H510      1.0  0.23194  0.76354  0.87329  1.0000
  C   C601      1.0  0.44076  0.85442  0.69069  1.0000
  H   H511      1.0  0.26841  0.98031  0.79557  1.0000
  C   C602      1.0  0.08296  0.06234  0.87989  1.0000
  C   C603      1.0  0.25271  0.96462  0.68337  1.0000
  C   C604      1.0  0.35137  0.85770  0.68535  1.0000
  C   C605      1.0  0.12376  0.78008  0.72386  1.0000
  H   H512      1.0  0.49100  0.90423  0.69956  1.0000
  C   C606      1.0  0.10147  0.61158  0.70258  1.0000
  H   H513      1.0  0.22624  0.95349  0.70444  1.0000
  C   C607      1.0  0.41408  0.95864  0.79041  1.0000
  H   H514      1.0  0.33466  0.95602  0.81982  1.0000
  C   C608      1.0  0.11708  0.03601  0.75729  1.0000
  C   C609      1.0  0.46688  0.99698  0.67626  1.0000
  C   C610      1.0  0.35496  0.94900  0.82036  1.0000
  C   C611      1.0  0.13882  0.62992  0.69845  1.0000
  H   H515      1.0  0.17573  0.77258  0.65932  1.0000
  C   C612      1.0  0.26741  0.95487  0.78442  1.0000
  S   S82       1.0  0.26936  0.04318  0.83833  1.0000
  Fe  Fe40      1.0  0.28512  0.71074  0.69086  1.0000
  H   H516      1.0  0.11513  0.79458  0.83805  1.0000
  C   C613      1.0  0.22546  0.76878  0.84451  1.0000
  C   C614      1.0  0.38142  0.86690  0.70181  1.0000
  C   C615      1.0  0.27454  0.56945  0.68950  1.0000
  C   C616      1.0  0.47417  0.87317  0.70253  1.0000
  C   C617      1.0  0.40698  0.92980  0.82131  1.0000
  C   C618      1.0  0.28132  0.00177  0.68510  1.0000
  C   C619      1.0  0.15044  0.92120  0.77397  1.0000
  C   C620      1.0  0.30724  0.59339  0.80839  1.0000
  C   C621      1.0  0.23557  0.91836  0.79719  1.0000
  H   H517      1.0  0.14809  0.94637  0.71689  1.0000
  C   C622      1.0  0.29805  0.95874  0.75692  1.0000
  C   C623      1.0  0.29670  0.92631  0.74145  1.0000
  S   S83       1.0  0.25046  0.71076  0.64993  1.0000
  C   C624      1.0  0.13330  0.92283  0.74301  1.0000
  H   H518      1.0  0.42706  0.92232  0.82146  1.0000
  H   H519      1.0  0.32047  0.92958  0.71973  1.0000
  C   C625      1.0  0.37354  0.91000  0.85110  1.0000
  C   C626      1.0  0.33308  0.71473  0.76391  1.0000
  H   H520      1.0  0.16153  0.64935  0.79855  1.0000
  H   H521      1.0  0.20836  0.79137  0.73830  1.0000
  H   H522      1.0  0.14413  0.89078  0.83250  1.0000
  H   H523      1.0  0.47129  0.79495  0.74507  1.0000
  H   H524      1.0  0.26393  0.86528  0.74067  1.0000
  C   C627      1.0  0.31777  0.84564  0.71286  1.0000
  C   C628      1.0  0.23442  0.88534  0.78293  1.0000
  Fe  Fe41      1.0  0.48543  0.87791  0.84408  1.0000
  H   H525      1.0  0.22716  0.74476  0.74430  1.0000
  H   H526      1.0  0.40051  0.87235  0.75928  1.0000
  H   H527      1.0  0.51801  0.63343  0.79158  1.0000
  C   C629      1.0  0.17284  0.85676  0.73249  1.0000
  H   H528      1.0  0.14551  0.04469  0.86644  1.0000
  C   C630      1.0  0.10003  0.66115  0.74219  1.0000
  H   H529      1.0  0.34103  0.85090  0.80698  1.0000
  C   C631      1.0  0.31510  0.01725  0.65654  1.0000
  H   H530      1.0  0.18564  0.67788  0.71434  1.0000
  C   C632      1.0  0.19132  0.60506  0.85382  1.0000
  C   C633      1.0  0.26486  0.88985  0.75396  1.0000
  C   C634      1.0  0.34412  0.85342  0.77305  1.0000
  S   S84       1.0  0.25341  0.64670  0.70595  1.0000
  H   H531      1.0  0.49090  0.59120  0.86006  1.0000
  Fe  Fe42      1.0  0.40796  0.86017  0.87912  1.0000
  C   C635      1.0  0.31422  0.84357  0.75668  1.0000
  C   C636      1.0  0.16725  0.83532  0.85112  1.0000
  C   C637      1.0  0.34756  0.91965  0.85066  1.0000
  C   C638      1.0  0.13755  0.67971  0.73816  1.0000
  H   H532      1.0  0.19187  0.88663  0.73490  1.0000
  C   C639      1.0  0.21217  0.78476  0.76852  1.0000
  P   P22       1.0  0.19391  0.83762  0.79969  1.0000
  C   C640      1.0  0.13117  0.89128  0.80782  1.0000
  C   C641      1.0  0.12915  0.81011  0.69657  1.0000
  C   C642      1.0  0.14266  0.78823  0.75580  1.0000
  C   C643      1.0  0.16771  0.82676  0.76010  1.0000
  H   H533      1.0  0.51076  0.86670  0.73137  1.0000
  H   H534      1.0  0.32546  0.69748  0.73839  1.0000
  H   H535      1.0  0.21239  0.80966  0.86866  1.0000
  C   C644      1.0  0.49240  0.95041  0.64384  1.0000
  C   C645      1.0  0.18648  0.63403  0.83904  1.0000
  H   H536      1.0  0.30580  0.62498  0.75619  1.0000
  Fe  Fe43      1.0  0.42074  0.79460  0.86852  1.0000
  H   H537      1.0  0.21204  0.91619  0.81793  1.0000
  H   H538      1.0  0.21394  0.87366  0.87597  1.0000
  H   H539      1.0  0.15156  0.70608  0.75191  1.0000
  H   H540      1.0  0.32279  0.78288  0.81283  1.0000
  S   S85       1.0  0.43369  0.84400  0.82257  1.0000
  C   C646      1.0  0.33192  0.76324  0.80540  1.0000
  C   C647      1.0  0.32227  0.74123  0.77237  1.0000
  C   C648      1.0  0.21446  0.79504  0.84160  1.0000
  H   H541      1.0  0.13801  0.76438  0.77660  1.0000
  H   H542      1.0  0.29428  0.83708  0.70034  1.0000
  H   H543      1.0  0.48403  0.77141  0.84670  1.0000
  C   C649      1.0  0.10526  0.00474  0.73390  1.0000
  H   H544      1.0  0.32630  0.58735  0.78905  1.0000
  H   H545      1.0  0.32138  0.90386  0.87296  1.0000
  C   C650      1.0  0.29567  0.61456  0.78989  1.0000
  C   C651      1.0  0.20733  0.80297  0.80369  1.0000
  C   C652      1.0  0.15695  0.66406  0.71635  1.0000
  C   C653      1.0  0.35420  0.76076  0.82829  1.0000
  H   H546      1.0  0.13292  0.58600  0.77171  1.0000
  C   C654      1.0  0.44278  0.95695  0.67994  1.0000
  C   C655      1.0  0.22940  0.75024  0.80969  1.0000
  C   C656      1.0  0.22285  0.75828  0.77172  1.0000
  H   H547      1.0  0.23885  0.73065  0.81150  1.0000
  H   H548      1.0  0.36364  0.69148  0.78111  1.0000
  C   C657      1.0  0.22011  0.04485  0.72852  1.0000
  C   C658      1.0  0.46337  0.81155  0.72907  1.0000
  C   C659      1.0  0.36601  0.73526  0.81947  1.0000
  H   H549      1.0  0.28825  0.83376  0.77812  1.0000
  C   C660      1.0  0.45256  0.68241  0.84632  1.0000
  C   C661      1.0  0.12918  0.81111  0.86125  1.0000
  H   H550      1.0  0.40518  0.64696  0.82228  1.0000
  C   C662      1.0  0.38795  0.96803  0.78975  1.0000
  H   H551      1.0  0.26188  0.63819  0.79956  1.0000
  S   S86       1.0  0.29795  0.74875  0.74140  1.0000
  H   H552      1.0  0.17858  0.94330  0.77181  1.0000
  C   C663      1.0  0.14870  0.59106  0.79506  1.0000
  H   H553      1.0  0.45697  0.01518  0.68826  1.0000
  C   C664      1.0  0.16484  0.62680  0.81025  1.0000
  C   C665      1.0  0.41807  0.81401  0.70070  1.0000
  H   H554      1.0  0.38132  0.03686  0.66784  1.0000
  H   H555      1.0  0.45633  0.70872  0.83232  1.0000
  H   H556      1.0  0.39309  0.58513  0.85573  1.0000
  C   C666      1.0  0.52793  0.81382  0.79700  1.0000
  S   S87       1.0  0.39720  0.73628  0.84590  1.0000
  H   H557      1.0  0.41217  0.76167  0.72608  1.0000
  C   C667      1.0  0.15357  0.84845  0.70095  1.0000
  H   H558      1.0  0.46420  0.71380  0.68816  1.0000
  C   C668      1.0  0.42315  0.64716  0.84066  1.0000
  C   C669      1.0  0.42980  0.79273  0.71864  1.0000
  C   C670      1.0  0.51207  0.76985  0.68605  1.0000
  C   C671      1.0  0.25638  0.60743  0.85799  1.0000
  C   C672      1.0  0.41624  0.61241  0.85970  1.0000
  C   C673      1.0  0.02984  0.57953  0.82850  1.0000
  C   C674      1.0  0.26822  0.58623  0.87636  1.0000
  H   H559      1.0  0.25983  0.96693  0.88250  1.0000
  P   P23       1.0  0.51061  0.72879  0.88331  1.0000
  C   C675      1.0  0.43873  0.61292  0.88457  1.0000
  C   C676      1.0  0.18455  0.85562  0.88251  1.0000
  S   S88       1.0  0.46109  0.89996  0.89534  1.0000
  H   H560      1.0  0.18973  0.65734  0.92698  1.0000
  C   C677      1.0  0.03348  0.66299  0.97986  1.0000
  C   C678      1.0  0.33794  0.84275  0.01020  1.0000
  C   C679      1.0  0.29372  0.87526  0.96557  1.0000
  C   C680      1.0  0.46821  0.64814  0.89029  1.0000
  C   C681      1.0  0.37539  0.88394  0.07043  1.0000
  C   C682      1.0  0.21793  0.59000  0.97014  1.0000
  H   H561      1.0  0.10401  0.01276  0.12960  1.0000
  C   C683      1.0  0.43814  0.72759  0.98568  1.0000
  C   C684      1.0  0.28419  0.95961  0.93013  1.0000
  H   H562      1.0  0.10981  0.64683  0.93201  1.0000
  H   H563      1.0  0.03723  0.90830  0.11257  1.0000
  C   C685      1.0  0.23362  0.71096  0.93878  1.0000
  H   H564      1.0  0.18993  0.71442  0.03232  1.0000
  C   C686      1.0  0.16405  0.85270  0.92281  1.0000
  H   H565      1.0  0.28911  0.82613  0.05792  1.0000
  C   C687      1.0  0.04061  0.05093  0.96230  1.0000
  H   H566      1.0  0.21708  0.78566  0.99182  1.0000
  H   H567      1.0  0.44461  0.77464  0.02084  1.0000
  S   S89       1.0  0.47347  0.82717  0.88681  1.0000
  H   H568      1.0  0.07935  0.78967  0.90921  1.0000
  H   H569      1.0  0.43287  0.58595  0.89996  1.0000
  C   C688      1.0  0.05676  0.83018  0.02320  1.0000
  C   C689      1.0  0.35041  0.01384  0.08493  1.0000
  C   C690      1.0  0.45421  0.71615  0.95197  1.0000
  H   H570      1.0  0.08657  0.59584  0.07927  1.0000
  C   C691      1.0  0.09782  0.88989  0.04805  1.0000
  H   H571      1.0  0.23378  0.99964  0.92660  1.0000
  H   H572      1.0  0.29507  0.94487  0.91068  1.0000
  C   C692      1.0  0.30669  0.06137  0.13073  1.0000
  C   C693      1.0  0.10875  0.80812  0.90168  1.0000
  C   C694      1.0  0.46653  0.98101  0.06749  1.0000
  H   H573      1.0  0.12867  0.02747  0.00850  1.0000
  H   H574      1.0  0.04187  0.97928  0.01064  1.0000
  P   P24       1.0  0.11381  0.67904  0.07847  1.0000
  C   C695      1.0  0.06454  0.82910  0.09468  1.0000
  C   C696      1.0  0.29340  0.72041  0.91772  1.0000
  H   H575      1.0  0.19212  0.04360  0.98610  1.0000
  C   C697      1.0  0.50540  0.63580  0.98651  1.0000
  C   C698      1.0  0.52079  0.61914  0.95925  1.0000
  S   S90       1.0  0.17248  0.02826  0.09488  1.0000
  C   C699      1.0  0.20942  0.85870  0.13495  1.0000
  H   H576      1.0  0.18839  0.89595  0.13421  1.0000
  H   H577      1.0  0.06826  0.94751  0.04239  1.0000
  H   H578      1.0  0.36784  0.04438  0.08683  1.0000
  H   H579      1.0  0.04436  0.81521  0.99824  1.0000
  C   C700      1.0  0.44851  0.85038  0.11578  1.0000
  C   C701      1.0  0.19879  0.58349  0.93838  1.0000
  C   C702      1.0  0.43181  0.01353  0.03723  1.0000
  C   C703      1.0  0.22430  0.83627  0.01971  1.0000
  H   H580      1.0  0.32385  0.82697  0.98666  1.0000
  C   C704      1.0  0.08927  0.86921  0.08744  1.0000
  H   H581      1.0  0.52215  0.79047  0.13327  1.0000
  C   C705      1.0  0.03981  0.63812  0.11936  1.0000
  H   H582      1.0  0.24646  0.61257  0.96410  1.0000
  H   H583      1.0  0.44738  0.82538  0.10321  1.0000
  H   H584      1.0  0.10203  0.88400  0.11223  1.0000
  C   C706      1.0  0.50041  0.93454  0.98553  1.0000
  H   H585      1.0  0.43890  0.68672  0.94524  1.0000
  C   C707      1.0  0.42845  0.96090  0.07759  1.0000
  H   H586      1.0  0.31262  0.06318  0.09646  1.0000
  C   C708      1.0  0.42558  0.86191  0.10678  1.0000
  C   C709      1.0  0.04848  0.80939  0.06251  1.0000
  H   H587      1.0  0.11043  0.82676  0.96370  1.0000
  C   C710      1.0  0.12045  0.69042  0.02206  1.0000
  H   H588      1.0  0.08958  0.78226  0.11387  1.0000
  H   H589      1.0  0.36645  0.92703  0.99671  1.0000
  C   C711      1.0  0.27599  0.98577  0.99542  1.0000
  C   C712      1.0  0.34285  0.00146  0.04616  1.0000
  Fe  Fe44      1.0  0.15566  0.96651  0.09144  1.0000
  H   H590      1.0  0.15877  0.76754  0.94507  1.0000
  H   H591      1.0  0.40643  0.84476  0.08820  1.0000
  C   C713      1.0  0.10057  0.73784  0.09805  1.0000
  H   H592      1.0  0.20116  0.84667  0.10687  1.0000
  P   P25       1.0  0.31304  0.94698  0.99240  1.0000
  S   S91       1.0  0.39301  0.80930  0.92400  1.0000
  C   C714      1.0  0.26398  0.97166  0.91423  1.0000
  C   C715      1.0  0.49878  0.58183  0.94919  1.0000
  C   C716      1.0  0.24156  0.66270  0.90304  1.0000
  H   H593      1.0  0.14754  0.75250  0.02225  1.0000
  C   C717      1.0  0.37771  0.94857  0.96935  1.0000
  C   C718      1.0  0.49510  0.90137  0.00695  1.0000
  H   H594      1.0  0.23903  0.89132  0.04111  1.0000
  H   H595      1.0  0.32220  0.73738  0.91653  1.0000
  H   H596      1.0  0.48332  0.93195  0.96496  1.0000
  C   C719      1.0  0.18420  0.69346  0.05790  1.0000
  H   H597      1.0  0.52262  0.66448  0.99448  1.0000
  C   C720      1.0  0.06429  0.59876  0.09513  1.0000
  C   C721      1.0  0.13840  0.72899  0.00321  1.0000
  C   C722      1.0  0.49209  0.79188  0.97095  1.0000
  H   H598      1.0  0.03268  0.56984  0.99702  1.0000
  H   H599      1.0  0.08590  0.73026  0.07324  1.0000
  C   C723      1.0  0.32019  0.96195  0.04346  1.0000
  H   H600      1.0  0.24474  0.01259  0.99845  1.0000
  C   C724      1.0  0.41126  0.97721  0.06177  1.0000
  H   H601      1.0  0.22829  0.66168  0.10443  1.0000
  H   H602      1.0  0.25740  0.57398  0.90932  1.0000
  C   C725      1.0  0.46966  0.03374  0.02826  1.0000
  H   H603      1.0  0.48468  0.64794  0.91060  1.0000
  C   C726      1.0  0.11766  0.66975  0.95196  1.0000
  C   C727      1.0  0.14930  0.67138  0.08503  1.0000
  H   H604      1.0  0.21609  0.72082  0.95348  1.0000
  C   C728      1.0  0.04618  0.05027  0.88669  1.0000
  C   C729      1.0  0.14346  0.64631  0.11968  1.0000
  C   C730      1.0  0.10231  0.76726  0.12126  1.0000
  C   C731      1.0  0.06947  0.63556  0.09886  1.0000
  C   C732      1.0  0.35775  0.96390  0.95944  1.0000
  C   C733      1.0  0.44566  0.57863  0.99301  1.0000
  C   C734      1.0  0.21887  0.67531  0.92311  1.0000
  S   S92       1.0  0.36254  0.87081  0.88653  1.0000
  H   H605      1.0  0.52672  0.90503  0.89672  1.0000
  C   C735      1.0  0.24806  0.87588  0.02018  1.0000
  C   C736      1.0  0.39447  0.88461  0.03002  1.0000
  C   C737      1.0  0.20052  0.56724  0.00979  1.0000
  C   C738      1.0  0.26975  0.83597  0.96439  1.0000
  H   H606      1.0  0.42710  0.94819  0.95096  1.0000
  C   C739      1.0  0.48695  0.01743  0.04340  1.0000
  P   P26       1.0  0.40105  0.91291  0.10679  1.0000
  C   C740      1.0  0.27095  0.73351  0.93609  1.0000
  H   H607      1.0  0.32149  0.86291  0.11054  1.0000
  C   C741      1.0  0.33527  0.98684  0.12125  1.0000
  C   C742      1.0  0.40735  0.00431  0.89861  1.0000
  C   C743      1.0  0.27897  0.68545  0.90070  1.0000
  H   H608      1.0  0.38197  0.96143  0.06784  1.0000
  C   C744      1.0  0.37583  0.86441  0.00002  1.0000
  C   C745      1.0  0.31857  0.84228  0.05020  1.0000
  C   C746      1.0  0.42663  0.98809  0.90792  1.0000
  S   S93       1.0  0.12942  0.93992  0.03791  1.0000
  C   C747      1.0  0.42863  0.89592  0.12026  1.0000
  C   C748      1.0  0.18660  0.06515  0.99821  1.0000
  H   H609      1.0  0.05710  0.01212  0.09930  1.0000
  H   H610      1.0  0.35491  0.02261  0.01807  1.0000
  H   H611      1.0  0.08783  0.88637  0.98553  1.0000
  C   C749      1.0  0.37341  0.99291  0.92483  1.0000
  H   H612      1.0  0.05548  0.68116  0.95269  1.0000
  C   C750      1.0  0.20619  0.66400  0.09861  1.0000
  S   S94       1.0  0.21042  0.97749  0.09328  1.0000
  H   H613      1.0  0.27842  0.82106  0.94212  1.0000
  H   H614      1.0  0.41083  0.70728  0.00418  1.0000
  C   C751      1.0  0.48930  0.74279  0.92714  1.0000
  H   H615      1.0  0.42391  0.90116  0.02154  1.0000
  S   S95       1.0  0.46043  0.85449  0.00142  1.0000
  H   H616      1.0  0.48558  0.06201  0.00960  1.0000
  H   H617      1.0  0.28863  0.90420  0.07882  1.0000
  H   H618      1.0  0.32030  0.88984  0.94415  1.0000
  H   H619      1.0  0.50669  0.82129  0.97816  1.0000
  Fe  Fe45      1.0  0.22560  0.03835  0.10081  1.0000
  C   C752      1.0  0.24954  0.99044  0.93897  1.0000
  H   H620      1.0  0.21563  0.57185  0.03381  1.0000
  C   C753      1.0  0.21243  0.68948  0.06445  1.0000
  C   C754      1.0  0.31264  0.94748  0.11881  1.0000
  H   H621      1.0  0.14058  0.71497  0.89951  1.0000
  H   H622      1.0  0.51632  0.03267  0.03628  1.0000
  C   C755      1.0  0.46786  0.61551  0.00352  1.0000
  C   C756      1.0  0.23524  0.81628  0.99196  1.0000
  C   C757      1.0  0.11697  0.71805  0.10750  1.0000
  C   C758      1.0  0.52706  0.97154  0.99210  1.0000
  H   H623      1.0  0.45598  0.62834  0.02491  1.0000
  H   H624      1.0  0.04257  0.66579  0.12254  1.0000
  H   H625      1.0  0.23944  0.70689  0.04380  1.0000
  C   C759      1.0  0.28333  0.89543  0.99383  1.0000
  C   C760      1.0  0.17177  0.64255  0.12627  1.0000
  Fe  Fe46      1.0  0.44776  0.84825  0.93717  1.0000
  C   C761      1.0  0.50794  0.78085  0.93669  1.0000
  C   C762      1.0  0.13506  0.70815  0.93361  1.0000
  C   C763      1.0  0.29043  0.96666  0.97082  1.0000
  C   C764      1.0  0.07736  0.06372  0.95598  1.0000
  C   C765      1.0  0.11031  0.66088  0.99597  1.0000
  H   H626      1.0  0.27959  0.99091  0.02722  1.0000
  C   C766      1.0  0.08130  0.87039  0.01603  1.0000
  C   C767      1.0  0.25579  0.99779  0.97937  1.0000
  H   H627      1.0  0.39094  0.86637  0.96853  1.0000
  C   C768      1.0  0.15082  0.05616  0.01065  1.0000
  H   H628      1.0  0.09709  0.63103  0.00946  1.0000
  H   H629      1.0  0.05897  0.81355  0.12487  1.0000
  C   C769      1.0  0.45711  0.76544  0.99517  1.0000
  C   C770      1.0  0.51682  0.90554  0.03477  1.0000
  C   C771      1.0  0.41200  0.96055  0.94362  1.0000
  H   H630      1.0  0.19748  0.82112  0.04105  1.0000
  C   C772      1.0  0.33718  0.86310  0.08022  1.0000
  C   C773      1.0  0.04281  0.94396  0.05930  1.0000
  H   H631      1.0  0.28266  0.76101  0.94845  1.0000
  C   C774      1.0  0.12619  0.82896  0.93240  1.0000
  H   H632      1.0  0.17751  0.86897  0.94668  1.0000
  C   C775      1.0  0.14531  0.73774  0.95926  1.0000
  C   C776      1.0  0.30540  0.93493  0.07998  1.0000
  H   H633      1.0  0.48092  0.96866  0.07696  1.0000
  P   P27       1.0  0.22164  0.61454  0.88817  1.0000
  H   H634      1.0  0.45302  0.99716  0.88762  1.0000
  H   H635      1.0  0.35971  0.00700  0.91821  1.0000
  C   C777      1.0  0.05953  0.02027  0.13053  1.0000
  H   H636      1.0  0.51348  0.88019  0.05075  1.0000
  H   H637      1.0  0.04116  0.71091  0.01414  1.0000
  H   H638      1.0  0.29711  0.67614  0.88641  1.0000
  H   H639      1.0  0.41852  0.02583  0.02462  1.0000
  H   H640      1.0  0.30071  0.92651  0.14698  1.0000
  H   H641      1.0  0.45723  0.81047  0.36266  1.0000
  C   C778      1.0  0.05097  0.73247  0.37717  1.0000
  H   H642      1.0  0.19318  0.77307  0.36165  1.0000
  H   H643      1.0  0.40557  0.94295  0.36251  1.0000
  C   C779      1.0  0.35598  0.67057  0.36225  1.0000
  S   S96       1.0  0.29343  0.80250  0.31308  1.0000
  C   C780      1.0  0.29107  0.66718  0.32937  1.0000
  C   C781      1.0  0.41626  0.95330  0.24413  1.0000
  S   S97       1.0  0.13319  0.94949  0.16195  1.0000
  C   C782      1.0  0.34605  0.73307  0.19396  1.0000
  S   S98       1.0  0.21818  0.78019  0.25888  1.0000
  H   H644      1.0  0.40935  0.62212  0.31840  1.0000
  H   H645      1.0  0.34844  0.85490  0.35081  1.0000
  C   C783      1.0  0.37180  0.63798  0.30784  1.0000
  C   C784      1.0  0.32763  0.70576  0.23031  1.0000
  H   H646      1.0  0.02889  0.69631  0.26421  1.0000
  H   H647      1.0  0.46185  0.99507  0.19469  1.0000
  H   H648      1.0  0.30377  0.90295  0.25738  1.0000
  C   C785      1.0  0.37159  0.91081  0.15533  1.0000
  C   C786      1.0  0.34559  0.69179  0.24867  1.0000
  H   H649      1.0  0.29915  0.69511  0.24365  1.0000
  C   C787      1.0  0.52833  0.78217  0.35755  1.0000
  H   H650      1.0  0.41603  0.89071  0.32851  1.0000
  C   C788      1.0  0.17709  0.57787  0.29473  1.0000
  C   C789      1.0  0.23401  0.64657  0.38003  1.0000
  C   C790      1.0  0.04958  0.89306  0.24442  1.0000
  C   C791      1.0  0.14869  0.88533  0.32284  1.0000
  Fe  Fe47      1.0  0.18088  0.71614  0.26948  1.0000
  C   C792      1.0  0.05539  0.71171  0.27116  1.0000
  C   C793      1.0  0.29049  0.92383  0.33545  1.0000
  H   H651      1.0  0.39664  0.76816  0.14776  1.0000
  H   H652      1.0  0.33876  0.02226  0.31540  1.0000
  H   H653      1.0  0.23140  0.94053  0.30119  1.0000
  H   H654      1.0  0.37104  0.91881  0.29713  1.0000
  H   H655      1.0  0.12246  0.80280  0.27916  1.0000
  H   H656      1.0  0.51574  0.82470  0.37620  1.0000
  Fe  Fe48      1.0  0.49187  0.94116  0.28986  1.0000
  H   H657      1.0  0.07601  0.95454  0.22926  1.0000
  C   C794      1.0  0.10520  0.60388  0.23961  1.0000
  H   H658      1.0  0.28270  0.00812  0.29599  1.0000
  C   C795      1.0  0.37876  0.66831  0.38478  1.0000
  H   H659      1.0  0.35036  0.78733  0.36982  1.0000
  H   H660      1.0  0.26257  0.04772  0.33175  1.0000
  H   H661      1.0  0.41496  0.75114  0.30728  1.0000
  C   C796      1.0  0.39463  0.63591  0.33040  1.0000
  C   C797      1.0  0.23679  0.04575  0.34091  1.0000
  H   H662      1.0  0.06566  0.76362  0.36924  1.0000
  C   C798      1.0  0.07032  0.69124  0.28303  1.0000
  H   H663      1.0  0.15040  0.93744  0.30678  1.0000
  C   C799      1.0  0.51907  0.74400  0.36488  1.0000
  S   S99       1.0  0.12447  0.03417  0.20884  1.0000
  P   P28       1.0  0.36045  0.97253  0.34778  1.0000
  H   H664      1.0  0.41623  0.04174  0.28714  1.0000
  C   C800      1.0  0.24543  0.68507  0.38408  1.0000
  Fe  Fe49      1.0  0.23337  0.77383  0.19066  1.0000
  C   C801      1.0  0.07050  0.97594  0.31383  1.0000
  C   C802      1.0  0.20440  0.00958  0.35251  1.0000
  H   H665      1.0  0.41641  0.92864  0.23215  1.0000
  H   H666      1.0  0.40849  0.83419  0.21647  1.0000
  S   S100      1.0  0.47832  0.61836  0.36074  1.0000
  H   H667      1.0  0.44863  0.72102  0.32174  1.0000
  C   C803      1.0  0.35217  0.65523  0.32363  1.0000
  H   H668      1.0  0.18637  0.57896  0.17320  1.0000
  Fe  Fe50      1.0  0.18941  0.96540  0.16408  1.0000
  H   H669      1.0  0.14977  0.76476  0.19002  1.0000
  H   H670      1.0  0.14911  0.76655  0.29934  1.0000
  C   C804      1.0  0.14518  0.91674  0.33252  1.0000
  C   C805      1.0  0.12328  0.75126  0.29089  1.0000
  C   C806      1.0  0.28679  0.57566  0.30290  1.0000
  C   C807      1.0  0.03599  0.03023  0.15375  1.0000
  C   C808      1.0  0.46064  0.74406  0.29578  1.0000
  H   H671      1.0  0.29241  0.89973  0.34539  1.0000
  C   C809      1.0  0.39545  0.83883  0.24582  1.0000
  H   H672      1.0  0.28838  0.74437  0.36492  1.0000
  H   H673      1.0  0.17477  0.57769  0.32852  1.0000
  C   C810      1.0  0.45391  0.91722  0.14421  1.0000
  C   C811      1.0  0.41738  0.03474  0.37378  1.0000
  S   S101      1.0  0.50584  0.93388  0.35007  1.0000
  Fe  Fe51      1.0  0.26080  0.76879  0.26760  1.0000
  C   C812      1.0  0.38232  0.70582  0.23015  1.0000
  C   C813      1.0  0.35736  0.81903  0.25839  1.0000
  C   C814      1.0  0.31930  0.96219  0.33354  1.0000
  C   C815      1.0  0.30256  0.70587  0.33410  1.0000
  H   H674      1.0  0.14758  0.71344  0.14911  1.0000
  C   C816      1.0  0.37247  0.94411  0.16794  1.0000
  H   H675      1.0  0.44422  0.80663  0.25016  1.0000
  C   C817      1.0  0.20437  0.61121  0.26691  1.0000
  H   H676      1.0  0.13256  0.61674  0.24411  1.0000
  S   S102      1.0  0.12315  0.68529  0.30647  1.0000
  H   H677      1.0  0.28372  0.62958  0.22528  1.0000
  C   C818      1.0  0.04927  0.59844  0.36728  1.0000
  C   C819      1.0  0.21065  0.90029  0.18849  1.0000
  C   C820      1.0  0.36179  0.85071  0.32153  1.0000
  C   C821      1.0  0.29427  0.60889  0.27905  1.0000
  C   C822      1.0  0.20190  0.88633  0.15065  1.0000
  H   H678      1.0  0.06970  0.05145  0.24201  1.0000
  H   H679      1.0  0.14523  0.83414  0.34785  1.0000
  H   H680      1.0  0.14556  0.04015  0.38048  1.0000
  Fe  Fe52      1.0  0.49509  0.97988  0.37057  1.0000
  C   C823      1.0  0.39975  0.87088  0.30885  1.0000
  H   H681      1.0  0.24963  0.85119  0.20995  1.0000
  C   C824      1.0  0.32300  0.90543  0.22922  1.0000
  C   C825      1.0  0.27909  0.60473  0.24399  1.0000
  C   C826      1.0  0.47735  0.90614  0.15222  1.0000
  H   H682      1.0  0.12060  0.79921  0.17305  1.0000
  C   C827      1.0  0.25884  0.91611  0.32406  1.0000
  C   C828      1.0  0.13470  0.72800  0.14088  1.0000
  H   H683      1.0  0.15644  0.88194  0.28996  1.0000
  C   C829      1.0  0.42971  0.79870  0.38112  1.0000
  C   C830      1.0  0.25680  0.63752  0.35307  1.0000
  S   S103      1.0  0.05391  0.77704  0.25982  1.0000
  C   C831      1.0  0.10431  0.71100  0.29270  1.0000
  C   C832      1.0  0.11975  0.77676  0.15459  1.0000
  C   C833      1.0  0.10804  0.77171  0.27993  1.0000
  H   H684      1.0  0.07536  0.99681  0.28855  1.0000
  C   C834      1.0  0.39789  0.65073  0.36901  1.0000
  H   H685      1.0  0.24754  0.60741  0.35090  1.0000
  H   H686      1.0  0.39687  0.69555  0.24334  1.0000
  C   C835      1.0  0.02936  0.91636  0.36159  1.0000
  H   H687      1.0  0.23458  0.89816  0.23912  1.0000
  S   S104      1.0  0.20048  0.93375  0.20980  1.0000
  H   H688      1.0  0.46009  0.05098  0.22132  1.0000
  S   S105      1.0  0.27904  0.76689  0.19825  1.0000
  C   C836      1.0  0.14225  0.85831  0.35541  1.0000
  C   C837      1.0  0.31659  0.99252  0.31813  1.0000
  C   C838      1.0  0.09069  0.03303  0.18743  1.0000
  H   H689      1.0  0.09741  0.60013  0.33398  1.0000
  C   C839      1.0  0.03565  0.94348  0.32921  1.0000
  C   C840      1.0  0.34739  0.87525  0.18109  1.0000
  C   C841      1.0  0.07403  0.75188  0.27033  1.0000
  H   H690      1.0  0.27819  0.99906  0.14066  1.0000
  H   H691      1.0  0.50510  0.82952  0.20560  1.0000
  H   H692      1.0  0.39190  0.97220  0.14968  1.0000
  C   C842      1.0  0.52197  0.65231  0.33071  1.0000
  H   H693      1.0  0.49778  0.92365  0.16929  1.0000
  H   H694      1.0  0.50937  0.63574  0.27055  1.0000
  C   C843      1.0  0.51098  0.78642  0.23645  1.0000
  C   C844      1.0  0.38031  0.01519  0.37376  1.0000
  H   H695      1.0  0.23648  0.88650  0.32633  1.0000
  H   H696      1.0  0.06977  0.89513  0.26014  1.0000
  H   H697      1.0  0.30365  0.84490  0.23681  1.0000
  S   S106      1.0  0.46398  0.88981  0.25539  1.0000
  P   P29       1.0  0.32122  0.65594  0.29529  1.0000
  C   C845      1.0  0.40481  0.79970  0.36163  1.0000
  C   C846      1.0  0.06689  0.04266  0.21094  1.0000
  C   C847      1.0  0.17082  0.04138  0.36863  1.0000
  C   C848      1.0  0.44150  0.99055  0.22276  1.0000
  H   H698      1.0  0.05262  0.61921  0.34322  1.0000
  C   C849      1.0  0.23558  0.86016  0.19388  1.0000
  H   H699      1.0  0.33181  0.74307  0.17950  1.0000
  C   C850      1.0  0.49277  0.80501  0.22994  1.0000
  C   C851      1.0  0.27973  0.71463  0.36141  1.0000
  C   C852      1.0  0.41659  0.86508  0.27091  1.0000
  H   H700      1.0  0.34107  0.79903  0.23895  1.0000
  H   H701      1.0  0.11104  0.65875  0.22520  1.0000
  C   C853      1.0  0.28494  0.98464  0.30675  1.0000
  C   C854      1.0  0.29034  0.05620  0.21906  1.0000
  H   H702      1.0  0.29763  0.57807  0.33036  1.0000
  H   H703      1.0  0.34890  0.96695  0.21494  1.0000
  H   H704      1.0  0.50545  0.66600  0.17687  1.0000
  C   C855      1.0  0.18371  0.57878  0.20707  1.0000
  C   C856      1.0  0.03937  0.04095  0.19425  1.0000
  H   H705      1.0  0.41317  0.81171  0.32860  1.0000
  C   C857      1.0  0.32288  0.87255  0.21755  1.0000
  S   S107      1.0  0.47629  0.98356  0.31217  1.0000
  C   C858      1.0  0.22617  0.84547  0.15659  1.0000
  H   H706      1.0  0.43421  0.02400  0.35904  1.0000
  C   C859      1.0  0.39147  0.97956  0.29818  1.0000
  C   C860      1.0  0.34064  0.82538  0.29617  1.0000
  C   C861      1.0  0.28780  0.02528  0.15553  1.0000
  S   S108      1.0  0.22201  0.70486  0.28385  1.0000
  Fe  Fe53      1.0  0.23682  0.70330  0.21404  1.0000
  H   H707      1.0  0.42914  0.74437  0.18000  1.0000
  H   H708      1.0  0.36891  0.62542  0.27847  1.0000
  H   H709      1.0  0.22346  0.63616  0.27939  1.0000
  C   C862      1.0  0.34813  0.94133  0.20486  1.0000
  C   C863      1.0  0.28040  0.02283  0.19969  1.0000
  C   C864      1.0  0.20751  0.61186  0.22310  1.0000
  H   H710      1.0  0.05556  0.66022  0.28472  1.0000
  S   S109      1.0  0.20912  0.02744  0.17167  1.0000
  C   C865      1.0  0.44075  0.02212  0.23798  1.0000
  C   C866      1.0  0.49506  0.75656  0.27029  1.0000
  C   C867      1.0  0.07501  0.58784  0.36200  1.0000
  H   H711      1.0  0.34087  0.68355  0.37561  1.0000
  C   C868      1.0  0.40078  0.73352  0.19404  1.0000
  C   C869      1.0  0.09930  0.98127  0.33028  1.0000
  H   H712      1.0  0.32907  0.72931  0.31670  1.0000
  H   H713      1.0  0.17368  0.70403  0.36532  1.0000
  C   C870      1.0  0.44196  0.76144  0.28797  1.0000
  H   H714      1.0  0.45645  0.94322  0.15537  1.0000
  H   H715      1.0  0.50025  0.71930  0.20429  1.0000
  Fe  Fe54      1.0  0.15432  0.01238  0.16523  1.0000
  C   C871      1.0  0.52680  0.72526  0.18842  1.0000
  S   S110      1.0  0.24043  0.65422  0.18840  1.0000
  C   C872      1.0  0.22752  0.88721  0.21004  1.0000
  H   H716      1.0  0.50921  0.74276  0.27679  1.0000
  C   C873      1.0  0.38261  0.74708  0.17594  1.0000
  C   C874      1.0  0.45823  0.79229  0.25546  1.0000
  C   C875      1.0  0.17107  0.00717  0.36613  1.0000
  C   C876      1.0  0.05798  0.61116  0.22329  1.0000
  H   H717      1.0  0.04888  0.62976  0.21473  1.0000
  C   C877      1.0  0.13597  0.75714  0.16433  1.0000
  C   C878      1.0  0.09313  0.62757  0.22899  1.0000
  C   C879      1.0  0.41585  0.01673  0.27554  1.0000
  H   H718      1.0  0.26612  0.99494  0.21894  1.0000
  C   C880      1.0  0.05318  0.92657  0.22687  1.0000
  H   H719      1.0  0.28332  0.05386  0.25326  1.0000
  C   C881      1.0  0.13505  0.92129  0.37499  1.0000
  C   C882      1.0  0.25668  0.56795  0.23330  1.0000
  C   C883      1.0  0.09306  0.95482  0.36370  1.0000
  C   C884      1.0  0.39092  0.94778  0.28133  1.0000
  C   C885      1.0  0.25600  0.94652  0.30986  1.0000
  H   H720      1.0  0.34061  0.99648  0.15144  1.0000
  H   H721      1.0  0.12625  0.00584  0.31631  1.0000
  S   S111      1.0  0.19274  0.71011  0.20076  1.0000
  H   H722      1.0  0.34704  0.84946  0.17252  1.0000
  H   H723      1.0  0.20574  0.98384  0.35242  1.0000
  C   C886      1.0  0.08665  0.02142  0.14742  1.0000
  H   H724      1.0  0.42649  0.05677  0.14814  1.0000
  H   H725      1.0  0.03148  0.95031  0.19127  1.0000
  C   C887      1.0  0.05797  0.92202  0.37880  1.0000
  H   H726      1.0  0.49288  0.86425  0.14447  1.0000
  C   C888      1.0  0.03457  0.57098  0.22892  1.0000
  H   H727      1.0  0.16748  0.62405  0.15372  1.0000
  H   H728      1.0  0.47902  0.04845  0.13901  1.0000
  C   C889      1.0  0.47447  0.87255  0.13839  1.0000
  H   H729      1.0  0.11739  0.63043  0.14227  1.0000
  S   S112      1.0  0.23506  0.81050  0.13706  1.0000
  C   C890      1.0  0.50806  0.79496  0.38291  1.0000
  C   C891      1.0  0.35207  0.93370  0.38441  1.0000
  C   C892      1.0  0.37932  0.92584  0.38433  1.0000
  C   C893      1.0  0.36948  0.78611  0.38487  1.0000
  S   S113      1.0  0.73791  0.45965  0.40762  1.0000
  H   H730      1.0  0.74604  0.43756  0.51102  1.0000
  H   H731      1.0  0.87125  0.36815  0.43299  1.0000
  C   C894      1.0  0.92110  0.55728  0.39024  1.0000
  S   S114      1.0  0.80792  0.29366  0.59111  1.0000
  C   C895      1.0  0.98664  0.44819  0.52441  1.0000
  C   C896      1.0  0.61706  0.48499  0.56700  1.0000
  Fe  Fe55      1.0  0.59698  0.11820  0.51671  1.0000
  H   H732      1.0  0.92054  0.53334  0.61104  1.0000
  C   C897      1.0  0.80703  0.15249  0.52581  1.0000
  S   S115      1.0  0.64444  0.21183  0.43807  1.0000
  P   P30       1.0  0.76668  0.12331  0.56783  1.0000
  H   H733      1.0  0.63843  0.08347  0.51446  1.0000
  H   H734      1.0  0.69029  0.27874  0.61474  1.0000
  C   C898      1.0  0.75264  0.40635  0.55815  1.0000
  C   C899      1.0  0.63664  0.35732  0.49317  1.0000
  H   H735      1.0  0.85583  0.47278  0.50761  1.0000
  S   S116      1.0  0.93210  0.46325  0.54576  1.0000
  S   S117      1.0  0.84731  0.37317  0.52625  1.0000
  C   C900      1.0  0.91605  0.54279  0.52468  1.0000
  C   C901      1.0  0.97676  0.47446  0.53836  1.0000
  H   H736      1.0  0.68888  0.51900  0.56899  1.0000
  H   H737      1.0  0.96801  0.09982  0.39161  1.0000
  S   S118      1.0  0.64071  0.25575  0.54510  1.0000
  H   H738      1.0  0.93936  0.52739  0.46994  1.0000
  H   H739      1.0  0.76638  0.10713  0.44112  1.0000
  C   C902      1.0  0.62726  0.52125  0.54746  1.0000
  S   S119      1.0  0.95717  0.21081  0.42101  1.0000
  C   C903      1.0  0.75598  0.21294  0.42945  1.0000
  S   S120      1.0  0.76176  0.35773  0.60503  1.0000
  C   C904      1.0  0.87083  0.21885  0.61692  1.0000
  H   H740      1.0  0.71447  0.28959  0.49018  1.0000
  C   C905      1.0  0.91816  0.42050  0.44173  1.0000
  C   C906      1.0  0.86135  0.21402  0.49347  1.0000
  H   H741      1.0  0.63646  0.54602  0.56471  1.0000
  C   C907      1.0  0.76523  0.43514  0.52418  1.0000
  C   C908      1.0  0.02485  0.35696  0.52256  1.0000
  C   C909      1.0  0.80245  0.45913  0.50588  1.0000
  H   H742      1.0  0.58882  0.31470  0.47371  1.0000
  C   C910      1.0  0.57365  0.21877  0.40491  1.0000
  C   C911      1.0  0.66347  0.36332  0.51383  1.0000
  C   C912      1.0  0.63754  0.29394  0.52593  1.0000
  H   H743      1.0  0.72807  0.22768  0.48092  1.0000
  H   H744      1.0  0.99148  0.27664  0.59451  1.0000
  Fe  Fe56      1.0  0.98981  0.20093  0.55611  1.0000
  Fe  Fe57      1.0  0.77121  0.49645  0.45117  1.0000
  C   C913      1.0  0.62515  0.52571  0.50557  1.0000
  Fe  Fe58      1.0  0.85373  0.32483  0.62329  1.0000
  C   C914      1.0  0.57497  0.25257  0.39286  1.0000
  H   H745      1.0  0.98468  0.41185  0.40591  1.0000
  C   C915      1.0  0.78913  0.21720  0.40966  1.0000
  H   H746      1.0  0.75661  0.18733  0.58228  1.0000
  H   H747      1.0  0.78352  0.27108  0.50624  1.0000
  C   C916      1.0  0.82715  0.45484  0.52218  1.0000
  H   H748      1.0  0.71698  0.19994  0.55713  1.0000
  C   C917      1.0  0.65850  0.50015  0.63451  1.0000
  H   H749      1.0  0.74870  0.55075  0.58585  1.0000
  Fe  Fe59      1.0  0.73169  0.53931  0.46634  1.0000
  C   C918      1.0  0.76288  0.10551  0.40912  1.0000
  H   H750      1.0  0.92433  0.29948  0.51504  1.0000
  H   H751      1.0  0.87237  0.46559  0.61023  1.0000
  H   H752      1.0  0.70558  0.35234  0.44384  1.0000
  H   H753      1.0  0.56649  0.51862  0.39051  1.0000
  H   H754      1.0  0.59620  0.34829  0.63124  1.0000
  S   S121      1.0  0.65082  0.16979  0.51925  1.0000
  C   C919      1.0  0.01135  0.42284  0.62376  1.0000
  H   H755      1.0  0.65094  0.28976  0.43837  1.0000
  C   C920      1.0  0.00283  0.51053  0.54687  1.0000
  H   H756      1.0  0.58950  0.25859  0.50287  1.0000
  C   C921      1.0  0.56055  0.38053  0.41836  1.0000
  C   C922      1.0  0.60996  0.28769  0.50630  1.0000
  H   H757      1.0  0.68398  0.39237  0.51710  1.0000
  C   C923      1.0  0.76712  0.08062  0.58167  1.0000
  C   C924      1.0  0.02836  0.12810  0.53861  1.0000
  C   C925      1.0  0.81655  0.13466  0.49319  1.0000
  S   S122      1.0  0.78225  0.55172  0.41991  1.0000
  S   S123      1.0  0.63599  0.39677  0.47243  1.0000
  C   C926      1.0  0.72807  0.08503  0.40202  1.0000
  H   H758      1.0  0.79995  0.10376  0.49293  1.0000
  H   H759      1.0  0.00156  0.10877  0.55911  1.0000
  Fe  Fe60      1.0  0.69020  0.45343  0.45512  1.0000
  H   H760      1.0  0.99606  0.30101  0.39370  1.0000
  C   C927      1.0  0.96097  0.14730  0.40400  1.0000
  C   C928      1.0  0.69691  0.11529  0.49701  1.0000
  C   C929      1.0  0.93936  0.55108  0.48477  1.0000
  C   C930      1.0  0.68786  0.25088  0.61649  1.0000
  H   H761      1.0  0.89465  0.21319  0.43584  1.0000
  C   C931      1.0  0.96069  0.32195  0.55659  1.0000
  H   H762      1.0  0.58170  0.21619  0.43341  1.0000
  H   H763      1.0  0.63054  0.41834  0.60641  1.0000
  H   H764      1.0  0.53137  0.34313  0.47763  1.0000
  C   C932      1.0  0.68114  0.17880  0.61976  1.0000
  S   S124      1.0  0.85894  0.29513  0.47218  1.0000
  H   H765      1.0  0.84583  0.24417  0.40917  1.0000
  H   H766      1.0  0.87693  0.21413  0.58434  1.0000
  C   C933      1.0  0.60391  0.45840  0.50149  1.0000
  S   S125      1.0  0.61348  0.11949  0.44661  1.0000
  C   C934      1.0  0.98843  0.38245  0.62959  1.0000
  C   C935      1.0  0.70657  0.24258  0.58248  1.0000
  C   C936      1.0  0.66291  0.09207  0.52498  1.0000
  H   H767      1.0  0.58620  0.39481  0.42741  1.0000
  S   S126      1.0  0.85089  0.37796  0.62617  1.0000
  H   H768      1.0  0.72389  0.38745  0.57176  1.0000
  C   C937      1.0  0.77859  0.32095  0.39690  1.0000
  H   H769      1.0  0.93865  0.31012  0.58474  1.0000
  C   C938      1.0  0.80544  0.35634  0.40647  1.0000
  C   C939      1.0  0.75364  0.23097  0.46550  1.0000
  H   H770      1.0  0.89991  0.51345  0.54088  1.0000
  P   P31       1.0  0.00600  0.35231  0.61181  1.0000
  C   C940      1.0  0.84817  0.15646  0.46099  1.0000
  C   C941      1.0  0.55853  0.20317  0.61026  1.0000
  C   C942      1.0  0.79885  0.36772  0.44640  1.0000
  C   C943      1.0  0.70311  0.20656  0.58406  1.0000
  C   C944      1.0  0.76091  0.17893  0.61115  1.0000
  C   C945      1.0  0.88347  0.41708  0.39104  1.0000
  C   C946      1.0  0.61367  0.49435  0.48255  1.0000
  H   H771      1.0  0.99819  0.54748  0.46493  1.0000
  Fe  Fe61      1.0  0.85161  0.32145  0.53080  1.0000
  C   C947      1.0  0.60554  0.45367  0.54348  1.0000
  C   C948      1.0  0.72860  0.12587  0.51007  1.0000
  H   H772      1.0  0.89476  0.56543  0.57418  1.0000
  C   C949      1.0  0.95242  0.31554  0.51703  1.0000
  C   C950      1.0  0.77725  0.40054  0.57266  1.0000
  H   H773      1.0  0.69863  0.12479  0.46499  1.0000
  H   H774      1.0  0.82450  0.11340  0.58022  1.0000
  C   C951      1.0  0.76628  0.34345  0.47660  1.0000
  H   H775      1.0  0.87909  0.24462  0.49373  1.0000
  H   H776      1.0  0.99501  0.53061  0.55762  1.0000
  C   C952      1.0  0.72435  0.53640  0.61141  1.0000
  H   H777      1.0  0.59756  0.42549  0.55715  1.0000
  Fe  Fe62      1.0  0.80820  0.34876  0.58991  1.0000
  C   C953      1.0  0.60973  0.31946  0.48962  1.0000
  C   C954      1.0  0.87032  0.19621  0.46091  1.0000
  C   C955      1.0  0.94185  0.46011  0.42876  1.0000
  H   H778      1.0  0.56982  0.36056  0.55361  1.0000
  C   C956      1.0  0.66377  0.33166  0.53027  1.0000
  C   C957      1.0  0.69029  0.51841  0.60184  1.0000
  H   H779      1.0  0.53972  0.19651  0.55331  1.0000
  S   S127      1.0  0.83754  0.07773  0.39030  1.0000
  S   S128      1.0  0.69521  0.50582  0.42365  1.0000
  Fe  Fe63      1.0  0.59100  0.15678  0.44242  1.0000
  C   C958      1.0  0.88930  0.39895  0.42265  1.0000
  H   H780      1.0  0.59530  0.43415  0.48353  1.0000
  Fe  Fe64      1.0  0.94188  0.11788  0.53566  1.0000
  C   C959      1.0  0.70379  0.34079  0.41387  1.0000
  H   H781      1.0  0.76133  0.35207  0.50752  1.0000
  Fe  Fe65      1.0  0.90748  0.15997  0.58137  1.0000
  Fe  Fe66      1.0  0.62674  0.20494  0.50880  1.0000
  C   C960      1.0  0.60474  0.40538  0.62971  1.0000
  H   H782      1.0  0.57687  0.19351  0.59833  1.0000
  C   C961      1.0  0.99690  0.44602  0.63158  1.0000
  C   C962      1.0  0.80008  0.08491  0.58479  1.0000
  H   H783      1.0  0.92202  0.40647  0.46686  1.0000
  S   S129      1.0  0.57144  0.15275  0.51238  1.0000
  P   P32       1.0  0.61436  0.47845  0.62313  1.0000
  C   C963      1.0  0.53198  0.29940  0.56170  1.0000
  C   C964      1.0  0.98027  0.32997  0.48018  1.0000
  H   H784      1.0  0.87010  0.26968  0.60078  1.0000
  C   C965      1.0  0.78500  0.25547  0.47989  1.0000
  H   H785      1.0  0.58428  0.27610  0.41183  1.0000
  C   C966      1.0  0.69216  0.09051  0.57964  1.0000
  Fe  Fe67      1.0  0.66547  0.17404  0.44837  1.0000
  C   C967      1.0  0.01649  0.35043  0.48292  1.0000
  H   H786      1.0  0.75463  0.14463  0.48808  1.0000
  H   H787      1.0  0.61279  0.49795  0.44988  1.0000
  H   H788      1.0  0.97356  0.32484  0.44972  1.0000
  C   C968      1.0  0.81845  0.26100  0.45882  1.0000
  S   S130      1.0  0.98960  0.17262  0.49708  1.0000
  S   S131      1.0  0.55478  0.14421  0.39862  1.0000
  C   C969      1.0  0.52936  0.35159  0.44718  1.0000
  C   C970      1.0  0.72633  0.11218  0.55101  1.0000
  C   C971      1.0  0.99695  0.34329  0.55979  1.0000
  S   S132      1.0  0.81829  0.49416  0.46240  1.0000
  H   H789      1.0  0.82350  0.20724  0.55029  1.0000
  H   H790      1.0  0.83520  0.45065  0.39037  1.0000
  H   H791      1.0  0.81863  0.39533  0.45435  1.0000
  H   H792      1.0  0.96398  0.47654  0.44396  1.0000
  H   H793      1.0  0.68493  0.33618  0.54540  1.0000
  C   C972      1.0  0.82964  0.19248  0.52561  1.0000
  S   S133      1.0  0.89766  0.34962  0.56306  1.0000
  C   C973      1.0  0.86717  0.25037  0.62627  1.0000
  H   H794      1.0  0.94814  0.13632  0.43715  1.0000
  C   C974      1.0  0.73988  0.30812  0.46693  1.0000
  C   C975      1.0  0.81455  0.42615  0.55620  1.0000
  H   H795      1.0  0.67899  0.15116  0.62022  1.0000
  H   H796      1.0  0.55327  0.29322  0.55711  1.0000
  C   C976      1.0  0.67298  0.30574  0.41095  1.0000
  C   C977      1.0  0.82020  0.24081  0.42466  1.0000
  H   H797      1.0  0.96659  0.42032  0.51757  1.0000
  C   C978      1.0  0.02267  0.45796  0.51971  1.0000
  C   C979      1.0  0.54138  0.33777  0.56038  1.0000
  H   H798      1.0  0.72335  0.26399  0.55473  1.0000
  S   S134      1.0  0.90004  0.12950  0.52347  1.0000
  H   H799      1.0  0.90832  0.55245  0.42364  1.0000
  C   C980      1.0  0.74601  0.29698  0.42702  1.0000
  C   C981      1.0  0.01870  0.55850  0.43547  1.0000
  H   H800      1.0  0.72547  0.26961  0.41950  1.0000
  H   H801      1.0  0.63263  0.55356  0.49082  1.0000
  C   C982      1.0  0.76760  0.14902  0.61304  1.0000
  C   C983      1.0  0.97786  0.27373  0.62723  1.0000
  H   H802      1.0  0.83373  0.42308  0.56882  1.0000
  Fe  Fe68      1.0  0.94811  0.18579  0.48750  1.0000
  H   H803      1.0  0.85594  0.14248  0.43649  1.0000
  S   S135      1.0  0.72305  0.48654  0.50109  1.0000
  Fe  Fe69      1.0  0.89028  0.39981  0.56258  1.0000
  S   S136      1.0  0.71859  0.18708  0.40688  1.0000
  S   S137      1.0  0.94637  0.14486  0.59581  1.0000
  S   S138      1.0  0.95109  0.21747  0.54422  1.0000
  H   H804      1.0  0.01488  0.47689  0.62375  1.0000
  C   C984      1.0  0.93714  0.47813  0.39604  1.0000
  H   H805      1.0  0.02792  0.08322  0.50483  1.0000
  C   C985      1.0  0.66052  0.08027  0.56656  1.0000
  C   C986      1.0  0.53702  0.20441  0.58491  1.0000
  H   H806      1.0  0.54151  0.46280  0.62937  1.0000
  H   H807      1.0  0.02619  0.25279  0.49548  1.0000
  H   H808      1.0  0.69013  0.08106  0.61178  1.0000
  C   C987      1.0  0.55698  0.56285  0.45053  1.0000
  H   H809      1.0  0.70458  0.07156  0.42866  1.0000
  C   C988      1.0  0.96683  0.18230  0.38726  1.0000
  C   C989      1.0  0.61131  0.53807  0.66203  1.0000
  H   H810      1.0  0.71251  0.21534  0.70820  1.0000
  C   C990      1.0  0.87683  0.52705  0.84041  1.0000
  H   H811      1.0  0.98323  0.44885  0.85651  1.0000
  Fe  Fe70      1.0  0.66585  0.55991  0.79012  1.0000
  C   C991      1.0  0.77790  0.37012  0.83505  1.0000
  C   C992      1.0  0.73513  0.44253  0.71959  1.0000
  C   C993      1.0  0.66293  0.18730  0.65451  1.0000
  C   C994      1.0  0.96178  0.15390  0.69852  1.0000
  H   H812      1.0  0.01574  0.18983  0.77603  1.0000
  C   C995      1.0  0.53855  0.38027  0.88155  1.0000
  C   C996      1.0  0.72505  0.10608  0.81521  1.0000
  C   C997      1.0  0.57432  0.14380  0.68947  1.0000
  C   C998      1.0  0.77231  0.39247  0.80835  1.0000
  H   H813      1.0  0.86071  0.53467  0.73180  1.0000
  H   H814      1.0  0.60701  0.43105  0.83826  1.0000
  C   C999      1.0  0.66497  0.38581  0.84012  1.0000
  H   H815      1.0  0.79783  0.52777  0.73099  1.0000
  C   C1000     1.0  0.77432  0.15952  0.68500  1.0000
  C   C1001     1.0  0.89472  0.06668  0.68110  1.0000
  C   C1002     1.0  0.64646  0.20648  0.81227  1.0000
  H   H816      1.0  0.54635  0.42742  0.68918  1.0000
  C   C1003     1.0  0.96754  0.43962  0.79650  1.0000
  C   C1004     1.0  0.94122  0.41381  0.77571  1.0000
  C   C1005     1.0  0.88042  0.56211  0.84954  1.0000
  C   C1006     1.0  0.76104  0.19903  0.64586  1.0000
  C   C1007     1.0  0.85944  0.25647  0.66854  1.0000
  C   C1008     1.0  0.59031  0.13147  0.71369  1.0000
  H   H817      1.0  0.85195  0.17787  0.71725  1.0000
  C   C1009     1.0  0.77728  0.50529  0.85320  1.0000
  C   C1010     1.0  0.62665  0.08251  0.68520  1.0000
  H   H818      1.0  0.92388  0.08026  0.67057  1.0000
  C   C1011     1.0  0.59025  0.42790  0.64436  1.0000
  H   H819      1.0  0.88145  0.34499  0.85943  1.0000
  H   H820      1.0  0.57518  0.21619  0.66905  1.0000
  C   C1012     1.0  0.95957  0.42946  0.64674  1.0000
  C   C1013     1.0  0.60615  0.37965  0.85871  1.0000
  C   C1014     1.0  0.97978  0.30590  0.64455  1.0000
  S   S139      1.0  0.61826  0.50056  0.79107  1.0000
  C   C1015     1.0  0.89260  0.53866  0.67058  1.0000
  H   H821      1.0  0.98876  0.36889  0.86452  1.0000
  H   H822      1.0  0.86022  0.12599  0.74763  1.0000
  C   C1016     1.0  0.88032  0.26222  0.87904  1.0000
  C   C1017     1.0  0.95249  0.12428  0.72976  1.0000
  C   C1018     1.0  0.62266  0.41793  0.83962  1.0000
  C   C1019     1.0  0.58545  0.36572  0.64385  1.0000
  C   C1020     1.0  0.96317  0.43001  0.83974  1.0000
  C   C1021     1.0  0.95990  0.49693  0.73375  1.0000
  H   H823      1.0  0.93039  0.13631  0.82822  1.0000
  H   H824      1.0  0.75632  0.22239  0.64392  1.0000
  H   H825      1.0  0.85302  0.27022  0.83589  1.0000
  H   H826      1.0  0.55084  0.56284  0.77627  1.0000
  H   H827      1.0  0.97348  0.26353  0.78059  1.0000
  H   H828      1.0  0.60403  0.56231  0.78843  1.0000
  H   H829      1.0  0.60392  0.16209  0.78760  1.0000
  C   C1022     1.0  0.53403  0.22839  0.66548  1.0000
  H   H830      1.0  0.77105  0.29324  0.87984  1.0000
  H   H831      1.0  0.71044  0.44181  0.81022  1.0000
  C   C1023     1.0  0.75534  0.42702  0.72849  1.0000
  H   H832      1.0  0.84608  0.16926  0.78894  1.0000
  C   C1024     1.0  0.58146  0.50208  0.78153  1.0000
  C   C1025     1.0  0.59200  0.50276  0.64626  1.0000
  C   C1026     1.0  0.83795  0.46208  0.66962  1.0000
  C   C1027     1.0  0.70582  0.42129  0.70103  1.0000
  C   C1028     1.0  0.96294  0.30171  0.68753  1.0000
  C   C1029     1.0  0.94271  0.26518  0.71182  1.0000
  H   H833      1.0  0.74192  0.47106  0.72643  1.0000
  C   C1030     1.0  0.53645  0.12581  0.69861  1.0000
  H   H834      1.0  0.75319  0.55081  0.66126  1.0000
  C   C1031     1.0  0.55201  0.46866  0.77289  1.0000
  H   H835      1.0  0.53506  0.13785  0.81566  1.0000
  P   P33       1.0  0.63912  0.15463  0.70355  1.0000
  C   C1032     1.0  0.87873  0.27553  0.84036  1.0000
  H   H836      1.0  0.93462  0.50664  0.85121  1.0000
  H   H837      1.0  0.92395  0.50682  0.70801  1.0000
  H   H838      1.0  0.76302  0.08860  0.74473  1.0000
  C   C1033     1.0  0.01155  0.21130  0.79096  1.0000
  C   C1034     1.0  0.83413  0.48134  0.70420  1.0000
  H   H839      1.0  0.60484  0.07947  0.67208  1.0000
  H   H840      1.0  0.75504  0.34660  0.85789  1.0000
  C   C1035     1.0  0.87241  0.13735  0.77405  1.0000
  C   C1036     1.0  0.97953  0.11835  0.73686  1.0000
  C   C1037     1.0  0.90433  0.16834  0.84161  1.0000
  H   H841      1.0  0.02620  0.25927  0.87695  1.0000
  C   C1038     1.0  0.68132  0.42426  0.82272  1.0000
  H   H842      1.0  0.53661  0.31762  0.68403  1.0000
  H   H843      1.0  0.56777  0.53459  0.87857  1.0000
  C   C1039     1.0  0.58108  0.53614  0.78276  1.0000
  H   H844      1.0  0.69413  0.14536  0.73083  1.0000
  H   H845      1.0  0.81733  0.43232  0.66859  1.0000
  P   P34       1.0  0.98793  0.29734  0.85966  1.0000
  C   C1040     1.0  0.88024  0.17723  0.83092  1.0000
  H   H846      1.0  0.96789  0.32031  0.78911  1.0000
  H   H847      1.0  0.67470  0.36860  0.67510  1.0000
  H   H848      1.0  0.59098  0.16718  0.66359  1.0000
  H   H849      1.0  0.98541  0.21718  0.74488  1.0000
  C   C1041     1.0  0.71675  0.36908  0.69902  1.0000
  C   C1042     1.0  0.55202  0.34847  0.67358  1.0000
  H   H850      1.0  0.00509  0.41544  0.73773  1.0000
  C   C1043     1.0  0.70102  0.11894  0.81639  1.0000
  C   C1044     1.0  0.91023  0.37983  0.79835  1.0000
  H   H851      1.0  0.78135  0.12431  0.80750  1.0000
  H   H852      1.0  0.92411  0.20482  0.71248  1.0000
  C   C1045     1.0  0.01517  0.14115  0.71208  1.0000
  C   C1046     1.0  0.66011  0.44014  0.82190  1.0000
  H   H853      1.0  0.80443  0.19408  0.79523  1.0000
  H   H854      1.0  0.58474  0.22792  0.87646  1.0000
  H   H855      1.0  0.95583  0.21265  0.63762  1.0000
  C   C1047     1.0  0.86200  0.51967  0.70470  1.0000
  H   H856      1.0  0.56339  0.34407  0.79386  1.0000
  C   C1048     1.0  0.62748  0.36342  0.85761  1.0000
  H   H857      1.0  0.67196  0.09903  0.82434  1.0000
  H   H858      1.0  0.63675  0.48509  0.70255  1.0000
  H   H859      1.0  0.88957  0.36043  0.78242  1.0000
  C   C1049     1.0  0.01495  0.37576  0.84554  1.0000
  C   C1050     1.0  0.86459  0.16208  0.79698  1.0000
  C   C1051     1.0  0.93660  0.38934  0.65435  1.0000
  C   C1052     1.0  0.71432  0.15842  0.80912  1.0000
  H   H860      1.0  0.85118  0.46669  0.86349  1.0000
  C   C1053     1.0  0.66110  0.49913  0.67685  1.0000
  C   C1054     1.0  0.68319  0.08948  0.71749  1.0000
  C   C1055     1.0  0.85398  0.49390  0.87028  1.0000
  C   C1056     1.0  0.94509  0.28913  0.85272  1.0000
  C   C1057     1.0  0.99420  0.50139  0.72642  1.0000
  H   H861      1.0  0.90923  0.30739  0.77826  1.0000
  P   P35       1.0  0.79535  0.45553  0.74894  1.0000
  H   H862      1.0  0.92797  0.26113  0.74415  1.0000
  C   C1058     1.0  0.90562  0.37108  0.84168  1.0000
  C   C1059     1.0  0.99428  0.22648  0.77367  1.0000
  H   H863      1.0  0.71047  0.34119  0.68960  1.0000
  C   C1060     1.0  0.56784  0.10017  0.74622  1.0000
  H   H864      1.0  0.69057  0.43358  0.69397  1.0000
  H   H865      1.0  0.76196  0.37806  0.72236  1.0000
  C   C1061     1.0  0.54606  0.31517  0.81125  1.0000
  H   H866      1.0  0.81761  0.36231  0.85469  1.0000
  H   H867      1.0  0.68147  0.37363  0.84137  1.0000
  C   C1062     1.0  0.77571  0.17302  0.79996  1.0000
  H   H868      1.0  0.65227  0.23061  0.67875  1.0000
  H   H869      1.0  0.94104  0.15823  0.69189  1.0000
  H   H870      1.0  0.69541  0.16794  0.81185  1.0000
  C   C1063     1.0  0.78549  0.54479  0.79131  1.0000
  H   H871      1.0  0.91613  0.17968  0.86829  1.0000
  P   P36       1.0  0.90559  0.09451  0.75841  1.0000
  H   H872      1.0  0.87323  0.19529  0.84940  1.0000
  C   C1064     1.0  0.02339  0.52104  0.80231  1.0000
  C   C1065     1.0  0.69386  0.21221  0.73739  1.0000
  C   C1066     1.0  0.01513  0.54998  0.80340  1.0000
  H   H873      1.0  0.99774  0.55032  0.78457  1.0000
  C   C1067     1.0  0.02416  0.17059  0.68103  1.0000
  H   H874      1.0  0.73076  0.22365  0.87415  1.0000
  C   C1068     1.0  0.55756  0.21585  0.65014  1.0000
  H   H875      1.0  0.76185  0.21611  0.79648  1.0000
  H   H876      1.0  0.78063  0.11733  0.65225  1.0000
  C   C1069     1.0  0.95046  0.51038  0.70195  1.0000
  C   C1070     1.0  0.75165  0.18546  0.80076  1.0000
  C   C1071     1.0  0.99569  0.07322  0.82546  1.0000
  C   C1072     1.0  0.91040  0.29650  0.80807  1.0000
  H   H877      1.0  0.73625  0.25806  0.76207  1.0000
  C   C1073     1.0  0.97539  0.52899  0.66297  1.0000
  C   C1074     1.0  0.63289  0.18220  0.78181  1.0000
  C   C1075     1.0  0.94042  0.23319  0.69399  1.0000
  C   C1076     1.0  0.70739  0.23667  0.76777  1.0000
  C   C1077     1.0  0.65649  0.18439  0.74437  1.0000
  H   H878      1.0  0.84924  0.23577  0.73389  1.0000
  C   C1078     1.0  0.76816  0.18964  0.68263  1.0000
  H   H879      1.0  0.74500  0.38606  0.81093  1.0000
  C   C1079     1.0  0.69673  0.38464  0.69058  1.0000
  C   C1080     1.0  0.91214  0.14357  0.81902  1.0000
  S   S140      1.0  0.90466  0.52659  0.79399  1.0000
  C   C1081     1.0  0.55743  0.41065  0.67559  1.0000
  C   C1082     1.0  0.99788  0.26427  0.83222  1.0000
  C   C1083     1.0  0.89581  0.12749  0.78551  1.0000
  H   H880      1.0  0.70521  0.09234  0.72981  1.0000
  H   H881      1.0  0.97329  0.09617  0.76105  1.0000
  C   C1084     1.0  0.72682  0.53617  0.65371  1.0000
  C   C1085     1.0  0.64840  0.11635  0.70209  1.0000
  C   C1086     1.0  0.99751  0.17720  0.67468  1.0000
  C   C1087     1.0  0.69516  0.51731  0.68640  1.0000
  C   C1088     1.0  0.01906  0.52016  0.68726  1.0000
  C   C1089     1.0  0.93224  0.39587  0.86220  1.0000
  C   C1090     1.0  0.68371  0.23358  0.80542  1.0000
  C   C1091     1.0  0.02308  0.22343  0.82801  1.0000
  H   H882      1.0  0.57956  0.09027  0.76559  1.0000
  H   H883      1.0  0.90757  0.37637  0.66582  1.0000
  H   H884      1.0  0.62793  0.20402  0.84131  1.0000
  S   S141      1.0  0.85409  0.29507  0.68128  1.0000
  C   C1092     1.0  0.81313  0.37897  0.83338  1.0000
  P   P37       1.0  0.00661  0.48436  0.76747  1.0000
  H   H885      1.0  0.69691  0.51731  0.71924  1.0000
  C   C1093     1.0  0.80204  0.42396  0.77994  1.0000
  H   H886      1.0  0.78247  0.45687  0.84227  1.0000
  H   H887      1.0  0.69414  0.25219  0.82926  1.0000
  C   C1094     1.0  0.98744  0.25281  0.79419  1.0000
  C   C1095     1.0  0.94352  0.30363  0.81433  1.0000
  C   C1096     1.0  0.67685  0.11965  0.71797  1.0000
  S   S142      1.0  0.00410  0.11945  0.83367  1.0000
  H   H888      1.0  0.67264  0.46986  0.80799  1.0000
  H   H889      1.0  0.94054  0.48350  0.76417  1.0000
  C   C1097     1.0  0.78312  0.48097  0.82720  1.0000
  C   C1098     1.0  0.76251  0.13352  0.80711  1.0000
  H   H890      1.0  0.00421  0.19966  0.65050  1.0000
  H   H891      1.0  0.87009  0.41762  0.80464  1.0000
  S   S143      1.0  0.56501  0.10331  0.85696  1.0000
  C   C1099     1.0  0.01686  0.25028  0.84827  1.0000
  C   C1100     1.0  0.78990  0.48817  0.78281  1.0000
  C   C1101     1.0  0.85500  0.23093  0.70134  1.0000
  C   C1102     1.0  0.86495  0.19253  0.64995  1.0000
  C   C1103     1.0  0.74602  0.39018  0.71764  1.0000
  C   C1104     1.0  0.00970  0.53400  0.65580  1.0000
  H   H892      1.0  0.96474  0.32629  0.70196  1.0000
  C   C1105     1.0  0.84275  0.41004  0.80499  1.0000
  C   C1106     1.0  0.79172  0.52082  0.76508  1.0000
  H   H893      1.0  0.76976  0.20630  0.70885  1.0000
  H   H894      1.0  0.78041  0.15268  0.71323  1.0000
  C   C1107     1.0  0.83727  0.43244  0.77834  1.0000
  H   H895      1.0  0.55238  0.44238  0.77141  1.0000
  H   H896      1.0  0.94439  0.42004  0.74210  1.0000
  C   C1108     1.0  0.85687  0.19852  0.69203  1.0000
  H   H897      1.0  0.86070  0.45707  0.75754  1.0000
  C   C1109     1.0  0.77797  0.53688  0.83532  1.0000
  C   C1110     1.0  0.87841  0.07024  0.72135  1.0000
  C   C1111     1.0  0.55971  0.54546  0.67101  1.0000
  C   C1112     1.0  0.66606  0.22338  0.65236  1.0000
  C   C1113     1.0  0.55096  0.53648  0.77602  1.0000
  C   C1114     1.0  0.94002  0.51517  0.88171  1.0000
  C   C1115     1.0  0.95082  0.36590  0.64520  1.0000
  S   S144      1.0  0.86555  0.15078  0.63993  1.0000
  C   C1116     1.0  0.77434  0.13943  0.65026  1.0000
  C   C1117     1.0  0.01331  0.06819  0.78749  1.0000
  C   C1118     1.0  0.89631  0.51907  0.63673  1.0000
  H   H898      1.0  0.96834  0.53973  0.63837  1.0000
  H   H899      1.0  0.93220  0.33490  0.64923  1.0000
  C   C1119     1.0  0.95809  0.23751  0.65177  1.0000
  H   H900      1.0  0.53254  0.23745  0.69671  1.0000
  H   H901      1.0  0.61546  0.33391  0.87168  1.0000
  C   C1120     1.0  0.54031  0.51039  0.65544  1.0000
  C   C1121     1.0  0.55652  0.48936  0.64257  1.0000
  C   C1122     1.0  0.02245  0.34661  0.83784  1.0000
  C   C1123     1.0  0.53841  0.37108  0.68989  1.0000
  H   H902      1.0  0.63900  0.54979  0.66431  1.0000
  P   P38       1.0  0.55806  0.35116  0.88392  1.0000
  H   H903      1.0  0.94834  0.44760  0.65152  1.0000
  C   C1124     1.0  0.53004  0.08181  0.75468  1.0000
  C   C1125     1.0  0.53795  0.30965  0.85581  1.0000
  H   H904      1.0  0.77287  0.55531  0.85558  1.0000
  C   C1126     1.0  0.59514  0.55923  0.67442  1.0000
  H   H905      1.0  0.54682  0.56131  0.68182  1.0000
  H   H906      1.0  0.53766  0.28790  0.75447  1.0000
  C   C1127     1.0  0.53173  0.28344  0.78878  1.0000
  C   C1128     1.0  0.91329  0.26896  0.88528  1.0000
  C   C1129     1.0  0.86909  0.48085  0.63627  1.0000
  C   C1130     1.0  0.74374  0.07396  0.89317  1.0000
  S   S145      1.0  0.62154  0.08017  0.91760  1.0000
  C   C1131     1.0  0.77842  0.21625  0.93969  1.0000
  H   H907      1.0  0.70708  0.17263  0.05788  1.0000
  Fe  Fe71      1.0  0.66680  0.13736  0.92777  1.0000
  C   C1132     1.0  0.93606  0.21666  0.09323  1.0000
  H   H908      1.0  0.69307  0.54916  0.90767  1.0000
  H   H909      1.0  0.92841  0.47223  0.06303  1.0000
  C   C1133     1.0  0.55693  0.56550  0.97486  1.0000
  C   C1134     1.0  0.66526  0.16672  0.11081  1.0000
  H   H910      1.0  0.91568  0.20933  0.07564  1.0000
  C   C1135     1.0  0.95199  0.19482  0.09267  1.0000
  H   H911      1.0  0.67092  0.33798  0.02333  1.0000
  C   C1136     1.0  0.66166  0.32079  0.96222  1.0000
  S   S146      1.0  0.67753  0.36738  0.93887  1.0000
  C   C1137     1.0  0.55639  0.24093  0.92933  1.0000
  H   H912      1.0  0.74882  0.31463  0.95574  1.0000
  C   C1138     1.0  0.68192  0.15280  0.08080  1.0000
  C   C1139     1.0  0.01030  0.32043  0.93482  1.0000
  C   C1140     1.0  0.53638  0.31715  0.02773  1.0000
  H   H913      1.0  0.76953  0.38578  0.05991  1.0000
  H   H914      1.0  0.95254  0.21607  0.99486  1.0000
  H   H915      1.0  0.62608  0.22855  0.93907  1.0000
  C   C1141     1.0  0.94907  0.55987  0.93356  1.0000
  C   C1142     1.0  0.73209  0.07964  0.08411  1.0000
  C   C1143     1.0  0.57608  0.49319  0.12165  1.0000
  H   H916      1.0  0.78056  0.19477  0.95614  1.0000
  S   S147      1.0  0.73862  0.48341  0.06180  1.0000
  C   C1144     1.0  0.76746  0.40148  0.12294  1.0000
  C   C1145     1.0  0.66055  0.31421  0.00497  1.0000
  C   C1146     1.0  0.67377  0.53251  0.01565  1.0000
  H   H917      1.0  0.88474  0.52084  0.99667  1.0000
  C   C1147     1.0  0.63320  0.08686  0.10810  1.0000
  H   H918      1.0  0.99440  0.19069  0.10963  1.0000
  H   H919      1.0  0.54238  0.14844  0.04556  1.0000
  C   C1148     1.0  0.80010  0.25532  0.94433  1.0000
  H   H920      1.0  0.85286  0.16684  0.08288  1.0000
  H   H921      1.0  0.94795  0.22806  0.92263  1.0000
  H   H922      1.0  0.53118  0.30981  0.06161  1.0000
  H   H923      1.0  0.59059  0.46816  0.97648  1.0000
  Fe  Fe72      1.0  0.85656  0.33863  0.97646  1.0000
  H   H924      1.0  0.67853  0.10286  0.05530  1.0000
  C   C1149     1.0  0.57227  0.44807  0.00478  1.0000
  S   S148      1.0  0.89567  0.39752  0.99051  1.0000
  Fe  Fe73      1.0  0.97353  0.14742  0.98007  1.0000
  C   C1150     1.0  0.75313  0.10287  0.04510  1.0000
  C   C1151     1.0  0.85798  0.20706  0.03446  1.0000
  H   H925      1.0  0.80438  0.53787  0.08207  1.0000
  C   C1152     1.0  0.75319  0.20479  0.91477  1.0000
  C   C1153     1.0  0.97428  0.46679  0.05986  1.0000
  H   H926      1.0  0.92795  0.52973  0.10704  1.0000
  C   C1154     1.0  0.88167  0.51751  0.03065  1.0000
  C   C1155     1.0  0.95211  0.53606  0.96166  1.0000
  H   H927      1.0  0.70246  0.24485  0.96039  1.0000
  C   C1156     1.0  0.58431  0.43005  0.02777  1.0000
  C   C1157     1.0  0.84707  0.50287  0.05690  1.0000
  C   C1158     1.0  0.01626  0.54157  0.01560  1.0000
  S   S149      1.0  0.85868  0.12278  0.94369  1.0000
  C   C1159     1.0  0.86372  0.56492  0.88948  1.0000
  C   C1160     1.0  0.56674  0.27153  0.08777  1.0000
  C   C1161     1.0  0.02591  0.42481  0.95926  1.0000
  C   C1162     1.0  0.91130  0.52731  0.04834  1.0000
  H   H928      1.0  0.54568  0.46152  0.91800  1.0000
  H   H929      1.0  0.58381  0.47599  0.10225  1.0000
  C   C1163     1.0  0.95776  0.48697  0.05314  1.0000
  S   S150      1.0  0.98251  0.11289  0.12133  1.0000
  H   H930      1.0  0.74813  0.29903  0.08651  1.0000
  Fe  Fe74      1.0  0.68943  0.46581  0.03758  1.0000
  S   S151      1.0  0.75055  0.42349  0.00426  1.0000
  H   H931      1.0  0.02743  0.34970  0.91858  1.0000
  H   H932      1.0  0.77291  0.19051  0.07358  1.0000
  C   C1164     1.0  0.54895  0.41172  0.90485  1.0000
  C   C1165     1.0  0.85800  0.21318  0.99205  1.0000
  H   H933      1.0  0.61282  0.52851  0.90624  1.0000
  P   P39       1.0  0.95646  0.54738  0.01466  1.0000
  H   H934      1.0  0.95042  0.48222  0.97028  1.0000
  Fe  Fe75      1.0  0.61494  0.15670  0.98267  1.0000
  C   C1166     1.0  0.55196  0.55667  0.93403  1.0000
  C   C1167     1.0  0.96571  0.25225  0.93734  1.0000
  C   C1168     1.0  0.01172  0.48383  0.04433  1.0000
  S   S152      1.0  0.98959  0.41977  0.94073  1.0000
  C   C1169     1.0  0.69925  0.23232  0.02609  1.0000
  H   H935      1.0  0.93489  0.26548  0.11380  1.0000
  C   C1170     1.0  0.73834  0.28655  0.05913  1.0000
  C   C1171     1.0  0.57182  0.33516  0.00249  1.0000
  Fe  Fe76      1.0  0.59634  0.07258  0.98679  1.0000
  C   C1172     1.0  0.96820  0.24531  0.97834  1.0000
  C   C1173     1.0  0.57877  0.34536  0.95888  1.0000
  C   C1174     1.0  0.55089  0.24218  0.06280  1.0000
  C   C1175     1.0  0.60173  0.54748  0.96614  1.0000
  C   C1176     1.0  0.63316  0.24564  0.00057  1.0000
  S   S153      1.0  0.72606  0.39881  0.12869  1.0000
  C   C1177     1.0  0.85639  0.18610  0.96469  1.0000
  H   H936      1.0  0.61164  0.43585  0.01707  1.0000
  C   C1178     1.0  0.75042  0.23253  0.89325  1.0000
  C   C1179     1.0  0.53325  0.22739  0.96996  1.0000
  Fe  Fe77      1.0  0.93469  0.37775  0.98269  1.0000
  C   C1180     1.0  0.53675  0.43992  0.01807  1.0000
  H   H937      1.0  0.60935  0.18703  0.12165  1.0000
  S   S154      1.0  0.91501  0.10374  0.01043  1.0000
  H   H938      1.0  0.56788  0.41781  0.92444  1.0000
  C   C1181     1.0  0.77328  0.27184  0.89638  1.0000
  S   S155      1.0  0.66763  0.40253  0.05130  1.0000
  Fe  Fe78      1.0  0.59378  0.11174  0.90909  1.0000
  C   C1182     1.0  0.67672  0.52500  0.97342  1.0000
  Fe  Fe79      1.0  0.69970  0.40944  0.98501  1.0000
  C   C1183     1.0  0.71133  0.24719  0.06227  1.0000
  C   C1184     1.0  0.90563  0.52242  0.09269  1.0000
  S   S156      1.0  0.96251  0.16224  0.92067  1.0000
  C   C1185     1.0  0.59678  0.53830  0.92566  1.0000
  H   H939      1.0  0.82427  0.49478  0.04293  1.0000
  S   S157      1.0  0.72534  0.15574  0.91077  1.0000
  H   H940      1.0  0.99526  0.26994  0.02821  1.0000
  S   S158      1.0  0.56554  0.10057  0.97785  1.0000
  C   C1186     1.0  0.55010  0.33683  0.93991  1.0000
  C   C1187     1.0  0.75480  0.23831  0.12804  1.0000
  S   S159      1.0  0.98518  0.10350  0.95409  1.0000
  H   H941      1.0  0.59420  0.34166  0.01663  1.0000
  H   H942      1.0  0.81837  0.47090  0.93306  1.0000
  C   C1188     1.0  0.66600  0.11308  0.07957  1.0000
  C   C1189     1.0  0.73876  0.29572  0.98525  1.0000
  C   C1190     1.0  0.78297  0.39335  0.08567  1.0000
  C   C1191     1.0  0.54590  0.27168  0.12616  1.0000
  S   S160      1.0  0.71781  0.47154  0.97008  1.0000
  C   C1192     1.0  0.94272  0.49127  0.90958  1.0000
  C   C1193     1.0  0.55398  0.18051  0.92718  1.0000
  H   H943      1.0  0.62129  0.54453  0.97838  1.0000
  Fe  Fe80      1.0  0.97014  0.11523  0.89665  1.0000
  C   C1194     1.0  0.76707  0.14251  0.04134  1.0000
  S   S161      1.0  0.83397  0.31308  0.04506  1.0000
  H   H944      1.0  0.02426  0.46759  0.04812  1.0000
  C   C1195     1.0  0.84124  0.53217  0.91956  1.0000
  C   C1196     1.0  0.69027  0.55490  0.94025  1.0000
  C   C1197     1.0  0.81521  0.39373  0.08229  1.0000
  Fe  Fe81      1.0  0.72003  0.42087  0.06946  1.0000
  C   C1198     1.0  0.94741  0.24889  0.11496  1.0000
  Fe  Fe82      1.0  0.87721  0.37048  0.05793  1.0000
  S   S162      1.0  0.61321  0.19868  0.02588  1.0000
  H   H945      1.0  0.57141  0.39236  0.08371  1.0000
  H   H946      1.0  0.76549  0.24624  0.09407  1.0000
  H   H947      1.0  0.77322  0.34077  0.01773  1.0000
  H   H948      1.0  0.91375  0.25871  0.91570  1.0000
  H   H949      1.0  0.59536  0.29385  0.07758  1.0000
  C   C1199     1.0  0.87102  0.50822  0.11885  1.0000
  C   C1200     1.0  0.01287  0.31329  0.97574  1.0000
  S   S163      1.0  0.87032  0.39964  0.11419  1.0000
  C   C1201     1.0  0.71289  0.25645  0.98777  1.0000
  C   C1202     1.0  0.64588  0.27660  0.02426  1.0000
  H   H950      1.0  0.75945  0.09047  0.01776  1.0000
  H   H951      1.0  0.85623  0.19057  0.93194  1.0000
  S   S164      1.0  0.01108  0.19644  0.01040  1.0000
  S   S165      1.0  0.82469  0.33202  0.92849  1.0000
  C   C1203     1.0  0.56652  0.21736  0.90778  1.0000
  H   H952      1.0  0.56716  0.26999  0.91493  1.0000
  C   C1204     1.0  0.53069  0.16674  0.96777  1.0000
  C   C1205     1.0  0.85611  0.15368  0.97933  1.0000
  H   H953      1.0  0.64474  0.27157  0.05746  1.0000
  Fe  Fe83      1.0  0.90460  0.11562  0.94900  1.0000
  S   S166      1.0  0.86282  0.24211  0.06829  1.0000
  Fe  Fe84      1.0  0.87681  0.29831  0.03426  1.0000
  H   H954      1.0  0.65053  0.29497  0.90516  1.0000
  C   C1206     1.0  0.76106  0.15953  0.07668  1.0000
  S   S167      1.0  0.89677  0.32026  0.96448  1.0000
  H   H955      1.0  0.66856  0.49615  0.96626  1.0000
  C   C1207     1.0  0.85464  0.17288  0.04980  1.0000
  C   C1208     1.0  0.94899  0.50171  0.94923  1.0000
  C   C1209     1.0  0.83565  0.49635  0.90976  1.0000
  C   C1210     1.0  0.75223  0.31055  0.02053  1.0000
  C   C1211     1.0  0.02055  0.40805  0.99993  1.0000
  S   S168      1.0  0.82099  0.53714  0.96924  1.0000
  H   H956      1.0  0.56296  0.16290  0.91103  1.0000
  S   S169      1.0  0.65985  0.49633  0.05713  1.0000
  C   C1212     1.0  0.84180  0.49864  0.10093  1.0000
  H   H957      1.0  0.73368  0.09292  0.90008  1.0000
  C   C1213     1.0  0.63560  0.25237  0.95742  1.0000
  H   H958      1.0  0.82662  0.38659  0.05369  1.0000
  H   H959      1.0  0.78334  0.16017  0.01113  1.0000
  S   S170      1.0  0.64329  0.12790  0.99717  1.0000
  C   C1214     1.0  0.72553  0.09670  0.11955  1.0000
  C   C1215     1.0  0.53652  0.43658  0.90123  1.0000
  S   S171      1.0  0.64165  0.17011  0.91324  1.0000
  C   C1216     1.0  0.73989  0.13658  0.11569  1.0000
  S   S172      1.0  0.91117  0.07007  0.91882  1.0000
  H   H960      1.0  0.98698  0.41363  0.11793  1.0000
  H   H961      1.0  0.85350  0.12111  0.03373  1.0000
  H   H962      1.0  0.60666  0.36030  0.94063  1.0000
  C   C1217     1.0  0.99208  0.27573  0.99731  1.0000
  P   P40       1.0  0.68778  0.21808  0.11355  1.0000
  S   S173      1.0  0.91881  0.35441  0.05137  1.0000
  C   C1218     1.0  0.56150  0.40523  0.06513  1.0000
  H   H963      1.0  0.56789  0.24206  0.03384  1.0000
  H   H964      1.0  0.99365  0.39141  0.02037  1.0000
  H   H965      1.0  0.77448  0.09191  0.94109  1.0000
  C   C1219     1.0  0.57152  0.54220  0.90993  1.0000
  H   H966      1.0  0.85889  0.23851  0.98047  1.0000
  H   H967      1.0  0.94334  0.17000  0.07546  1.0000
  H   H968      1.0  0.67788  0.20252  0.02782  1.0000
  Fe  Fe85      1.0  0.76573  0.48498  0.99538  1.0000
  H   H969      1.0  0.81855  0.26381  0.96492  1.0000
  C   C1220     1.0  0.83224  0.40292  0.11604  1.0000
  H   H970      1.0  0.92866  0.38882  0.89575  1.0000
  H   H971      1.0  0.53714  0.09491  0.08805  1.0000
  C   C1221     1.0  0.79780  0.28318  0.92240  1.0000
  C   C1222     1.0  0.98050  0.20621  0.11237  1.0000
  C   C1223     1.0  0.85477  0.14677  0.02203  1.0000
  C   C1224     1.0  0.97860  0.52456  0.03094  1.0000
  C   C1225     1.0  0.94348  0.54959  0.89356  1.0000
  C   C1226     1.0  0.98699  0.28982  0.91502  1.0000
  C   C1227     1.0  0.64940  0.28990  0.93831  1.0000
  H   H972      1.0  0.95758  0.43719  0.07527  1.0000
  H   H973      1.0  0.01759  0.37947  0.12777  1.0000
  C   C1228     1.0  0.58165  0.56079  0.99082  1.0000
  H   H974      1.0  0.85588  0.24652  0.90428  1.0000
  H   H975      1.0  0.02631  0.53709  0.10954  1.0000
  H   H976      1.0  0.81488  0.48745  0.12103  1.0000
  C   C1229     1.0  0.54010  0.48379  0.13138  1.0000
  H   H977      1.0  0.93901  0.46409  0.90099  1.0000
  C   C1230     1.0  0.62112  0.21381  0.13535  1.0000
  H   H978      1.0  0.62929  0.52946  0.13136  1.0000
  C   C1231     1.0  0.76654  0.07315  0.91677  1.0000
  C   C1232     1.0  0.99206  0.23842  0.13410  1.0000
  C   C1233     1.0  0.97111  0.38428  0.13395  1.0000
  H   H979      1.0  0.77253  0.49976  0.88729  1.0000
  C   C1234     1.0  0.87156  0.08779  0.24666  1.0000
  C   C1235     1.0  0.81994  0.12873  0.22672  1.0000
  C   C1236     1.0  0.69935  0.43734  0.30228  1.0000
  C   C1237     1.0  0.78150  0.14749  0.20469  1.0000
  H   H980      1.0  0.57306  0.36209  0.28953  1.0000
  C   C1238     1.0  0.70723  0.08775  0.26893  1.0000
  C   C1239     1.0  0.70087  0.11539  0.28709  1.0000
  H   H981      1.0  0.94408  0.38226  0.35688  1.0000
  C   C1240     1.0  0.00533  0.47066  0.29799  1.0000
  H   H982      1.0  0.90455  0.47124  0.35226  1.0000
  P   P41       1.0  0.98937  0.29991  0.16660  1.0000
  H   H983      1.0  0.74339  0.56473  0.19192  1.0000
  C   C1241     1.0  0.63310  0.38630  0.35916  1.0000
  H   H984      1.0  0.82727  0.38614  0.28374  1.0000
  C   C1242     1.0  0.65492  0.36712  0.23601  1.0000
  H   H985      1.0  0.65875  0.35711  0.37442  1.0000
  C   C1243     1.0  0.97869  0.30951  0.25221  1.0000
  H   H986      1.0  0.97482  0.54255  0.14657  1.0000
  H   H987      1.0  0.72481  0.45664  0.27960  1.0000
  C   C1244     1.0  0.74925  0.31495  0.21278  1.0000
  C   C1245     1.0  0.80552  0.54770  0.28399  1.0000
  H   H988      1.0  0.95621  0.50082  0.28648  1.0000
  H   H989      1.0  0.75191  0.36146  0.31173  1.0000
  C   C1246     1.0  0.88322  0.11294  0.31297  1.0000
  H   H990      1.0  0.81971  0.55484  0.15089  1.0000
  H   H991      1.0  0.79113  0.32967  0.15623  1.0000
  C   C1247     1.0  0.58881  0.51444  0.37952  1.0000
  C   C1248     1.0  0.69593  0.56119  0.23061  1.0000
  C   C1249     1.0  0.67028  0.44261  0.30601  1.0000
  H   H992      1.0  0.89538  0.53882  0.29715  1.0000
  H   H993      1.0  0.95819  0.41874  0.28758  1.0000
  S   S174      1.0  0.98607  0.15793  0.20584  1.0000
  C   C1250     1.0  0.59382  0.42335  0.28656  1.0000
  H   H994      1.0  0.60087  0.31870  0.26272  1.0000
  C   C1251     1.0  0.67311  0.27118  0.14953  1.0000
  C   C1252     1.0  0.81511  0.43017  0.27930  1.0000
  H   H995      1.0  0.61309  0.48157  0.19709  1.0000
  C   C1253     1.0  0.89401  0.11618  0.26881  1.0000
  C   C1254     1.0  0.73013  0.34548  0.33954  1.0000
  C   C1255     1.0  0.85411  0.32562  0.34989  1.0000
  H   H996      1.0  0.82359  0.11038  0.24651  1.0000
  H   H997      1.0  0.80765  0.19179  0.15056  1.0000
  C   C1256     1.0  0.54922  0.22406  0.33374  1.0000
  C   C1257     1.0  0.71837  0.22541  0.14641  1.0000
  C   C1258     1.0  0.97174  0.12622  0.37793  1.0000
  C   C1259     1.0  0.60204  0.52390  0.13833  1.0000
  H   H998      1.0  0.53962  0.22588  0.30629  1.0000
  H   H999      1.0  0.86789  0.20086  0.14363  1.0000
  C   C1260     1.0  0.96762  0.41151  0.34815  1.0000
  C   C1261     1.0  0.81726  0.41204  0.15289  1.0000
  C   C1262     1.0  0.84957  0.15639  0.19516  1.0000
  H   H1000     1.0  0.89883  0.30664  0.26471  1.0000
  C   C1263     1.0  0.79321  0.12311  0.37489  1.0000
  C   C1264     1.0  0.93006  0.30786  0.17364  1.0000
  C   C1265     1.0  0.61718  0.10034  0.13919  1.0000
  C   C1266     1.0  0.81108  0.17477  0.17270  1.0000
  C   C1267     1.0  0.58140  0.38826  0.26973  1.0000
  H   H1001     1.0  0.71149  0.41126  0.21500  1.0000
  C   C1268     1.0  0.67054  0.11632  0.28314  1.0000
  C   C1269     1.0  0.82657  0.40933  0.29890  1.0000
  P   P42       1.0  0.84648  0.38830  0.36647  1.0000
  H   H1002     1.0  0.00778  0.55936  0.22367  1.0000
  C   C1270     1.0  0.02780  0.48725  0.32630  1.0000
  C   C1271     1.0  0.89604  0.35789  0.26713  1.0000
  C   C1272     1.0  0.66267  0.24196  0.29100  1.0000
  H   H1003     1.0  0.57902  0.51070  0.25232  1.0000
  H   H1004     1.0  0.87576  0.15918  0.19099  1.0000
  H   H1005     1.0  0.86670  0.50425  0.15299  1.0000
  C   C1273     1.0  0.75392  0.09727  0.32588  1.0000
  C   C1274     1.0  0.66157  0.21729  0.32235  1.0000
  H   H1006     1.0  0.94122  0.24773  0.34445  1.0000
  H   H1007     1.0  0.00447  0.18421  0.28413  1.0000
  C   C1275     1.0  0.78278  0.32170  0.19032  1.0000
  C   C1276     1.0  0.64146  0.30700  0.27116  1.0000
  C   C1277     1.0  0.99041  0.42812  0.37581  1.0000
  C   C1278     1.0  0.97524  0.28325  0.22291  1.0000
  C   C1279     1.0  0.72719  0.21436  0.21543  1.0000
  C   C1280     1.0  0.73243  0.36072  0.37808  1.0000
  H   H1008     1.0  0.64012  0.24405  0.23847  1.0000
  H   H1009     1.0  0.77358  0.41868  0.18472  1.0000
  S   S175      1.0  0.55570  0.08383  0.24036  1.0000
  H   H1010     1.0  0.83168  0.32408  0.19392  1.0000
  C   C1281     1.0  0.63582  0.17763  0.32793  1.0000
  C   C1282     1.0  0.98840  0.36461  0.13936  1.0000
  C   C1283     1.0  0.73757  0.30304  0.25660  1.0000
  C   C1284     1.0  0.63930  0.22596  0.26355  1.0000
  H   H1011     1.0  0.54999  0.11802  0.16842  1.0000
  C   C1285     1.0  0.80548  0.31806  0.21163  1.0000
  H   H1012     1.0  0.71912  0.13600  0.30472  1.0000
  C   C1286     1.0  0.61032  0.47224  0.35529  1.0000
  H   H1013     1.0  0.73260  0.37127  0.24039  1.0000
  C   C1287     1.0  0.72352  0.08092  0.36067  1.0000
  H   H1014     1.0  0.82023  0.13878  0.38056  1.0000
  S   S176      1.0  0.88643  0.09102  0.19167  1.0000
  C   C1288     1.0  0.63730  0.41815  0.33588  1.0000
  C   C1289     1.0  0.83061  0.44531  0.35881  1.0000
  C   C1290     1.0  0.91315  0.54917  0.31875  1.0000
  Fe  Fe86      1.0  0.94398  0.10624  0.18228  1.0000
  H   H1015     1.0  0.88347  0.31255  0.17714  1.0000
  H   H1016     1.0  0.79340  0.52478  0.22591  1.0000
  H   H1017     1.0  0.90119  0.13429  0.33021  1.0000
  C   C1291     1.0  0.59142  0.42045  0.20092  1.0000
  H   H1018     1.0  0.67368  0.46586  0.28547  1.0000
  H   H1019     1.0  0.67620  0.20152  0.20453  1.0000
  C   C1292     1.0  0.53295  0.12000  0.19603  1.0000
  H   H1020     1.0  0.93352  0.20099  0.29322  1.0000
  C   C1293     1.0  0.99168  0.17346  0.31732  1.0000
  P   P43       1.0  0.60012  0.42574  0.33975  1.0000
  S   S177      1.0  0.00188  0.11311  0.30291  1.0000
  C   C1294     1.0  0.61194  0.16207  0.30127  1.0000
  H   H1021     1.0  0.59766  0.27630  0.17647  1.0000
  C   C1295     1.0  0.64649  0.09002  0.26081  1.0000
  C   C1296     1.0  0.79378  0.30557  0.25527  1.0000
  C   C1297     1.0  0.54835  0.19056  0.34546  1.0000
  H   H1022     1.0  0.59122  0.13144  0.30656  1.0000
  C   C1298     1.0  0.89840  0.54334  0.36231  1.0000
  C   C1299     1.0  0.61394  0.18618  0.26880  1.0000
  C   C1300     1.0  0.98682  0.13902  0.33449  1.0000
  C   C1301     1.0  0.65155  0.28640  0.16359  1.0000
  C   C1302     1.0  0.76354  0.22741  0.19693  1.0000
  C   C1303     1.0  0.96651  0.29680  0.29586  1.0000
  C   C1304     1.0  0.78886  0.11901  0.33344  1.0000
  H   H1023     1.0  0.59515  0.17405  0.24843  1.0000
  C   C1305     1.0  0.56167  0.25460  0.35808  1.0000
  C   C1306     1.0  0.60400  0.45553  0.21746  1.0000
  C   C1307     1.0  0.64624  0.50327  0.35108  1.0000
  H   H1024     1.0  0.71838  0.40373  0.32505  1.0000
  C   C1308     1.0  0.95071  0.48893  0.25718  1.0000
  C   C1309     1.0  0.54773  0.55129  0.32609  1.0000
  H   H1025     1.0  0.57096  0.21276  0.14961  1.0000
  C   C1310     1.0  0.91926  0.48159  0.24554  1.0000
  H   H1026     1.0  0.62272  0.09053  0.25824  1.0000
  C   C1311     1.0  0.66655  0.56555  0.23124  1.0000
  C   C1312     1.0  0.86077  0.36118  0.33309  1.0000
  H   H1027     1.0  0.79086  0.20257  0.38241  1.0000
  H   H1028     1.0  0.86175  0.27822  0.33813  1.0000
  C   C1313     1.0  0.58030  0.38690  0.22703  1.0000
  C   C1314     1.0  0.88827  0.32191  0.28360  1.0000
  P   P44       1.0  0.74726  0.08783  0.27295  1.0000
  C   C1315     1.0  0.69898  0.31047  0.33659  1.0000
  H   H1029     1.0  0.91300  0.37098  0.23549  1.0000
  C   C1316     1.0  0.83506  0.41724  0.33855  1.0000
  H   H1030     1.0  0.83906  0.31328  0.38246  1.0000
  H   H1031     1.0  0.59005  0.41915  0.16797  1.0000
  H   H1032     1.0  0.98544  0.45943  0.17242  1.0000
  C   C1317     1.0  0.93595  0.45862  0.18168  1.0000
  Fe  Fe87      1.0  0.99577  0.11604  0.23638  1.0000
  C   C1318     1.0  0.75964  0.29745  0.27756  1.0000
  C   C1319     1.0  0.55904  0.38971  0.37743  1.0000
  H   H1033     1.0  0.80786  0.42351  0.24920  1.0000
  H   H1034     1.0  0.70988  0.07956  0.15021  1.0000
  H   H1035     1.0  0.91965  0.14080  0.25203  1.0000
  H   H1036     1.0  0.93001  0.44682  0.15249  1.0000
  H   H1037     1.0  0.90041  0.48740  0.26582  1.0000
  H   H1038     1.0  0.98714  0.22258  0.33121  1.0000
  C   C1320     1.0  0.62965  0.32975  0.25676  1.0000
  H   H1039     1.0  0.91974  0.38042  0.14264  1.0000
  H   H1040     1.0  0.75545  0.14443  0.20733  1.0000
  H   H1041     1.0  0.55371  0.45492  0.37282  1.0000
  H   H1042     1.0  0.67980  0.22871  0.34338  1.0000
  H   H1043     1.0  0.81411  0.48639  0.35565  1.0000
  H   H1044     1.0  0.81304  0.13225  0.30809  1.0000
  C   C1321     1.0  0.59205  0.54538  0.16504  1.0000
  H   H1045     1.0  0.89006  0.40597  0.27926  1.0000
  H   H1046     1.0  0.88769  0.46102  0.19855  1.0000
  C   C1322     1.0  0.97550  0.48201  0.23059  1.0000
  H   H1047     1.0  0.66546  0.13713  0.29796  1.0000
  C   C1323     1.0  0.78571  0.12425  0.23225  1.0000
  C   C1324     1.0  0.85117  0.55675  0.22146  1.0000
  Fe  Fe88      1.0  0.74562  0.51452  0.37953  1.0000
  C   C1325     1.0  0.84953  0.08175  0.33504  1.0000
  H   H1048     1.0  0.63358  0.15892  0.35373  1.0000
  H   H1049     1.0  0.78263  0.31181  0.36619  1.0000
  H   H1050     1.0  0.75035  0.28673  0.31113  1.0000
  C   C1326     1.0  0.96753  0.46609  0.19306  1.0000
  C   C1327     1.0  0.67021  0.29108  0.37234  1.0000
  H   H1051     1.0  0.75611  0.38800  0.38046  1.0000
  H   H1052     1.0  0.71633  0.20481  0.24926  1.0000
  H   H1053     1.0  0.64591  0.38500  0.22520  1.0000
  C   C1328     1.0  0.55987  0.18764  0.38148  1.0000
  C   C1329     1.0  0.61446  0.26473  0.16503  1.0000
  C   C1330     1.0  0.97528  0.43253  0.30927  1.0000
  C   C1331     1.0  0.94616  0.23133  0.28167  1.0000
  H   H1054     1.0  0.62145  0.27894  0.28913  1.0000
  C   C1332     1.0  0.97498  0.25948  0.13652  1.0000
  C   C1333     1.0  0.60529  0.45705  0.26011  1.0000
  C   C1334     1.0  0.95848  0.24390  0.23804  1.0000
  S   S178      1.0  0.75968  0.52937  0.30866  1.0000
  C   C1335     1.0  0.67872  0.32089  0.26326  1.0000
  C   C1336     1.0  0.91198  0.46660  0.20771  1.0000
  C   C1337     1.0  0.70387  0.35899  0.24392  1.0000
  H   H1055     1.0  0.53753  0.49389  0.32243  1.0000
  H   H1056     1.0  0.91378  0.27809  0.18874  1.0000
  H   H1057     1.0  0.60743  0.36466  0.37970  1.0000
  C   C1338     1.0  0.58166  0.47818  0.36969  1.0000
  C   C1339     1.0  0.81097  0.45814  0.29960  1.0000
  C   C1340     1.0  0.95035  0.25772  0.31059  1.0000
  H   H1058     1.0  0.61593  0.48463  0.27204  1.0000
  H   H1059     1.0  0.85822  0.55175  0.18930  1.0000
  H   H1060     1.0  0.66905  0.49983  0.34100  1.0000
  H   H1061     1.0  0.78092  0.22809  0.21647  1.0000
  H   H1062     1.0  0.62111  0.14970  0.16649  1.0000
  C   C1341     1.0  0.69199  0.38187  0.23014  1.0000
  C   C1342     1.0  0.96790  0.32611  0.15903  1.0000
  C   C1343     1.0  0.81855  0.46556  0.33937  1.0000
  C   C1344     1.0  0.55267  0.52338  0.30690  1.0000
  H   H1063     1.0  0.66378  0.31528  0.17270  1.0000
  H   H1064     1.0  0.96957  0.31713  0.31841  1.0000
  H   H1065     1.0  0.99076  0.33982  0.24131  1.0000
  C   C1345     1.0  0.98203  0.19526  0.34387  1.0000
  C   C1346     1.0  0.78479  0.41107  0.15647  1.0000
  C   C1347     1.0  0.02041  0.46595  0.36490  1.0000
  C   C1348     1.0  0.55618  0.53695  0.17276  1.0000
  C   C1349     1.0  0.84516  0.17963  0.16840  1.0000
  P   P45       1.0  0.69415  0.29355  0.28602  1.0000
  C   C1350     1.0  0.70463  0.21316  0.19020  1.0000
  H   H1066     1.0  0.83033  0.41890  0.17894  1.0000
  H   H1067     1.0  0.68112  0.56349  0.35632  1.0000
  C   C1351     1.0  0.86737  0.30585  0.32501  1.0000
  H   H1068     1.0  0.64549  0.26479  0.37037  1.0000
  H   H1069     1.0  0.81078  0.30151  0.27175  1.0000
  H   H1070     1.0  0.73260  0.31917  0.19599  1.0000
  H   H1071     1.0  0.80088  0.47333  0.28516  1.0000
  S   S179      1.0  0.55646  0.29298  0.34758  1.0000
  C   C1352     1.0  0.62459  0.54540  0.37415  1.0000
  C   C1353     1.0  0.91282  0.32737  0.16743  1.0000
  C   C1354     1.0  0.69561  0.40721  0.32765  1.0000
  C   C1355     1.0  0.90793  0.45677  0.37730  1.0000
  C   C1356     1.0  0.88272  0.37762  0.29194  1.0000
  C   C1357     1.0  0.66230  0.38130  0.35553  1.0000
  H   H1072     1.0  0.95450  0.22255  0.21661  1.0000
  H   H1073     1.0  0.57038  0.35971  0.21422  1.0000
  Fe  Fe89      1.0  0.99262  0.07419  0.15796  1.0000
  C   C1358     1.0  0.77741  0.23970  0.15327  1.0000
  C   C1359     1.0  0.65328  0.53972  0.36011  1.0000
  C   C1360     1.0  0.57645  0.53309  0.26719  1.0000
  H   H1074     1.0  0.59195  0.07990  0.16160  1.0000
  Fe  Fe90      1.0  0.02522  0.16106  0.14793  1.0000
  H   H1075     1.0  0.01684  0.36950  0.37062  1.0000
  H   H1076     1.0  0.86929  0.52886  0.37476  1.0000
  C   C1361     1.0  0.65794  0.23431  0.13648  1.0000
  H   H1077     1.0  0.53799  0.16658  0.32724  1.0000
  C   C1362     1.0  0.93334  0.36566  0.14793  1.0000
  H   H1078     1.0  0.80559  0.24987  0.13865  1.0000
  H   H1079     1.0  0.01446  0.24681  0.14870  1.0000
  H   H1080     1.0  0.70192  0.28879  0.14728  1.0000
  C   C1363     1.0  0.59935  0.22868  0.15041  1.0000
  H   H1081     1.0  0.70008  0.55330  0.25998  1.0000
  C   C1364     1.0  0.81467  0.54160  0.24212  1.0000
  P   P46       1.0  0.01734  0.49465  0.24486  1.0000
  H   H1082     1.0  0.54773  0.55315  0.19313  1.0000
  C   C1365     1.0  0.52983  0.10447  0.23633  1.0000
  H   H1083     1.0  0.95618  0.50859  0.38531  1.0000
  H   H1084     1.0  0.64851  0.56109  0.26153  1.0000
  H   H1085     1.0  0.73454  0.14972  0.14284  1.0000
  H   H1086     1.0  0.55814  0.29447  0.14551  1.0000
  C   C1366     1.0  0.63346  0.14008  0.14121  1.0000
  C   C1367     1.0  0.02270  0.32035  0.37298  1.0000
  C   C1368     1.0  0.53028  0.50613  0.15616  1.0000
  S   S180      1.0  0.93459  0.05905  0.53293  1.0000
  C   C1369     1.0  0.82702  0.63763  0.58573  1.0000
  C   C1370     1.0  0.86188  0.78987  0.53218  1.0000
  C   C1371     1.0  0.82993  0.70881  0.43554  1.0000
  H   H1087     1.0  0.79885  0.62483  0.58458  1.0000
  C   C1372     1.0  0.87412  0.77258  0.55608  1.0000
  H   H1088     1.0  0.92648  0.90693  0.55906  1.0000
  C   C1373     1.0  0.69175  0.62000  0.42433  1.0000
  H   H1089     1.0  0.74434  0.64489  0.62888  1.0000
  C   C1374     1.0  0.01041  0.05362  0.39500  1.0000
  H   H1090     1.0  0.61504  0.93791  0.56251  1.0000
  H   H1091     1.0  0.62919  0.81750  0.42491  1.0000
  H   H1092     1.0  0.78186  0.64452  0.40059  1.0000
  H   H1093     1.0  0.62899  0.87779  0.42787  1.0000
  C   C1375     1.0  0.99552  0.78481  0.54445  1.0000
  H   H1094     1.0  0.58236  0.61511  0.40684  1.0000
  H   H1095     1.0  0.63404  0.06286  0.58826  1.0000
  H   H1096     1.0  0.92667  0.68304  0.59447  1.0000
  H   H1097     1.0  0.77333  0.99052  0.60177  1.0000
  C   C1376     1.0  0.83876  0.85872  0.61577  1.0000
  C   C1377     1.0  0.55695  0.59025  0.42461  1.0000
  P   P47       1.0  0.89355  0.92315  0.42786  1.0000
  H   H1098     1.0  0.96163  0.82417  0.59398  1.0000
  H   H1099     1.0  0.77881  0.74495  0.41724  1.0000
  H   H1100     1.0  0.83417  0.69554  0.49779  1.0000
  H   H1101     1.0  0.00440  0.65727  0.52985  1.0000
  C   C1378     1.0  0.89336  0.02102  0.39882  1.0000
  H   H1102     1.0  0.83724  0.84879  0.40656  1.0000
  H   H1103     1.0  0.86850  0.81572  0.47029  1.0000
  C   C1379     1.0  0.64338  0.96250  0.42168  1.0000
  C   C1380     1.0  0.93447  0.60988  0.52295  1.0000
  H   H1104     1.0  0.92500  0.98875  0.47645  1.0000
  C   C1381     1.0  0.85122  0.67765  0.57598  1.0000
  C   C1382     1.0  0.98446  0.96761  0.50031  1.0000
  H   H1105     1.0  0.74717  0.89042  0.41370  1.0000
  C   C1383     1.0  0.80810  0.84833  0.52541  1.0000
  S   S181      1.0  0.56359  0.06147  0.55887  1.0000
  H   H1106     1.0  0.82818  0.05641  0.59317  1.0000
  H   H1107     1.0  0.97353  0.01269  0.51395  1.0000
  C   C1384     1.0  0.88704  0.61840  0.44414  1.0000
  C   C1385     1.0  0.88664  0.64788  0.42263  1.0000
  H   H1108     1.0  0.87075  0.97785  0.45249  1.0000
  H   H1109     1.0  0.00569  0.97825  0.51746  1.0000
  H   H1110     1.0  0.80600  0.63204  0.48024  1.0000
  H   H1111     1.0  0.83898  0.79221  0.54696  1.0000
  C   C1386     1.0  0.80224  0.05258  0.59218  1.0000
  C   C1387     1.0  0.96205  0.75486  0.53838  1.0000
  P   P48       1.0  0.85717  0.69131  0.40700  1.0000
  C   C1388     1.0  0.83360  0.00545  0.51256  1.0000
  C   C1389     1.0  0.93851  0.97307  0.47712  1.0000
  C   C1390     1.0  0.01105  0.02021  0.38848  1.0000
  C   C1391     1.0  0.53445  0.03024  0.52855  1.0000
  H   H1112     1.0  0.88409  0.05976  0.49009  1.0000
  C   C1392     1.0  0.78593  0.87753  0.48498  1.0000
  C   C1393     1.0  0.02260  0.68330  0.54115  1.0000
  H   H1113     1.0  0.66314  0.64890  0.51398  1.0000
  H   H1114     1.0  0.98727  0.91800  0.48475  1.0000
  C   C1394     1.0  0.67457  0.63536  0.45090  1.0000
  C   C1395     1.0  0.81540  0.96994  0.53848  1.0000
  H   H1115     1.0  0.93307  0.63280  0.53806  1.0000
  C   C1396     1.0  0.85837  0.65453  0.43667  1.0000
  H   H1116     1.0  0.93747  0.89248  0.44774  1.0000
  C   C1397     1.0  0.61622  0.87833  0.60837  1.0000
  C   C1398     1.0  0.96637  0.98698  0.49843  1.0000
  C   C1399     1.0  0.87046  0.88626  0.58639  1.0000
  H   H1117     1.0  0.72039  0.59027  0.42094  1.0000
  S   S182      1.0  0.78111  0.96684  0.42550  1.0000
  H   H1118     1.0  0.70883  0.67602  0.62994  1.0000
  C   C1400     1.0  0.88662  0.98711  0.41994  1.0000
  C   C1401     1.0  0.87488  0.63071  0.60049  1.0000
  H   H1119     1.0  0.79015  0.71130  0.53610  1.0000
  H   H1120     1.0  0.65006  0.86116  0.56867  1.0000
  H   H1121     1.0  0.92511  0.85377  0.59687  1.0000
  C   C1402     1.0  0.91934  0.76485  0.61951  1.0000
  H   H1122     1.0  0.69661  0.62411  0.54233  1.0000
  C   C1403     1.0  0.57419  0.94861  0.55340  1.0000
  C   C1404     1.0  0.90143  0.88429  0.57969  1.0000
  C   C1405     1.0  0.60630  0.86691  0.49552  1.0000
  C   C1406     1.0  0.54918  0.02559  0.48836  1.0000
  Fe  Fe91      1.0  0.72576  0.94133  0.41258  1.0000
  P   P49       1.0  0.57856  0.85366  0.58344  1.0000
  H   H1123     1.0  0.94486  0.78348  0.47941  1.0000
  H   H1124     1.0  0.81990  0.58326  0.60643  1.0000
  Fe  Fe92      1.0  0.98455  0.94404  0.63457  1.0000
  C   C1407     1.0  0.70883  0.60401  0.44092  1.0000
  C   C1408     1.0  0.95820  0.61845  0.48330  1.0000
  C   C1409     1.0  0.83452  0.96103  0.56111  1.0000
  S   S183      1.0  0.64874  0.65018  0.43194  1.0000
  C   C1410     1.0  0.89914  0.67070  0.59086  1.0000
  C   C1411     1.0  0.99468  0.73937  0.48001  1.0000
  C   C1412     1.0  0.94581  0.91938  0.46074  1.0000
  H   H1125     1.0  0.99452  0.72131  0.45567  1.0000
  C   C1413     1.0  0.64714  0.87591  0.59535  1.0000
  C   C1414     1.0  0.62823  0.01123  0.43329  1.0000
  H   H1126     1.0  0.76237  0.73604  0.49588  1.0000
  C   C1415     1.0  0.82040  0.89951  0.45751  1.0000
  C   C1416     1.0  0.53785  0.93245  0.55258  1.0000
  C   C1417     1.0  0.82954  0.62971  0.47098  1.0000
  Fe  Fe93      1.0  0.78505  0.02352  0.41995  1.0000
  H   H1127     1.0  0.75311  0.83560  0.54052  1.0000
  C   C1418     1.0  0.77980  0.85213  0.51906  1.0000
  C   C1419     1.0  0.59315  0.84137  0.53293  1.0000
  C   C1420     1.0  0.53333  0.91674  0.45495  1.0000
  H   H1128     1.0  0.88379  0.61278  0.61159  1.0000
  H   H1129     1.0  0.65426  0.94622  0.43131  1.0000
  C   C1421     1.0  0.83884  0.61416  0.59796  1.0000
  C   C1422     1.0  0.73625  0.04323  0.58593  1.0000
  H   H1130     1.0  0.59320  0.97954  0.54467  1.0000
  C   C1423     1.0  0.58638  0.92488  0.56386  1.0000
  H   H1131     1.0  0.60715  0.77245  0.49083  1.0000
  H   H1132     1.0  0.93668  0.70801  0.50135  1.0000
  C   C1424     1.0  0.90064  0.85438  0.60164  1.0000
  H   H1133     1.0  0.82076  0.93362  0.58117  1.0000
  C   C1425     1.0  0.79747  0.71533  0.50171  1.0000
  P   P50       1.0  0.98882  0.59988  0.41042  1.0000
  H   H1134     1.0  0.99704  0.59375  0.56991  1.0000
  C   C1426     1.0  0.54402  0.89034  0.45802  1.0000
  C   C1427     1.0  0.82204  0.70590  0.47996  1.0000
  C   C1428     1.0  0.87029  0.03255  0.51044  1.0000
  C   C1429     1.0  0.85873  0.59454  0.47905  1.0000
  H   H1135     1.0  0.58513  0.78784  0.55966  1.0000
  H   H1136     1.0  0.76401  0.88061  0.48011  1.0000
  C   C1430     1.0  0.87873  0.80350  0.48918  1.0000
  S   S184      1.0  0.73062  0.58442  0.50488  1.0000
  C   C1431     1.0  0.69532  0.62301  0.50941  1.0000
  S   S185      1.0  0.69741  0.92994  0.48117  1.0000
  H   H1137     1.0  0.87168  0.91077  0.57108  1.0000
  C   C1432     1.0  0.84937  0.89694  0.46457  1.0000
  C   C1433     1.0  0.88761  0.69450  0.57804  1.0000
  H   H1138     1.0  0.82400  0.91812  0.43068  1.0000
  C   C1434     1.0  0.90853  0.80091  0.47041  1.0000
  C   C1435     1.0  0.54209  0.80955  0.61704  1.0000
  H   H1139     1.0  0.92162  0.81154  0.43706  1.0000
  C   C1436     1.0  0.61599  0.00513  0.39566  1.0000
  C   C1437     1.0  0.96594  0.77246  0.38928  1.0000
  C   C1438     1.0  0.02070  0.58387  0.40397  1.0000
  H   H1140     1.0  0.88611  0.04056  0.62378  1.0000
  P   P51       1.0  0.91891  0.74641  0.56875  1.0000
  H   H1141     1.0  0.80315  0.82823  0.55150  1.0000
  C   C1439     1.0  0.88921  0.02413  0.53375  1.0000
  H   H1142     1.0  0.88614  0.98139  0.57646  1.0000
  H   H1143     1.0  0.62840  0.03344  0.45139  1.0000
  H   H1144     1.0  0.75544  0.80478  0.62814  1.0000
  C   C1440     1.0  0.61836  0.85776  0.45664  1.0000
  C   C1441     1.0  0.77141  0.01555  0.59678  1.0000
  C   C1442     1.0  0.90373  0.76932  0.53740  1.0000
  H   H1145     1.0  0.99699  0.80230  0.56955  1.0000
  S   S186      1.0  0.76868  0.93738  0.54306  1.0000
  H   H1146     1.0  0.71505  0.98213  0.59509  1.0000
  H   H1147     1.0  0.71099  0.03866  0.58129  1.0000
  H   H1148     1.0  0.53862  0.00297  0.42986  1.0000
  H   H1149     1.0  0.97425  0.64811  0.46832  1.0000
  C   C1443     1.0  0.01421  0.65162  0.39470  1.0000
  H   H1150     1.0  0.54494  0.00317  0.62555  1.0000
  H   H1151     1.0  0.84106  0.69514  0.56790  1.0000
  C   C1444     1.0  0.01600  0.68648  0.58432  1.0000
  C   C1445     1.0  0.84284  0.87084  0.49844  1.0000
  H   H1152     1.0  0.69896  0.89110  0.60636  1.0000
  C   C1446     1.0  0.82986  0.60004  0.49225  1.0000
  H   H1153     1.0  0.85836  0.57079  0.49482  1.0000
  C   C1447     1.0  0.56206  0.88471  0.57420  1.0000
  C   C1448     1.0  0.02639  0.60816  0.56033  1.0000
  Fe  Fe94      1.0  0.75309  0.96005  0.49338  1.0000
  S   S187      1.0  0.96697  0.98080  0.60883  1.0000
  C   C1449     1.0  0.94318  0.80409  0.62217  1.0000
  H   H1154     1.0  0.90868  0.61322  0.43297  1.0000
  H   H1155     1.0  0.01225  0.77018  0.61938  1.0000
  H   H1156     1.0  0.60847  0.89452  0.49637  1.0000
  H   H1157     1.0  0.57146  0.90077  0.46027  1.0000
  C   C1450     1.0  0.71077  0.60571  0.48338  1.0000
  H   H1158     1.0  0.55231  0.94728  0.45512  1.0000
  C   C1451     1.0  0.79114  0.73436  0.43480  1.0000
  C   C1452     1.0  0.81516  0.72428  0.41305  1.0000
  H   H1159     1.0  0.81950  0.01247  0.49429  1.0000
  H   H1160     1.0  0.57808  0.03790  0.47801  1.0000
  C   C1453     1.0  0.78191  0.72939  0.47913  1.0000
  C   C1454     1.0  0.73844  0.01086  0.59368  1.0000
  S   S188      1.0  0.97691  0.64797  0.61851  1.0000
  H   H1161     1.0  0.92477  0.72458  0.43610  1.0000
  S   S189      1.0  0.76007  0.01855  0.48859  1.0000
  S   S190      1.0  0.66263  0.00103  0.48916  1.0000
  C   C1455     1.0  0.91327  0.57205  0.54355  1.0000
  H   H1162     1.0  0.86034  0.76151  0.58913  1.0000
  C   C1456     1.0  0.87154  0.98796  0.55832  1.0000
  H   H1163     1.0  0.88204  0.03705  0.41450  1.0000
  C   C1457     1.0  0.86902  0.82668  0.63100  1.0000
  C   C1458     1.0  0.96111  0.58920  0.46386  1.0000
  C   C1459     1.0  0.92840  0.93956  0.45732  1.0000
  C   C1460     1.0  0.59373  0.80728  0.53105  1.0000
  C   C1461     1.0  0.67641  0.63697  0.49343  1.0000
  C   C1462     1.0  0.90049  0.96574  0.39938  1.0000
  Fe  Fe95      1.0  0.70698  0.98911  0.47013  1.0000
  S   S191      1.0  0.00043  0.90993  0.59053  1.0000
  H   H1164     1.0  0.80690  0.58024  0.51782  1.0000
  C   C1463     1.0  0.60627  0.79847  0.49216  1.0000
  C   C1464     1.0  0.64249  0.99031  0.44587  1.0000
  H   H1165     1.0  0.86462  0.86792  0.50394  1.0000
  C   C1465     1.0  0.97408  0.93370  0.48167  1.0000
  C   C1466     1.0  0.92130  0.78436  0.49450  1.0000
  C   C1467     1.0  0.96202  0.73180  0.50628  1.0000
  C   C1468     1.0  0.89569  0.89008  0.39190  1.0000
  C   C1469     1.0  0.61854  0.82370  0.45496  1.0000
  H   H1166     1.0  0.98761  0.77850  0.40447  1.0000
  C   C1470     1.0  0.93037  0.74173  0.40690  1.0000
  S   S192      1.0  0.73266  0.99911  0.40066  1.0000
  H   H1167     1.0  0.90793  0.66483  0.39443  1.0000
  C   C1471     1.0  0.67497  0.89273  0.61683  1.0000
  H   H1168     1.0  0.78432  0.86109  0.39657  1.0000
  H   H1169     1.0  0.69082  0.61932  0.39134  1.0000
  H   H1170     1.0  0.81648  0.86328  0.62241  1.0000
  H   H1171     1.0  0.58263  0.56686  0.45328  1.0000
  C   C1472     1.0  0.02817  0.79234  0.51802  1.0000
  C   C1473     1.0  0.02771  0.77003  0.48543  1.0000
  C   C1474     1.0  0.86378  0.85551  0.38917  1.0000
  H   H1172     1.0  0.98965  0.05682  0.38620  1.0000
  H   H1173     1.0  0.02844  0.61143  0.49376  1.0000
  C   C1475     1.0  0.90245  0.73296  0.38654  1.0000
  C   C1476     1.0  0.74616  0.87591  0.38598  1.0000
  C   C1477     1.0  0.98621  0.76912  0.68340  1.0000
  Fe  Fe96      1.0  0.94516  0.58866  0.76750  1.0000
  C   C1478     1.0  0.95951  0.87115  0.83174  1.0000
  C   C1479     1.0  0.84070  0.94959  0.73981  1.0000
  H   H1174     1.0  0.81909  0.00439  0.64789  1.0000
  C   C1480     1.0  0.99126  0.78253  0.72249  1.0000
  C   C1481     1.0  0.57117  0.64286  0.78670  1.0000
  H   H1175     1.0  0.02273  0.94264  0.79935  1.0000
  H   H1176     1.0  0.91408  0.56821  0.67091  1.0000
  H   H1177     1.0  0.91683  0.80491  0.72811  1.0000
  C   C1482     1.0  0.53123  0.76683  0.83907  1.0000
  C   C1483     1.0  0.99914  0.84924  0.84190  1.0000
  C   C1484     1.0  0.74799  0.02652  0.85227  1.0000
  C   C1485     1.0  0.69846  0.97907  0.74192  1.0000
  S   S193      1.0  0.69086  0.69452  0.75238  1.0000
  C   C1486     1.0  0.86181  0.88314  0.85584  1.0000
  H   H1178     1.0  0.95912  0.74900  0.67967  1.0000
  H   H1179     1.0  0.94064  0.56764  0.87214  1.0000
  H   H1180     1.0  0.82717  0.05004  0.76659  1.0000
  C   C1487     1.0  0.77393  0.93047  0.72438  1.0000
  H   H1181     1.0  0.92540  0.03693  0.75704  1.0000
  S   S194      1.0  0.96291  0.95249  0.79423  1.0000
  Fe  Fe97      1.0  0.99837  0.02379  0.64973  1.0000
  C   C1488     1.0  0.54018  0.59386  0.86412  1.0000
  C   C1489     1.0  0.89468  0.99825  0.81504  1.0000
  H   H1182     1.0  0.76441  0.83041  0.83739  1.0000
  H   H1183     1.0  0.63992  0.93077  0.69047  1.0000
  H   H1184     1.0  0.01277  0.84358  0.86250  1.0000
  C   C1490     1.0  0.83292  0.93784  0.70092  1.0000
  C   C1491     1.0  0.71485  0.03541  0.77883  1.0000
  C   C1492     1.0  0.63555  0.02331  0.82774  1.0000
  H   H1185     1.0  0.59071  0.90142  0.65263  1.0000
  C   C1493     1.0  0.69926  0.70636  0.83305  1.0000
  H   H1186     1.0  0.80176  0.67813  0.65257  1.0000
  C   C1494     1.0  0.80487  0.76262  0.79601  1.0000
  H   H1187     1.0  0.88200  0.66313  0.88375  1.0000
  H   H1188     1.0  0.77008  0.82004  0.75565  1.0000
  H   H1189     1.0  0.94278  0.88266  0.84404  1.0000
  C   C1495     1.0  0.98746  0.85218  0.77259  1.0000
  S   S195      1.0  0.99548  0.61037  0.71592  1.0000
  C   C1496     1.0  0.90681  0.03112  0.78714  1.0000
  C   C1497     1.0  0.86822  0.65717  0.71162  1.0000
  H   H1190     1.0  0.67895  0.75656  0.77205  1.0000
  H   H1191     1.0  0.58325  0.66129  0.75649  1.0000
  H   H1192     1.0  0.57671  0.85462  0.75079  1.0000
  H   H1193     1.0  0.85885  0.96307  0.87417  1.0000
  C   C1498     1.0  0.73489  0.05122  0.86013  1.0000
  H   H1194     1.0  0.64493  0.03493  0.79453  1.0000
  C   C1499     1.0  0.85466  0.01245  0.86251  1.0000
  H   H1195     1.0  0.68218  0.79022  0.83626  1.0000
  C   C1500     1.0  0.86725  0.04568  0.83495  1.0000
  H   H1196     1.0  0.82249  0.61270  0.87259  1.0000
  C   C1501     1.0  0.85588  0.89286  0.81814  1.0000
  H   H1197     1.0  0.70400  0.68312  0.83290  1.0000
  H   H1198     1.0  0.88419  0.85023  0.77306  1.0000
  H   H1199     1.0  0.78997  0.00940  0.71953  1.0000
  H   H1200     1.0  0.76701  0.73901  0.75632  1.0000
  H   H1201     1.0  0.87263  0.65084  0.67961  1.0000
  C   C1502     1.0  0.66099  0.05558  0.70159  1.0000
  C   C1503     1.0  0.97065  0.04104  0.85594  1.0000
  C   C1504     1.0  0.72573  0.82602  0.66689  1.0000
  H   H1202     1.0  0.92443  0.68459  0.71286  1.0000
  Fe  Fe98      1.0  0.95660  0.66898  0.77125  1.0000
  H   H1203     1.0  0.55006  0.69316  0.84528  1.0000
  C   C1505     1.0  0.76557  0.80987  0.69100  1.0000
  H   H1204     1.0  0.81628  0.88060  0.78192  1.0000
  H   H1205     1.0  0.57936  0.00073  0.82839  1.0000
  H   H1206     1.0  0.68192  0.94808  0.74222  1.0000
  C   C1506     1.0  0.75791  0.82133  0.73052  1.0000
  Fe  Fe99      1.0  0.72653  0.91096  0.86314  1.0000
  H   H1207     1.0  0.60915  0.90685  0.79927  1.0000
  H   H1208     1.0  0.61539  0.02584  0.67305  1.0000
  H   H1209     1.0  0.73309  0.98915  0.68028  1.0000
  H   H1210     1.0  0.58398  0.77262  0.82423  1.0000
  C   C1507     1.0  0.59232  0.63457  0.80592  1.0000
  S   S196      1.0  0.92659  0.62037  0.73506  1.0000
  H   H1211     1.0  0.89672  0.58744  0.82621  1.0000
  H   H1212     1.0  0.89694  0.76567  0.88183  1.0000
  C   C1508     1.0  0.89270  0.75510  0.69540  1.0000
  S   S197      1.0  0.66172  0.60334  0.82844  1.0000
  H   H1213     1.0  0.94133  0.97892  0.86985  1.0000
  H   H1214     1.0  0.82041  0.96002  0.80147  1.0000
  C   C1509     1.0  0.81390  0.79481  0.72744  1.0000
  C   C1510     1.0  0.81454  0.95073  0.77150  1.0000
  C   C1511     1.0  0.56385  0.82949  0.77445  1.0000
  C   C1512     1.0  0.00384  0.84265  0.79931  1.0000
  C   C1513     1.0  0.82779  0.65382  0.77605  1.0000
  H   H1215     1.0  0.69365  0.92440  0.66818  1.0000
  C   C1514     1.0  0.64191  0.91536  0.66399  1.0000
  Fe  Fe100     1.0  0.97934  0.64692  0.68679  1.0000
  C   C1515     1.0  0.74920  0.81233  0.65925  1.0000
  H   H1216     1.0  0.61193  0.82702  0.76764  1.0000
  C   C1516     1.0  0.69186  0.71793  0.79773  1.0000
  Fe  Fe101     1.0  0.69785  0.64610  0.77016  1.0000
  H   H1217     1.0  0.96134  0.84864  0.66300  1.0000
  C   C1517     1.0  0.60823  0.89197  0.86380  1.0000
  H   H1218     1.0  0.87283  0.73607  0.72372  1.0000
  C   C1518     1.0  0.83329  0.64597  0.73417  1.0000
  C   C1519     1.0  0.97684  0.86318  0.85811  1.0000
  C   C1520     1.0  0.85716  0.67247  0.79523  1.0000
  C   C1521     1.0  0.66036  0.02815  0.85166  1.0000
  C   C1522     1.0  0.87331  0.04376  0.65439  1.0000
  H   H1219     1.0  0.02397  0.60221  0.82827  1.0000
  C   C1523     1.0  0.59608  0.90279  0.83241  1.0000
  S   S198      1.0  0.67528  0.85319  0.86776  1.0000
  Fe  Fe102     1.0  0.74643  0.61322  0.75322  1.0000
  H   H1220     1.0  0.79353  0.91930  0.66314  1.0000
  C   C1524     1.0  0.84041  0.04972  0.73478  1.0000
  C   C1525     1.0  0.91743  0.79383  0.69790  1.0000
  H   H1221     1.0  0.59459  0.60555  0.85882  1.0000
  H   H1222     1.0  0.63070  0.88779  0.85474  1.0000
  C   C1526     1.0  0.00450  0.03115  0.77882  1.0000
  C   C1527     1.0  0.59844  0.00416  0.84679  1.0000
  C   C1528     1.0  0.74998  0.04176  0.70804  1.0000
  C   C1529     1.0  0.78708  0.69242  0.65123  1.0000
  C   C1530     1.0  0.53996  0.80433  0.66063  1.0000
  C   C1531     1.0  0.79284  0.76313  0.75950  1.0000
  H   H1223     1.0  0.85542  0.06298  0.84287  1.0000
  S   S199      1.0  0.95015  0.99961  0.70482  1.0000
  C   C1532     1.0  0.69505  0.75544  0.87029  1.0000
  H   H1224     1.0  0.86669  0.95751  0.74544  1.0000
  P   P52       1.0  0.79833  0.79520  0.68024  1.0000
  C   C1533     1.0  0.85890  0.82565  0.76908  1.0000
  H   H1225     1.0  0.80081  0.64413  0.79439  1.0000
  C   C1534     1.0  0.96515  0.86608  0.78893  1.0000
  H   H1226     1.0  0.71389  0.82866  0.64195  1.0000
  C   C1535     1.0  0.72725  0.00216  0.70712  1.0000
  C   C1536     1.0  0.02118  0.78201  0.81276  1.0000
  S   S200      1.0  0.86378  0.93422  0.66108  1.0000
  Fe  Fe103     1.0  0.71301  0.61551  0.84425  1.0000
  H   H1227     1.0  0.74865  0.92421  0.71781  1.0000
  H   H1228     1.0  0.88942  0.89718  0.85941  1.0000
  C   C1537     1.0  0.68716  0.76699  0.83529  1.0000
  H   H1229     1.0  0.70067  0.84852  0.71214  1.0000
  C   C1538     1.0  0.84625  0.82675  0.73332  1.0000
  C   C1539     1.0  0.98152  0.73000  0.87102  1.0000
  C   C1540     1.0  0.83817  0.79361  0.80046  1.0000
  C   C1541     1.0  0.57714  0.61063  0.84463  1.0000
  C   C1542     1.0  0.56754  0.78297  0.81642  1.0000
  C   C1543     1.0  0.79160  0.84532  0.84260  1.0000
  H   H1230     1.0  0.99226  0.84955  0.73906  1.0000
  H   H1231     1.0  0.85266  0.67749  0.82780  1.0000
  H   H1232     1.0  0.67046  0.97697  0.80486  1.0000
  H   H1233     1.0  0.62050  0.64635  0.79062  1.0000
  C   C1544     1.0  0.78128  0.94137  0.76364  1.0000
  S   S201      1.0  0.69782  0.60152  0.73013  1.0000
  H   H1234     1.0  0.74129  0.00824  0.82749  1.0000
  H   H1235     1.0  0.87864  0.91427  0.79338  1.0000
  C   C1545     1.0  0.74746  0.72785  0.65161  1.0000
  H   H1236     1.0  0.55975  0.82653  0.67528  1.0000
  C   C1546     1.0  0.81914  0.02666  0.70803  1.0000
  C   C1547     1.0  0.53459  0.62722  0.80646  1.0000
  C   C1548     1.0  0.96213  0.00388  0.84746  1.0000
  S   S202      1.0  0.75054  0.94804  0.80006  1.0000
  C   C1549     1.0  0.61413  0.89883  0.64236  1.0000
  C   C1550     1.0  0.73447  0.83502  0.73806  1.0000
  S   S203      1.0  0.79685  0.62185  0.70980  1.0000
  C   C1551     1.0  0.98936  0.76250  0.84550  1.0000
  C   C1552     1.0  0.02636  0.80868  0.72761  1.0000
  C   C1553     1.0  0.74411  0.05831  0.74397  1.0000
  S   S204      1.0  0.97203  0.63530  0.80758  1.0000
  H   H1237     1.0  0.96777  0.77230  0.74880  1.0000
  C   C1554     1.0  0.86869  0.98892  0.85288  1.0000
  C   C1555     1.0  0.89350  0.74070  0.65644  1.0000
  S   S205      1.0  0.00887  0.69754  0.72119  1.0000
  H   H1238     1.0  0.66580  0.03211  0.70173  1.0000
  C   C1556     1.0  0.71831  0.83727  0.70633  1.0000
  C   C1557     1.0  0.00512  0.71654  0.86372  1.0000
  C   C1558     1.0  0.58365  0.81404  0.78411  1.0000
  P   P53       1.0  0.70842  0.05527  0.82698  1.0000
  C   C1559     1.0  0.83552  0.02359  0.66790  1.0000
  C   C1560     1.0  0.69213  0.99561  0.77756  1.0000
  C   C1561     1.0  0.67212  0.91190  0.65150  1.0000
  H   H1239     1.0  0.84750  0.79317  0.82862  1.0000
  H   H1240     1.0  0.60022  0.68925  0.86220  1.0000
  C   C1562     1.0  0.79944  0.92804  0.69338  1.0000
  C   C1563     1.0  0.79734  0.83578  0.88043  1.0000
  S   S206      1.0  0.92685  0.69760  0.79930  1.0000
  Fe  Fe104     1.0  0.92025  0.95403  0.66623  1.0000
  H   H1241     1.0  0.78822  0.73825  0.82093  1.0000
  Fe  Fe105     1.0  0.96831  0.96142  0.72445  1.0000
  C   C1564     1.0  0.56548  0.90580  0.84411  1.0000
  C   C1565     1.0  0.89182  0.68235  0.77299  1.0000
  C   C1566     1.0  0.89752  0.67608  0.73064  1.0000
  S   S207      1.0  0.71452  0.56836  0.81062  1.0000
  H   H1242     1.0  0.87349  0.71077  0.65543  1.0000
  C   C1567     1.0  0.79986  0.72896  0.66433  1.0000
  C   C1568     1.0  0.94258  0.81834  0.66128  1.0000
  Fe  Fe106     1.0  0.02171  0.65912  0.75412  1.0000
  C   C1569     1.0  0.01612  0.78125  0.64932  1.0000
  H   H1243     1.0  0.96968  0.77102  0.85020  1.0000
  H   H1244     1.0  0.72930  0.84449  0.76841  1.0000
  S   S208      1.0  0.54370  0.90981  0.80635  1.0000
  H   H1245     1.0  0.86145  0.85262  0.71048  1.0000
  H   H1246     1.0  0.73050  0.73970  0.65371  1.0000
  H   H1247     1.0  0.95308  0.87412  0.76814  1.0000
  H   H1248     1.0  0.82431  0.74221  0.67590  1.0000
  H   H1249     1.0  0.60991  0.58603  0.68734  1.0000
  C   C1570     1.0  0.70080  0.72495  0.86919  1.0000
  S   S209      1.0  0.93530  0.91376  0.68903  1.0000
  S   S210      1.0  0.01921  0.98910  0.67211  1.0000
  C   C1571     1.0  0.68530  0.74797  0.79904  1.0000
  S   S211      1.0  0.74900  0.66106  0.78830  1.0000
  C   C1572     1.0  0.97832  0.99889  0.80840  1.0000
  C   C1573     1.0  0.82080  0.87387  0.81152  1.0000
  H   H1250     1.0  0.86975  0.80495  0.64914  1.0000
  H   H1251     1.0  0.90506  0.97976  0.80672  1.0000
  C   C1574     1.0  0.78054  0.74741  0.66395  1.0000
  C   C1575     1.0  0.83768  0.82863  0.63856  1.0000
  C   C1576     1.0  0.77044  0.02544  0.87617  1.0000
  H   H1252     1.0  0.01747  0.02761  0.74870  1.0000
  H   H1253     1.0  0.78048  0.00635  0.86953  1.0000
  C   C1577     1.0  0.89409  0.05572  0.79736  1.0000
  C   C1578     1.0  0.63265  0.05208  0.68549  1.0000
  H   H1254     1.0  0.77328  0.05922  0.68172  1.0000
  H   H1255     1.0  0.78653  0.56958  0.77750  1.0000
  C   C1579     1.0  0.55995  0.70499  0.87282  1.0000
  H   H1256     1.0  0.99839  0.69064  0.88261  1.0000
  C   C1580     1.0  0.58826  0.70270  0.88223  1.0000
  C   C1581     1.0  0.73476  0.69126  0.63847  1.0000
  C   C1582     1.0  0.75466  0.67365  0.63802  1.0000
  C   C1583     1.0  0.68319  0.56959  0.02475  1.0000
  C   C1584     1.0  0.99519  0.95726  0.06345  1.0000
  C   C1585     1.0  0.75183  0.67856  0.10796  1.0000
  H   H1257     1.0  0.74312  0.95174  0.11241  1.0000
  H   H1258     1.0  0.79456  0.69152  0.98791  1.0000
  P   P54       1.0  0.71779  0.02940  0.08890  1.0000
  C   C1586     1.0  0.89766  0.03102  0.11927  1.0000
  H   H1259     1.0  0.53536  0.83338  0.06924  1.0000
  C   C1587     1.0  0.78307  0.68806  0.02152  1.0000
  C   C1588     1.0  0.99660  0.65653  0.04906  1.0000
  H   H1260     1.0  0.77727  0.90922  0.07560  1.0000
  H   H1261     1.0  0.80475  0.81577  0.11965  1.0000
  H   H1262     1.0  0.95614  0.76997  0.11028  1.0000
  C   C1589     1.0  0.02502  0.04415  0.92760  1.0000
  H   H1263     1.0  0.93594  0.97239  0.94479  1.0000
  H   H1264     1.0  0.62448  0.92728  0.10911  1.0000
  C   C1590     1.0  0.97720  0.93476  0.10327  1.0000
  C   C1591     1.0  0.77988  0.04889  0.90830  1.0000
  C   C1592     1.0  0.97572  0.61645  0.04933  1.0000
  H   H1265     1.0  0.84354  0.94310  0.07087  1.0000
  H   H1266     1.0  0.76291  0.01254  0.02239  1.0000
  C   C1593     1.0  0.80642  0.76164  0.92317  1.0000
  C   C1594     1.0  0.83855  0.73022  0.89591  1.0000
  C   C1595     1.0  0.54541  0.72373  0.89793  1.0000
  C   C1596     1.0  0.83394  0.94631  0.04408  1.0000
  H   H1267     1.0  0.62032  0.74409  0.12775  1.0000
  H   H1268     1.0  0.87947  0.92407  0.92600  1.0000
  H   H1269     1.0  0.54811  0.88679  0.95128  1.0000
  H   H1270     1.0  0.70531  0.62840  0.99876  1.0000
  H   H1271     1.0  0.61993  0.05618  0.10577  1.0000
  H   H1272     1.0  0.72489  0.80028  0.07999  1.0000
  C   C1597     1.0  0.79612  0.67694  0.05135  1.0000
  C   C1598     1.0  0.75460  0.83445  0.01890  1.0000
  H   H1273     1.0  0.95330  0.59932  0.07642  1.0000
  C   C1599     1.0  0.89791  0.86336  0.97233  1.0000
  H   H1274     1.0  0.63184  0.94647  0.97432  1.0000
  C   C1600     1.0  0.54444  0.82036  0.12853  1.0000
  H   H1275     1.0  0.55877  0.94532  0.06460  1.0000
  H   H1276     1.0  0.99012  0.66971  0.07558  1.0000
  H   H1277     1.0  0.78043  0.70257  0.91068  1.0000
  H   H1278     1.0  0.73891  0.84794  0.02055  1.0000
  H   H1279     1.0  0.02442  0.04725  0.99392  1.0000
  H   H1280     1.0  0.53485  0.80209  0.91776  1.0000
  H   H1281     1.0  0.67242  0.73472  0.12713  1.0000
  C   C1601     1.0  0.88399  0.95625  0.13134  1.0000
  C   C1602     1.0  0.82412  0.62371  0.90287  1.0000
  C   C1603     1.0  0.64941  0.96309  0.99486  1.0000
  H   H1282     1.0  0.91887  0.80944  0.01334  1.0000
  C   C1604     1.0  0.94057  0.74190  0.02412  1.0000
  H   H1283     1.0  0.80840  0.58523  0.03151  1.0000
  S   S212      1.0  0.00214  0.02869  0.13217  1.0000
  C   C1605     1.0  0.80946  0.02594  0.04525  1.0000
  H   H1284     1.0  0.68431  0.59402  0.12577  1.0000
  H   H1285     1.0  0.94833  0.04514  0.07735  1.0000
  C   C1606     1.0  0.74656  0.80735  0.05232  1.0000
  S   S213      1.0  0.90479  0.00076  0.00708  1.0000
  C   C1607     1.0  0.54778  0.97545  0.02107  1.0000
  C   C1608     1.0  0.81315  0.56664  0.09002  1.0000
  H   H1286     1.0  0.99680  0.03541  0.93218  1.0000
  H   H1287     1.0  0.79899  0.95843  0.94843  1.0000
  C   C1609     1.0  0.92567  0.94192  0.95187  1.0000
  C   C1610     1.0  0.88071  0.74778  0.02222  1.0000
  H   H1288     1.0  0.64576  0.01578  0.12103  1.0000
  H   H1289     1.0  0.76683  0.58647  0.93092  1.0000
  H   H1290     1.0  0.54994  0.63517  0.94625  1.0000
  H   H1291     1.0  0.80032  0.96680  0.12824  1.0000
  C   C1611     1.0  0.54931  0.90126  0.88711  1.0000
  C   C1612     1.0  0.87226  0.79757  0.90651  1.0000
  C   C1613     1.0  0.82750  0.03915  0.07778  1.0000
  H   H1292     1.0  0.97183  0.80412  0.01513  1.0000
  C   C1614     1.0  0.80886  0.95493  0.97489  1.0000
  C   C1615     1.0  0.56147  0.89089  0.91821  1.0000
  C   C1616     1.0  0.88045  0.87485  0.94950  1.0000
  H   H1293     1.0  0.96827  0.95208  0.98163  1.0000
  C   C1617     1.0  0.65475  0.99904  0.00328  1.0000
  C   C1618     1.0  0.94202  0.78435  0.12232  1.0000
  C   C1619     1.0  0.68853  0.96920  0.04057  1.0000
  C   C1620     1.0  0.82908  0.65094  0.98189  1.0000
  C   C1621     1.0  0.92966  0.89109  0.98372  1.0000
  C   C1622     1.0  0.58037  0.88307  0.08559  1.0000
  H   H1294     1.0  0.68075  0.57543  0.05725  1.0000
  S   S214      1.0  0.72097  0.63102  0.90896  1.0000
  H   H1295     1.0  0.55699  0.97423  0.90433  1.0000
  H   H1296     1.0  0.78083  0.76013  0.93331  1.0000
  Fe  Fe107     1.0  0.65349  0.87087  0.92578  1.0000
  H   H1297     1.0  0.86546  0.99137  0.94314  1.0000
  C   C1623     1.0  0.85876  0.97099  0.00736  1.0000
  C   C1624     1.0  0.87172  0.76454  0.89398  1.0000
  H   H1298     1.0  0.80747  0.87763  0.12352  1.0000
  C   C1625     1.0  0.85779  0.65221  0.90924  1.0000
  H   H1299     1.0  0.60040  0.75233  0.96725  1.0000
  H   H1300     1.0  0.58569  0.56790  0.02218  1.0000
  C   C1626     1.0  0.89376  0.91436  0.94086  1.0000
  S   S215      1.0  0.73820  0.91695  0.01980  1.0000
  C   C1627     1.0  0.79286  0.60893  0.93572  1.0000
  H   H1301     1.0  0.68022  0.04755  0.03649  1.0000
  H   H1302     1.0  0.77072  0.61022  0.00039  1.0000
  C   C1628     1.0  0.82760  0.63162  0.07083  1.0000
  C   C1629     1.0  0.02521  0.92194  0.09938  1.0000
  C   C1630     1.0  0.73837  0.68847  0.07796  1.0000
  C   C1631     1.0  0.84626  0.97386  0.97211  1.0000
  H   H1303     1.0  0.89812  0.82429  0.90323  1.0000
  C   C1632     1.0  0.90612  0.70847  0.02940  1.0000
  H   H1304     1.0  0.54184  0.57593  0.99462  1.0000
  S   S216      1.0  0.70304  0.92974  0.91896  1.0000
  H   H1305     1.0  0.90315  0.68048  0.03359  1.0000
  H   H1306     1.0  0.98414  0.97191  0.05016  1.0000
  C   C1633     1.0  0.75428  0.69370  0.03477  1.0000
  C   C1634     1.0  0.58991  0.88469  0.90666  1.0000
  P   P55       1.0  0.83201  0.66761  0.03326  1.0000
  C   C1635     1.0  0.63788  0.67416  0.12215  1.0000
  H   H1307     1.0  0.78985  0.66444  0.11884  1.0000
  H   H1308     1.0  0.73528  0.58486  0.12477  1.0000
  H   H1309     1.0  0.85350  0.04193  0.07487  1.0000
  H   H1310     1.0  0.93690  0.97970  0.08935  1.0000
  H   H1311     1.0  0.78940  0.86643  0.95842  1.0000
  C   C1636     1.0  0.69475  0.00577  0.04826  1.0000
  S   S217      1.0  0.69692  0.77756  0.91645  1.0000
  C   C1637     1.0  0.60210  0.89743  0.11471  1.0000
  H   H1312     1.0  0.76056  0.76899  0.07615  1.0000
  C   C1638     1.0  0.77896  0.04619  0.11655  1.0000
  S   S218      1.0  0.01895  0.75877  0.07028  1.0000
  C   C1639     1.0  0.02544  0.67979  0.01437  1.0000
  C   C1640     1.0  0.99233  0.91734  0.12179  1.0000
  C   C1641     1.0  0.55168  0.84451  0.09238  1.0000
  C   C1642     1.0  0.98362  0.59921  0.01482  1.0000
  C   C1643     1.0  0.58576  0.98897  0.88960  1.0000
  C   C1644     1.0  0.87586  0.71116  0.02892  1.0000
  C   C1645     1.0  0.94376  0.93040  0.97297  1.0000
  S   S219      1.0  0.57913  0.02108  0.03280  1.0000
  H   H1313     1.0  0.81001  0.78532  0.01289  1.0000
  Fe  Fe108     1.0  0.92553  0.06084  0.97812  1.0000
  C   C1646     1.0  0.56033  0.74097  0.93202  1.0000
  C   C1647     1.0  0.60208  0.71883  0.91693  1.0000
  H   H1314     1.0  0.70662  0.71568  0.89627  1.0000
  H   H1315     1.0  0.89040  0.73879  0.11385  1.0000
  H   H1316     1.0  0.58596  0.90165  0.05744  1.0000
  C   C1648     1.0  0.90506  0.76695  0.12400  1.0000
  H   H1317     1.0  0.66576  0.01368  0.91280  1.0000
  H   H1318     1.0  0.55102  0.75710  0.95103  1.0000
  H   H1319     1.0  0.64086  0.01032  0.99008  1.0000
  C   C1649     1.0  0.76665  0.78977  0.05005  1.0000
  C   C1650     1.0  0.78299  0.84447  0.98337  1.0000
  H   H1320     1.0  0.94318  0.88231  0.00129  1.0000
  H   H1321     1.0  0.95171  0.93134  0.11968  1.0000
  Fe  Fe109     1.0  0.69761  0.83248  0.91049  1.0000
  H   H1322     1.0  0.71548  0.69186  0.08812  1.0000
  H   H1323     1.0  0.60536  0.61248  0.12543  1.0000
  C   C1651     1.0  0.00113  0.56834  0.13307  1.0000
  Fe  Fe110     1.0  0.72186  0.90201  0.95839  1.0000
  H   H1324     1.0  0.62674  0.67923  0.09781  1.0000
  C   C1652     1.0  0.94515  0.77828  0.01827  1.0000
  H   H1325     1.0  0.98958  0.83338  0.13474  1.0000
  H   H1326     1.0  0.53088  0.99701  0.97559  1.0000
  H   H1327     1.0  0.97343  0.86845  0.89090  1.0000
  C   C1653     1.0  0.69726  0.59956  0.99167  1.0000
  C   C1654     1.0  0.70122  0.59237  0.94944  1.0000
  H   H1328     1.0  0.86824  0.59254  0.89700  1.0000
  C   C1655     1.0  0.77575  0.02194  0.04864  1.0000
  H   H1329     1.0  0.01931  0.61037  0.95299  1.0000
  C   C1656     1.0  0.79524  0.62250  0.97509  1.0000
  C   C1657     1.0  0.79462  0.79911  0.01417  1.0000
  C   C1658     1.0  0.54271  0.94240  0.04227  1.0000
  S   S220      1.0  0.59962  0.86479  0.94627  1.0000
  C   C1659     1.0  0.80604  0.72894  0.91010  1.0000
  C   C1660     1.0  0.78057  0.67279  0.09481  1.0000
  C   C1661     1.0  0.02785  0.96166  0.04133  1.0000
  S   S221      1.0  0.67049  0.84433  0.96889  1.0000
  H   H1330     1.0  0.62394  0.71694  0.92423  1.0000
  H   H1331     1.0  0.96372  0.73960  0.02494  1.0000
  H   H1332     1.0  0.66146  0.91988  0.00790  1.0000
  C   C1662     1.0  0.81558  0.59391  0.06125  1.0000
  H   H1333     1.0  0.95628  0.71421  0.89520  1.0000
  H   H1334     1.0  0.74378  0.70127  0.01141  1.0000
  C   C1663     1.0  0.60995  0.99163  0.91302  1.0000
  H   H1335     1.0  0.59954  0.97849  0.94581  1.0000
  S   S222      1.0  0.75060  0.88897  0.90193  1.0000
  H   H1336     1.0  0.85792  0.75056  0.02097  1.0000
  C   C1664     1.0  0.86037  0.66577  0.94856  1.0000
  C   C1665     1.0  0.83955  0.79614  0.92190  1.0000
  C   C1666     1.0  0.91525  0.78121  0.01734  1.0000
  C   C1667     1.0  0.79658  0.92772  0.04701  1.0000
  C   C1668     1.0  0.83767  0.64157  0.10944  1.0000
  H   H1337     1.0  0.88685  0.68740  0.95269  1.0000
  H   H1338     1.0  0.90323  0.06015  0.11486  1.0000
  P   P56       1.0  0.83956  0.83905  0.93482  1.0000
  C   C1669     1.0  0.64727  0.01138  0.89421  1.0000
  C   C1670     1.0  0.82224  0.57642  0.12870  1.0000
  H   H1339     1.0  0.84768  0.67060  0.11726  1.0000
  H   H1340     1.0  0.77432  0.81307  0.90377  1.0000
  C   C1671     1.0  0.01283  0.62287  0.98013  1.0000
  H   H1341     1.0  0.83410  0.00522  0.89133  1.0000
  C   C1672     1.0  0.80256  0.82607  0.98024  1.0000
  H   H1342     1.0  0.79772  0.04851  0.92647  1.0000
  H   H1343     1.0  0.82199  0.01947  0.01695  1.0000
  H   H1344     1.0  0.94982  0.58565  0.94292  1.0000
  C   C1673     1.0  0.92332  0.02280  0.09866  1.0000
  C   C1674     1.0  0.67735  0.02032  0.02972  1.0000
  C   C1675     1.0  0.78418  0.93366  0.01313  1.0000
  H   H1345     1.0  0.88677  0.83302  0.98158  1.0000
  H   H1346     1.0  0.70032  0.95654  0.05593  1.0000
  C   C1676     1.0  0.66622  0.94815  0.01367  1.0000
  C   C1677     1.0  0.91663  0.98559  0.10503  1.0000
  C   C1678     1.0  0.58845  0.73835  0.94149  1.0000
  C   C1679     1.0  0.81249  0.04971  0.11329  1.0000
  C   C1680     1.0  0.75977  0.03110  0.08496  1.0000
  H   H1347     1.0  0.95734  0.04453  0.88570  1.0000
  H   H1348     1.0  0.83787  0.70467  0.88582  1.0000
  C   C1681     1.0  0.83239  0.85495  0.88769  1.0000
  S   S223      1.0  0.78591  0.81298  0.33398  1.0000
  H   H1349     1.0  0.69615  0.06428  0.35615  1.0000
  S   S224      1.0  0.54889  0.98754  0.25818  1.0000
  C   C1682     1.0  0.82285  0.94555  0.23968  1.0000
  Fe  Fe111     1.0  0.93895  0.73006  0.21683  1.0000
  H   H1350     1.0  0.60818  0.94509  0.24024  1.0000
  H   H1351     1.0  0.71469  0.98448  0.16359  1.0000
  H   H1352     1.0  0.66669  0.94823  0.22884  1.0000
  C   C1683     1.0  0.59019  0.59888  0.26528  1.0000
  H   H1353     1.0  0.57499  0.87082  0.24752  1.0000
  C   C1684     1.0  0.73971  0.04017  0.26739  1.0000
  H   H1354     1.0  0.95655  0.87826  0.32064  1.0000
  C   C1685     1.0  0.83359  0.97988  0.31439  1.0000
  H   H1355     1.0  0.86824  0.69111  0.19600  1.0000
  C   C1686     1.0  0.86328  0.98733  0.28230  1.0000
  H   H1356     1.0  0.88318  0.92809  0.28720  1.0000
  C   C1687     1.0  0.61813  0.97812  0.37081  1.0000
  C   C1688     1.0  0.89901  0.83724  0.33876  1.0000
  C   C1689     1.0  0.72823  0.96604  0.26108  1.0000
  C   C1690     1.0  0.71613  0.57954  0.15450  1.0000
  C   C1691     1.0  0.59168  0.76914  0.16101  1.0000
  H   H1357     1.0  0.82638  0.57459  0.33699  1.0000
  P   P57       1.0  0.55572  0.80240  0.20440  1.0000
  H   H1358     1.0  0.89951  0.83997  0.23713  1.0000
  H   H1359     1.0  0.94017  0.97856  0.23631  1.0000
  C   C1692     1.0  0.76440  0.83878  0.34184  1.0000
  C   C1693     1.0  0.81412  0.88184  0.18794  1.0000
  H   H1360     1.0  0.77127  0.99266  0.20416  1.0000
  C   C1694     1.0  0.56671  0.58913  0.30546  1.0000
  H   H1361     1.0  0.73955  0.67456  0.14155  1.0000
  C   C1695     1.0  0.84274  0.65105  0.29299  1.0000
  H   H1362     1.0  0.85959  0.65185  0.26329  1.0000
  S   S225      1.0  0.95114  0.06399  0.21675  1.0000
  H   H1363     1.0  0.80889  0.78389  0.18194  1.0000
  C   C1696     1.0  0.58611  0.82516  0.23908  1.0000
  H   H1364     1.0  0.59757  0.97796  0.18571  1.0000
  H   H1365     1.0  0.74126  0.86711  0.22440  1.0000
  H   H1366     1.0  0.96210  0.57552  0.26896  1.0000
  C   C1697     1.0  0.62332  0.97976  0.18090  1.0000
  H   H1367     1.0  0.78140  0.05730  0.20924  1.0000
  C   C1698     1.0  0.93937  0.89829  0.20590  1.0000
  C   C1699     1.0  0.83988  0.74509  0.25001  1.0000
  H   H1368     1.0  0.93467  0.96514  0.34154  1.0000
  C   C1700     1.0  0.56591  0.68001  0.26281  1.0000
  C   C1701     1.0  0.76027  0.03383  0.23311  1.0000
  H   H1369     1.0  0.89999  0.81737  0.31731  1.0000
  H   H1370     1.0  0.82110  0.72725  0.37867  1.0000
  S   S226      1.0  0.65961  0.66068  0.30496  1.0000
  C   C1702     1.0  0.93084  0.87177  0.34054  1.0000
  C   C1703     1.0  0.77524  0.94276  0.14730  1.0000
  H   H1371     1.0  0.56518  0.67795  0.13855  1.0000
  C   C1704     1.0  0.94581  0.78714  0.33187  1.0000
  C   C1705     1.0  0.56318  0.70165  0.15053  1.0000
  C   C1706     1.0  0.01672  0.70926  0.36884  1.0000
  C   C1707     1.0  0.59422  0.73879  0.14468  1.0000
  C   C1708     1.0  0.86512  0.00191  0.14605  1.0000
  H   H1372     1.0  0.92074  0.06139  0.34152  1.0000
  C   C1709     1.0  0.79910  0.64703  0.37041  1.0000
  Fe  Fe112     1.0  0.67615  0.68052  0.36552  1.0000
  Fe  Fe113     1.0  0.99445  0.73510  0.13944  1.0000
  Fe  Fe114     1.0  0.74088  0.75754  0.32110  1.0000
  Fe  Fe115     1.0  0.71903  0.68683  0.27662  1.0000
  C   C1710     1.0  0.99831  0.66899  0.37767  1.0000
  C   C1711     1.0  0.70746  0.97199  0.29501  1.0000
  S   S227      1.0  0.73459  0.70112  0.33874  1.0000
  H   H1373     1.0  0.63865  0.81144  0.29206  1.0000
  C   C1712     1.0  0.59522  0.87328  0.15068  1.0000
  C   C1713     1.0  0.79849  0.95576  0.30901  1.0000
  H   H1374     1.0  0.95415  0.92464  0.36830  1.0000
  C   C1714     1.0  0.62920  0.96091  0.21145  1.0000
  C   C1715     1.0  0.86286  0.73245  0.23256  1.0000
  H   H1375     1.0  0.57259  0.68096  0.22874  1.0000
  C   C1716     1.0  0.99485  0.85437  0.21963  1.0000
  C   C1717     1.0  0.81072  0.81138  0.18326  1.0000
  H   H1376     1.0  0.99072  0.99750  0.37484  1.0000
  H   H1377     1.0  0.56243  0.61069  0.32000  1.0000
  H   H1378     1.0  0.80013  0.02998  0.32987  1.0000
  C   C1718     1.0  0.81497  0.82871  0.22038  1.0000
  H   H1379     1.0  0.64650  0.87140  0.31949  1.0000
  C   C1719     1.0  0.86558  0.82911  0.36314  1.0000
  C   C1720     1.0  0.77520  0.91908  0.17888  1.0000
  C   C1721     1.0  0.60362  0.80814  0.25278  1.0000
  C   C1722     1.0  0.83308  0.56915  0.30500  1.0000
  C   C1723     1.0  0.91535  0.03487  0.35772  1.0000
  C   C1724     1.0  0.92927  0.89806  0.36712  1.0000
  H   H1380     1.0  0.95172  0.80404  0.30224  1.0000
  H   H1381     1.0  0.73828  0.81832  0.29017  1.0000
  C   C1725     1.0  0.82631  0.05405  0.31287  1.0000
  C   C1726     1.0  0.79057  0.69172  0.22642  1.0000
  C   C1727     1.0  0.79303  0.93841  0.27197  1.0000
  H   H1382     1.0  0.72397  0.93753  0.25919  1.0000
  C   C1728     1.0  0.85039  0.70073  0.20976  1.0000
  H   H1383     1.0  0.89156  0.83617  0.16410  1.0000
  C   C1729     1.0  0.87873  0.57959  0.24182  1.0000
  C   C1730     1.0  0.88759  0.88102  0.26434  1.0000
  H   H1384     1.0  0.77558  0.95142  0.33320  1.0000
  Fe  Fe116     1.0  0.95195  0.66437  0.20652  1.0000
  H   H1385     1.0  0.67788  0.65649  0.20950  1.0000
  H   H1386     1.0  0.55121  0.80189  0.33207  1.0000
  C   C1731     1.0  0.89900  0.91995  0.26463  1.0000
  H   H1387     1.0  0.80357  0.65434  0.19150  1.0000
  Fe  Fe117     1.0  0.56209  0.98286  0.31995  1.0000
  C   C1732     1.0  0.85869  0.66927  0.32573  1.0000
  C   C1733     1.0  0.97372  0.58381  0.33084  1.0000
  P   P58       1.0  0.96767  0.88520  0.17111  1.0000
  P   P59       1.0  0.62303  0.58114  0.19289  1.0000
  C   C1734     1.0  0.90582  0.82175  0.15325  1.0000
  H   H1388     1.0  0.63373  0.04185  0.22584  1.0000
  C   C1735     1.0  0.59326  0.70287  0.28349  1.0000
  C   C1736     1.0  0.02031  0.85692  0.24094  1.0000
  H   H1389     1.0  0.61425  0.90073  0.29751  1.0000
  C   C1737     1.0  0.95079  0.56960  0.30296  1.0000
  C   C1738     1.0  0.83764  0.05672  0.26869  1.0000
  C   C1739     1.0  0.93089  0.94820  0.23611  1.0000
  C   C1740     1.0  0.80390  0.72489  0.24670  1.0000
  S   S228      1.0  0.63828  0.73181  0.25450  1.0000
  H   H1390     1.0  0.88905  0.75049  0.33350  1.0000
  H   H1391     1.0  0.60009  0.78149  0.24225  1.0000
  C   C1741     1.0  0.94258  0.83854  0.15360  1.0000
  C   C1742     1.0  0.83703  0.66832  0.36426  1.0000
  C   C1743     1.0  0.78320  0.62896  0.33755  1.0000
  S   S229      1.0  0.95197  0.69882  0.26022  1.0000
  C   C1744     1.0  0.76718  0.85942  0.37635  1.0000
  H   H1392     1.0  0.70229  0.84908  0.30613  1.0000
  S   S230      1.0  0.92434  0.59970  0.21492  1.0000
  H   H1393     1.0  0.61298  0.88494  0.17209  1.0000
  C   C1745     1.0  0.81653  0.86378  0.22291  1.0000
  H   H1394     1.0  0.89092  0.60400  0.29937  1.0000
  H   H1395     1.0  0.98328  0.60713  0.15226  1.0000
  C   C1746     1.0  0.61166  0.87514  0.28452  1.0000
  C   C1747     1.0  0.62540  0.82491  0.28152  1.0000
  H   H1396     1.0  0.00145  0.81802  0.33712  1.0000
  C   C1748     1.0  0.85748  0.96395  0.15124  1.0000
  H   H1397     1.0  0.01783  0.83086  0.25393  1.0000
  Fe  Fe118     1.0  0.53461  0.02981  0.28479  1.0000
  C   C1749     1.0  0.54910  0.67626  0.35122  1.0000
  H   H1398     1.0  0.97179  0.65156  0.37101  1.0000
  H   H1399     1.0  0.84211  0.62155  0.16838  1.0000
  H   H1400     1.0  0.68722  0.03965  0.23244  1.0000
  C   C1750     1.0  0.65278  0.06260  0.24244  1.0000
  C   C1751     1.0  0.86970  0.58609  0.28351  1.0000
  H   H1401     1.0  0.97618  0.95957  0.18613  1.0000
  C   C1752     1.0  0.80504  0.63118  0.29875  1.0000
  C   C1753     1.0  0.67827  0.69890  0.16956  1.0000
  C   C1754     1.0  0.56596  0.83462  0.15816  1.0000
  H   H1402     1.0  0.82067  0.03427  0.25182  1.0000
  C   C1755     1.0  0.58489  0.70104  0.32766  1.0000
  C   C1756     1.0  0.68417  0.00369  0.13788  1.0000
  S   S231      1.0  0.99690  0.77427  0.18779  1.0000
  C   C1757     1.0  0.52949  0.69491  0.17229  1.0000
  C   C1758     1.0  0.02812  0.92407  0.20499  1.0000
  C   C1759     1.0  0.72315  0.87265  0.36037  1.0000
  C   C1760     1.0  0.68961  0.98391  0.16822  1.0000
  C   C1761     1.0  0.81404  0.68018  0.20685  1.0000
  S   S232      1.0  0.72965  0.74515  0.25719  1.0000
  H   H1403     1.0  0.88181  0.97672  0.22098  1.0000
  H   H1404     1.0  0.60348  0.62802  0.24934  1.0000
  S   S233      1.0  0.68333  0.73830  0.35211  1.0000
  H   H1405     1.0  0.89039  0.00784  0.28515  1.0000
  H   H1406     1.0  0.61602  0.79776  0.15622  1.0000
  H   H1407     1.0  0.75395  0.61286  0.34217  1.0000
  H   H1408     1.0  0.68397  0.85272  0.20829  1.0000
  H   H1409     1.0  0.78640  0.73463  0.26097  1.0000
  S   S234      1.0  0.74417  0.66372  0.22827  1.0000
  S   S235      1.0  0.55281  0.02902  0.34430  1.0000
  C   C1762     1.0  0.58965  0.85829  0.25597  1.0000
  C   C1763     1.0  0.85807  0.96992  0.24544  1.0000
  C   C1764     1.0  0.55808  0.76250  0.18371  1.0000
  C   C1765     1.0  0.66672  0.66114  0.18490  1.0000
  H   H1410     1.0  0.00505  0.72257  0.35422  1.0000
  C   C1766     1.0  0.99923  0.88788  0.20037  1.0000
  C   C1767     1.0  0.80808  0.82913  0.14842  1.0000
  S   S236      1.0  0.70015  0.89697  0.36965  1.0000
  C   C1768     1.0  0.75453  0.99693  0.23002  1.0000
  H   H1411     1.0  0.01384  0.93939  0.31541  1.0000
  S   S237      1.0  0.90641  0.75609  0.24140  1.0000
  H   H1412     1.0  0.63003  0.57368  0.38105  1.0000
  C   C1769     1.0  0.68703  0.58437  0.15512  1.0000
  S   S238      1.0  0.93475  0.69278  0.16512  1.0000
  H   H1413     1.0  0.53478  0.73421  0.34490  1.0000
  C   C1770     1.0  0.90803  0.87018  0.23571  1.0000
  H   H1414     1.0  0.81641  0.81449  0.24751  1.0000
  C   C1771     1.0  0.68303  0.06137  0.24645  1.0000
  H   H1415     1.0  0.86293  0.85924  0.28667  1.0000
  S   S239      1.0  0.60673  0.97244  0.32162  1.0000
  H   H1416     1.0  0.81929  0.87641  0.25223  1.0000
  C   C1772     1.0  0.74083  0.83479  0.31661  1.0000
  C   C1773     1.0  0.72016  0.85175  0.32589  1.0000
  H   H1417     1.0  0.63233  0.93504  0.36565  1.0000
  H   H1418     1.0  0.60608  0.71865  0.34368  1.0000
  P   P60       1.0  0.81710  0.92758  0.18931  1.0000
  C   C1774     1.0  0.97373  0.79494  0.35150  1.0000
  H   H1419     1.0  0.69624  0.01248  0.32443  1.0000
  H   H1420     1.0  0.79262  0.61670  0.27350  1.0000
  C   C1775     1.0  0.70934  0.87821  0.19167  1.0000
  H   H1421     1.0  0.84948  0.76978  0.26731  1.0000
  C   C1776     1.0  0.92283  0.98016  0.35808  1.0000
  C   C1777     1.0  0.59563  0.57097  0.24615  1.0000
  C   C1778     1.0  0.63117  0.95633  0.38435  1.0000
  H   H1422     1.0  0.88782  0.68414  0.32085  1.0000
  H   H1423     1.0  0.68754  0.94825  0.31955  1.0000
  H   H1424     1.0  0.84074  0.80291  0.36069  1.0000
  C   C1779     1.0  0.95112  0.93738  0.20721  1.0000
  C   C1780     1.0  0.70965  0.90212  0.16041  1.0000
  S   S240      1.0  0.01157  0.70399  0.17678  1.0000
  C   C1781     1.0  0.91026  0.75654  0.34953  1.0000
  C   C1782     1.0  0.64003  0.62957  0.16965  1.0000
  C   C1783     1.0  0.66142  0.57641  0.19326  1.0000
  Fe  Fe119     1.0  0.67147  0.72055  0.28936  1.0000
  C   C1784     1.0  0.95910  0.57782  0.37483  1.0000
  C   C1785     1.0  0.80957  0.86413  0.15078  1.0000
  C   C1786     1.0  0.62972  0.85859  0.29706  1.0000
  H   H1425     1.0  0.76562  0.92009  0.26866  1.0000
  H   H1426     1.0  0.83786  0.99413  0.34262  1.0000
  C   C1787     1.0  0.74194  0.88648  0.20071  1.0000
  C   C1788     1.0  0.71284  0.00871  0.29793  1.0000
  Fe  Fe120     1.0  0.00998  0.74087  0.22715  1.0000
  H   H1427     1.0  0.97213  0.82626  0.21766  1.0000
  C   C1789     1.0  0.93078  0.01496  0.33777  1.0000
  C   C1790     1.0  0.66225  0.96286  0.20505  1.0000
  H   H1428     1.0  0.84638  0.00933  0.16344  1.0000
  H   H1429     1.0  0.00271  0.60049  0.31783  1.0000
  H   H1430     1.0  0.94886  0.02671  0.30637  1.0000
  C   C1791     1.0  0.72057  0.56794  0.19225  1.0000
  H   H1431     1.0  0.69787  0.72307  0.18262  1.0000
  H   H1432     1.0  0.68454  0.89524  0.15260  1.0000
  C   C1792     1.0  0.53030  0.65429  0.28648  1.0000
  H   H1433     1.0  0.02062  0.04768  0.21292  1.0000
  H   H1434     1.0  0.00241  0.89093  0.37324  1.0000
  H   H1435     1.0  0.76823  0.05603  0.14316  1.0000
  C   C1793     1.0  0.65076  0.00130  0.14442  1.0000
  H   H1436     1.0  0.54273  0.67482  0.38542  1.0000
  H   H1437     1.0  0.60628  0.02238  0.38514  1.0000
  C   C1794     1.0  0.96083  0.82020  0.13660  1.0000
  C   C1795     1.0  0.62589  0.63630  0.13783  1.0000
  C   C1796     1.0  0.88705  0.78581  0.13893  1.0000
  C   C1797     1.0  0.74261  0.93426  0.13814  1.0000
  C   C1798     1.0  0.83469  0.61394  0.13842  1.0000
  C   C1799     1.0  0.66374  0.70542  0.13839  1.0000
  H   H1438     1.0  0.82736  0.06150  0.13768  1.0000
  H   H1439     1.0  0.85835  0.77211  0.14032  1.0000
  C   C1800     1.0  0.00590  0.60471  0.13640  1.0000
  H   H1440     1.0  0.88006  0.92799  0.13640  1.0000
