data_image0
_chemical_formula_structural       CSC3SHCH3C5HCSC2HCHC3PCH3CH2CH5CH4CHC2PH2C4H4SCHC3H2C3HC4H2C2H2CH2C3H2CHC6SH2C4HC2HPSH2C2H8C3HSHC9HC2H2CFeC2H2SH2C2H3CHFeHCPHC2HC2H2FeCHCHFeHCH2SCH2CHC6PSFeH2PHC2HCFeC3H2CHC3HC4H5C3SH2C5SHCHSH4C3HC4HC2FeH2CH3SC4H2C3SPCFeHC3SHCHC2SC2HC2HCHC5HC2H2C2HSCSCSH2CHCSCHC3H3CHC2HCHCH3C3H3CHCHSH3CHC2HC4HCHC2H2C2PCPH4SHCHC5H6C5SH2C2SHC2H2C2H3CHCHC5HCH3C5H2CHCHC4H2C3FePHC3HC2HC2H4C5HCH2C2HCH2C3SC4HCHC2H5SC2FeH2C4HCH3C2HC2HC2SC6H3CH3SCFeH2C3HC5HC3HCHCH4SHCH2CHCSFeHFeCH6C2H4C2HCH4C3FeC3H2SC2SH2SC2HFeHSHC2PC3HCHCH2SHC3HC6HC2HCH3S2HSPC2HCSFeH2CHC3HPC2HC4SC2H2CFeCHC3HC4FeHC3HC2SCHC2H4C2SHCFeH3CH3PHCHC4HC3HSCH2CH2C2PHCHCHC2H2C3H3C2HC2H2FeC3HCH3C2HCHCFeHC2H2SC2H6CHC2HCSH3FeHCHCSCSHFeSCSHC5HFeC4HC4SPCHSC3HC2HCFeC4H2CSC5HCH5CHC3HCSHC3HC2HSC3H3C2H6CH8CH5FeSH3SC4H3FeHCHC3FeSC4H4SHCSCHCHC2HSC3PC3PH5CHFeC3HCHC3FeC3HCHCHC4HSC3HCFeH2C4H2SC2SC3SC2HCHSC2H4CH2C3HC7SHCH5C3H4C3HC4H4FeC2HC2H3C11FeC3SHC4H2C2SC2PCH2C2H3CHCHC2HCHCHSCPCH4C3H2C5H3C2H2C2HCSHFeCFeHSH3C2HC2H2C2H3SC3HC2HCSCFeC4HC2H2C2HC2HSC3HCHC2H2CSCH7C2FeH2C4H2C3SC2HCH2C3SHC2FeHCH4CHCHCH2C2HCH2C2H2CH2CHC4HC5H2S2H2CHC2HCH2CHCPHSHC4HC2H5C4H2SC5H2CPHC3SHSH3C5HC4S2CH2C2H2SHCSH2C2SCFeC2HC4HCH4CHC7FeC2HFeC2H2CH2SHCH3CH3CHCHC3PHCSCHC3HC2H2CHCHCHCFeHFeHCHCSH2CHC2HCSCHCHC7H2C6HC5HCHC4PHC4H3CSHCHC3H4CHCHCPCH3C3HC3H5C2H2CH2C3HSC2PC2H3C3HCHCHCH2CHFeCHC3HCHC2H2CHSH2C2FeH2C6H3CHCHCHCHCH2C2SC2HPHCFeSHC2H2C3H2C2HSC4HCH2PCHC3HFeHCHCH3CHC2H3CHFeCFeSCH2C2HFeHCPHCFeHCHCHCH2C4H2FeC2SCHSC2FeC2HSCSC4H2SFeHC5HC2FeHC2H2CHC3SHC2H2C2HCH2C4HCS2HC2HS2HC2S2H2C2PCHC2HCHC2HCHCH2C2HSC2SHCSH2CSFeCHC3H3CHCHSCHPC3H2CH3C3HC2H4CHC3SH2CH2S2C3PH3CFeC3SCH2C2HC3HCH2PHC2HFeH2C3HSCHCHC2FeCHC2HFeC3HSC2HCH2C2HC3HCHCHCHC3H2CHCHC3H2SC2H2CHC3HS2HSH2CHC2FeCH2C2H2C2HC5H2C2H3C2H2CHCH2SC2PH2CH2C2HCFeHFe2HCSH2CHFeSHSHC2FeCHCHCHC2H2C3HS2HFeSH3S2C2HFeCH2CHC4H2CHCH2CPC4HC5SC3H3SH2C4HC2H2S2FeC3HCH2C4HPHC2HC3H2SC2H3SH2C4HCHCHCHC4HCSHCH2C4HC4HC2H4CHSH2CFeHCH8C2H4CHFeC2HC2HCHCHC3HC2H5C2H2CHCSC2FeCHCHCHC2HCHCHSCHPHC4H3SHC2FeSCH2C2HFeCH2FeC11SCFeHSCHFeHC2SCHS3HCFeCH2SCH2C2HSC5HFeH2CHCH2CH3SHC2H2C2HSC5HP2CSHCH2CH3C2HCH3CHCSH4C3H2C3H2C2HC2HCH2CHCPSC5H2C2FeHC2H2C2HC3SHC3HCFeHC2SCHC2SHC2HC2H2C2H2SHCHCH4CHCSHC4H2CH2CHCSCHSCHCH2C3FeCH2C3FeC4H3C2SHSCH3CH2C5HC2H3PH2CFeC2H5C4HC2HC3HPC5SHFeHCH3C2H2C2H3CHSC2SHCHCH3CHFeHSFeC3SHC3SCSH2C2H3CH2CSH2C6HCFeHSH2C2H2CH3CHPFeHC3H2C6H4CH2CHC2HCHCHSH2C2PCHC5HPC7FeH4CH2CHCHC2HCH3CHC4H2C3H2C2HSHC5HC3H3CFeHSCHC3HCHC2H2CSC3HCHCHC2H2C2SHSCSFeH4C9H2C2FeHCHC2HCSCH3C2HC2HFeC3HSHC2H4C5HCHCH2C2HCHPH3C3H2FeCFeHCHCSPCH2C2H4C2HCH2C3SC2HC2SCPHCHSH4C2H3CH2C
_chemical_formula_sum              "C1440 S192 H1152 P48 Fe96"
_cell_length_a       38.2565
_cell_length_b       38.2851
_cell_length_c       32.058
_cell_angle_alpha    81.1386
_cell_angle_beta     85.6919
_cell_angle_gamma    119.679

_space_group_name_H-M_alt    "P 1"
_space_group_IT_number       1

loop_
  _space_group_symop_operation_xyz
  'x, y, z'

loop_
  _atom_site_type_symbol
  _atom_site_label
  _atom_site_symmetry_multiplicity
  _atom_site_fract_x
  _atom_site_fract_y
  _atom_site_fract_z
  _atom_site_occupancy
  C   C1        1.0  0.23013  0.29703  0.51590  1.0000
  S   S1        1.0  0.24037  0.34669  0.65292  1.0000
  C   C2        1.0  0.13500  0.31628  0.60884  1.0000
  C   C3        1.0  0.28071  0.10922  0.61189  1.0000
  C   C4        1.0  0.23325  0.47054  0.56796  1.0000
  S   S2        1.0  0.09619  0.45411  0.49115  1.0000
  H   H1        1.0  0.11965  0.20753  0.56418  1.0000
  C   C5        1.0  0.26830  0.00493  0.67897  1.0000
  H   H2        1.0  0.35419  0.40283  0.59704  1.0000
  H   H3        1.0  0.35219  0.17004  0.66589  1.0000
  H   H4        1.0  0.24807  0.27641  0.57144  1.0000
  C   C6        1.0  0.18983  0.33438  0.65050  1.0000
  C   C7        1.0  0.43555  0.33253  0.69538  1.0000
  C   C8        1.0  0.21893  0.20967  0.64078  1.0000
  C   C9        1.0  0.29203  0.20293  0.49333  1.0000
  C   C10       1.0  0.34406  0.19070  0.60275  1.0000
  H   H5        1.0  0.16140  0.17314  0.71463  1.0000
  C   C11       1.0  0.13562  0.99857  0.70226  1.0000
  S   S3        1.0  0.49378  0.03141  0.71321  1.0000
  C   C12       1.0  0.28958  0.13849  0.57446  1.0000
  C   C13       1.0  0.37498  0.21548  0.48512  1.0000
  H   H6        1.0  0.27769  0.02288  0.70336  1.0000
  C   C14       1.0  0.26691  0.21943  0.49989  1.0000
  H   H7        1.0  0.29711  0.01473  0.54405  1.0000
  C   C15       1.0  0.33503  0.16130  0.64012  1.0000
  C   C16       1.0  0.10150  0.46596  0.59997  1.0000
  C   C17       1.0  0.10231  0.45252  0.64261  1.0000
  P   P1        1.0  0.33598  0.21658  0.51969  1.0000
  C   C18       1.0  0.24381  0.24665  0.65346  1.0000
  H   H8        1.0  0.07860  0.04879  0.57331  1.0000
  H   H9        1.0  0.08662  0.13371  0.65004  1.0000
  H   H10       1.0  0.29558  0.09803  0.67414  1.0000
  C   C19       1.0  0.54379  0.02610  0.48881  1.0000
  H   H11       1.0  0.31421  0.06746  0.47879  1.0000
  H   H12       1.0  0.09530  0.44539  0.57822  1.0000
  C   C20       1.0  0.23426  0.21011  0.47775  1.0000
  H   H13       1.0  0.19316  0.16080  0.56338  1.0000
  H   H14       1.0  0.55148  0.27537  0.48236  1.0000
  H   H15       1.0  0.17563  0.33949  0.71481  1.0000
  H   H16       1.0  0.26093  0.32185  0.50206  1.0000
  H   H17       1.0  0.25598  0.07762  0.61585  1.0000
  C   C21       1.0  0.25941  0.18253  0.67036  1.0000
  H   H18       1.0  0.40748  0.29926  0.47867  1.0000
  H   H19       1.0  0.44261  0.47265  0.64072  1.0000
  H   H20       1.0  0.43705  0.38132  0.65026  1.0000
  H   H21       1.0  0.39223  0.37732  0.55091  1.0000
  C   C22       1.0  0.22680  0.17744  0.64973  1.0000
  H   H22       1.0  0.15199  0.09555  0.54043  1.0000
  C   C23       1.0  0.09659  0.07786  0.58253  1.0000
  C   C24       1.0  0.31453  0.46350  0.56941  1.0000
  P   P2        1.0  0.25307  0.45660  0.52470  1.0000
  H   H23       1.0  0.26401  0.15691  0.67926  1.0000
  H   H24       1.0  0.29531  0.28008  0.68386  1.0000
  C   C25       1.0  0.21250  0.42045  0.50143  1.0000
  C   C26       1.0  0.07839  0.08897  0.61315  1.0000
  C   C27       1.0  0.10905  0.31344  0.64399  1.0000
  C   C28       1.0  0.28777  0.03686  0.48282  1.0000
  H   H25       1.0  0.10422  0.32145  0.70874  1.0000
  H   H26       1.0  0.07850  0.23808  0.69020  1.0000
  H   H27       1.0  0.19157  0.07982  0.61742  1.0000
  H   H28       1.0  0.33083  0.31646  0.59773  1.0000
  S   S4        1.0  0.19833  0.07502  0.70553  1.0000
  C   C29       1.0  0.20484  0.43948  0.60276  1.0000
  H   H29       1.0  0.09501  0.01156  0.52660  1.0000
  C   C30       1.0  0.22961  0.99114  0.66822  1.0000
  C   C31       1.0  0.11083  0.47900  0.67067  1.0000
  C   C32       1.0  0.15825  0.25897  0.51187  1.0000
  H   H30       1.0  0.22619  0.45255  0.71440  1.0000
  H   H31       1.0  0.36374  0.47071  0.60268  1.0000
  C   C33       1.0  0.09497  0.00224  0.49640  1.0000
  C   C34       1.0  0.55228  0.38453  0.64395  1.0000
  C   C35       1.0  0.25798  0.47135  0.71633  1.0000
  H   H32       1.0  0.14385  0.02930  0.57940  1.0000
  C   C36       1.0  0.12413  0.32300  0.68180  1.0000
  C   C37       1.0  0.27796  0.00677  0.51982  1.0000
  C   C38       1.0  0.15062  0.23267  0.55125  1.0000
  C   C39       1.0  0.53637  0.00384  0.53059  1.0000
  H   H33       1.0  0.36902  0.22200  0.59958  1.0000
  H   H34       1.0  0.30707  0.24674  0.58496  1.0000
  C   C40       1.0  0.17516  0.32654  0.61217  1.0000
  C   C41       1.0  0.14401  0.18814  0.70868  1.0000
  H   H35       1.0  0.11177  0.46865  0.70339  1.0000
  H   H36       1.0  0.19471  0.32784  0.58510  1.0000
  C   C42       1.0  0.47523  0.40459  0.69717  1.0000
  H   H37       1.0  0.20656  0.14754  0.64331  1.0000
  H   H38       1.0  0.32467  0.00543  0.66737  1.0000
  C   C43       1.0  0.17280  0.41362  0.51051  1.0000
  C   C44       1.0  0.16441  0.33306  0.68526  1.0000
  C   C45       1.0  0.35500  0.26751  0.53045  1.0000
  H   H39       1.0  0.30000  0.35771  0.56008  1.0000
  H   H40       1.0  0.11831  0.23556  0.62831  1.0000
  C   C46       1.0  0.40397  0.34139  0.51285  1.0000
  H   H41       1.0  0.44034  0.17899  0.48666  1.0000
  C   C47       1.0  0.14338  0.15175  0.60908  1.0000
  C   C48       1.0  0.28717  0.47724  0.68268  1.0000
  C   C49       1.0  0.39039  0.30210  0.50496  1.0000
  C   C50       1.0  0.16849  0.04924  0.63511  1.0000
  C   C51       1.0  0.33482  0.41279  0.58323  1.0000
  C   C52       1.0  0.44858  0.37362  0.67794  1.0000
  S   S5        1.0  0.33084  0.37155  0.71321  1.0000
  H   H42       1.0  0.30893  0.22290  0.69915  1.0000
  H   H43       1.0  0.53519  0.35214  0.64330  1.0000
  C   C53       1.0  0.27879  0.39992  0.54494  1.0000
  C   C54       1.0  0.30330  0.12061  0.64473  1.0000
  C   C55       1.0  0.33412  0.27293  0.56452  1.0000
  C   C56       1.0  0.05993  0.12238  0.49362  1.0000
  H   H44       1.0  0.53481  0.30137  0.54254  1.0000
  C   C57       1.0  0.38220  0.34660  0.54585  1.0000
  C   C58       1.0  0.11987  0.22300  0.66012  1.0000
  H   H45       1.0  0.21544  0.22355  0.48218  1.0000
  P   P3        1.0  0.17261  0.20149  0.62216  1.0000
  S   S6        1.0  0.47517  0.48871  0.51600  1.0000
  H   H46       1.0  0.41315  0.30831  0.68185  1.0000
  H   H47       1.0  0.25487  0.37946  0.52981  1.0000
  C   C59       1.0  0.18274  0.23846  0.57347  1.0000
  C   C60       1.0  0.19107  0.44958  0.63803  1.0000
  H   H48       1.0  0.44028  0.47904  0.71662  1.0000
  H   H49       1.0  0.27258  0.23995  0.52144  1.0000
  H   H50       1.0  0.12387  0.30974  0.57930  1.0000
  H   H51       1.0  0.48411  0.43619  0.68428  1.0000
  H   H52       1.0  0.38874  0.18121  0.53497  1.0000
  H   H53       1.0  0.54343  0.40448  0.58125  1.0000
  H   H54       1.0  0.27176  0.12882  0.54941  1.0000
  H   H55       1.0  0.23666  0.27092  0.64944  1.0000
  C   C61       1.0  0.19801  0.29091  0.49403  1.0000
  C   C62       1.0  0.33999  0.45090  0.58672  1.0000
  C   C63       1.0  0.14298  0.39063  0.48759  1.0000
  H   H56       1.0  0.09693  0.42175  0.65365  1.0000
  S   S7        1.0  0.05766  0.29717  0.64071  1.0000
  H   H57       1.0  0.09791  0.03789  0.72213  1.0000
  C   C64       1.0  0.14367  0.20495  0.66663  1.0000
  C   C65       1.0  0.28403  0.43827  0.54804  1.0000
  C   C66       1.0  0.27677  0.25178  0.67342  1.0000
  C   C67       1.0  0.13791  0.10403  0.56436  1.0000
  C   C68       1.0  0.34750  0.31235  0.57193  1.0000
  C   C69       1.0  0.10163  0.12568  0.62653  1.0000
  C   C70       1.0  0.22258  0.27108  0.55553  1.0000
  C   C71       1.0  0.39548  0.19583  0.50136  1.0000
  C   C72       1.0  0.16123  0.14082  0.57760  1.0000
  H   H58       1.0  0.16908  0.42520  0.66466  1.0000
  C   C73       1.0  0.14128  0.02092  0.61371  1.0000
  C   C74       1.0  0.28449  0.21964  0.68201  1.0000
  H   H59       1.0  0.27744  0.46282  0.65580  1.0000
  H   H60       1.0  0.06610  0.26271  0.54517  1.0000
  C   C75       1.0  0.30431  0.38737  0.56229  1.0000
  Fe  Fe1       1.0  0.26346  0.34652  0.71536  1.0000
  C   C76       1.0  0.29475  0.99505  0.65877  1.0000
  C   C77       1.0  0.32118  0.17959  0.56972  1.0000
  H   H61       1.0  0.19354  0.40741  0.60266  1.0000
  H   H62       1.0  0.16502  0.42753  0.53367  1.0000
  S   S8        1.0  0.53354  0.43211  0.50009  1.0000
  H   H63       1.0  0.11287  0.38674  0.49367  1.0000
  H   H64       1.0  0.13341  0.25434  0.49478  1.0000
  C   C78       1.0  0.16541  0.03824  0.67940  1.0000
  C   C79       1.0  0.09726  0.22468  0.69518  1.0000
  H   H65       1.0  0.09144  0.13070  0.49328  1.0000
  H   H66       1.0  0.43109  0.36812  0.49292  1.0000
  H   H67       1.0  0.20917  0.99880  0.68404  1.0000
  C   C80       1.0  0.55690  0.41407  0.60896  1.0000
  H   H68       1.0  0.05798  0.32323  0.54267  1.0000
  Fe  Fe2       1.0  0.51991  0.48125  0.47469  1.0000
  H   H69       1.0  0.33467  0.48768  0.47437  1.0000
  C   C81       1.0  0.40474  0.04478  0.87884  1.0000
  P   P4        1.0  0.23257  0.47923  0.79720  1.0000
  H   H70       1.0  0.10557  0.27945  0.77073  1.0000
  C   C82       1.0  0.23002  0.44237  0.84169  1.0000
  C   C83       1.0  0.51393  0.00475  0.78668  1.0000
  H   H71       1.0  0.46522  0.05567  0.88626  1.0000
  C   C84       1.0  0.06773  0.99849  0.78499  1.0000
  C   C85       1.0  0.55266  0.08274  0.80587  1.0000
  H   H72       1.0  0.23844  0.18494  0.88546  1.0000
  H   H73       1.0  0.08010  0.20979  0.76353  1.0000
  Fe  Fe3       1.0  0.20445  0.04778  0.76921  1.0000
  C   C86       1.0  0.09045  0.07120  0.76630  1.0000
  H   H74       1.0  0.16900  0.28490  0.79100  1.0000
  C   C87       1.0  0.40856  0.15916  0.84966  1.0000
  H   H75       1.0  0.44692  0.40162  0.84561  1.0000
  Fe  Fe4       1.0  0.31161  0.31373  0.76158  1.0000
  H   H76       1.0  0.50938  0.41905  0.74833  1.0000
  C   C88       1.0  0.46859  0.14325  0.93774  1.0000
  H   H77       1.0  0.10397  0.09970  0.74233  1.0000
  H   H78       1.0  0.08997  0.01293  0.89975  1.0000
  S   S9        1.0  0.06369  0.36718  0.87535  1.0000
  C   C89       1.0  0.40877  0.11371  0.80487  1.0000
  H   H79       1.0  0.40903  0.16738  0.88056  1.0000
  H   H80       1.0  0.37245  0.38555  0.96169  1.0000
  C   C90       1.0  0.53610  0.16175  0.87863  1.0000
  H   H81       1.0  0.19494  0.17886  0.80260  1.0000
  C   C91       1.0  0.55499  0.05069  0.83033  1.0000
  C   C92       1.0  0.18142  0.45551  0.78505  1.0000
  C   C93       1.0  0.11116  0.14019  0.90331  1.0000
  C   C94       1.0  0.15281  0.12735  0.85383  1.0000
  C   C95       1.0  0.37140  0.07815  0.93516  1.0000
  C   C96       1.0  0.54206  0.38200  0.80453  1.0000
  P   P5        1.0  0.07876  0.12411  0.95488  1.0000
  S   S10       1.0  0.32432  0.03095  0.77979  1.0000
  Fe  Fe5       1.0  0.26559  0.02689  0.80219  1.0000
  H   H82       1.0  0.37233  0.30450  0.94124  1.0000
  H   H83       1.0  0.40575  0.13034  0.73866  1.0000
  P   P6        1.0  0.41192  0.09208  0.89154  1.0000
  H   H84       1.0  0.52089  0.24564  0.73255  1.0000
  C   C97       1.0  0.40671  0.17439  0.77398  1.0000
  C   C98       1.0  0.12783  0.29109  0.88526  1.0000
  H   H85       1.0  0.53213  0.10160  0.75068  1.0000
  C   C99       1.0  0.53434  0.01128  0.82180  1.0000
  Fe  Fe6       1.0  0.23092  0.06645  0.85465  1.0000
  C   C100      1.0  0.43190  0.00230  0.86133  1.0000
  C   C101      1.0  0.09272  0.28920  0.87328  1.0000
  C   C102      1.0  0.50818  0.16986  0.94419  1.0000
  H   H86       1.0  0.29052  0.45250  0.82173  1.0000
  H   H87       1.0  0.52210  0.20740  0.80154  1.0000
  C   C103      1.0  0.26251  0.43528  0.84491  1.0000
  H   H88       1.0  0.40514  0.19366  0.74657  1.0000
  C   C104      1.0  0.40718  0.46015  0.80817  1.0000
  C   C105      1.0  0.25854  0.40426  0.87769  1.0000
  C   C106      1.0  0.49950  0.05163  0.96725  1.0000
  H   H89       1.0  0.28318  0.39810  0.87895  1.0000
  C   C107      1.0  0.46552  0.33465  0.88500  1.0000
  C   C108      1.0  0.38416  0.30382  0.87476  1.0000
  C   C109      1.0  0.54452  0.41563  0.81940  1.0000
  C   C110      1.0  0.51516  0.23167  0.80113  1.0000
  H   H90       1.0  0.17951  0.39924  0.77731  1.0000
  H   H91       1.0  0.12054  0.17590  0.77561  1.0000
  H   H92       1.0  0.49686  0.34676  0.88962  1.0000
  H   H93       1.0  0.16401  0.15403  0.96299  1.0000
  H   H94       1.0  0.50768  0.22471  0.86956  1.0000
  C   C111      1.0  0.11177  0.28267  0.80263  1.0000
  C   C112      1.0  0.15817  0.47441  0.78806  1.0000
  C   C113      1.0  0.50704  0.24147  0.83948  1.0000
  S   S11       1.0  0.50437  0.46433  0.88499  1.0000
  H   H95       1.0  0.40941  0.08658  0.80027  1.0000
  H   H96       1.0  0.21825  0.35549  0.93227  1.0000
  C   C114      1.0  0.17110  0.16779  0.83025  1.0000
  C   C115      1.0  0.11711  0.45349  0.78351  1.0000
  C   C116      1.0  0.45470  0.32811  0.84475  1.0000
  C   C117      1.0  0.08853  0.48750  0.86982  1.0000
  C   C118      1.0  0.43589  0.32607  0.91967  1.0000
  S   S12       1.0  0.30994  0.34074  0.81815  1.0000
  H   H97       1.0  0.34265  0.02333  0.86850  1.0000
  C   C119      1.0  0.49866  0.27315  0.83902  1.0000
  H   H98       1.0  0.51735  0.41712  0.82734  1.0000
  S   S13       1.0  0.34214  0.27714  0.75837  1.0000
  H   H99       1.0  0.33224  0.08718  0.89451  1.0000
  H   H100      1.0  0.39486  0.39977  0.80301  1.0000
  H   H101      1.0  0.27951  0.07239  0.95439  1.0000
  H   H102      1.0  0.07241  0.29151  0.89612  1.0000
  C   C120      1.0  0.26668  0.32602  0.95050  1.0000
  C   C121      1.0  0.47713  0.35339  0.75077  1.0000
  C   C122      1.0  0.51478  0.25348  0.76220  1.0000
  H   H103      1.0  0.13434  0.29524  0.91689  1.0000
  C   C123      1.0  0.53260  0.07637  0.77059  1.0000
  C   C124      1.0  0.09920  0.41399  0.77515  1.0000
  C   C125      1.0  0.41368  0.31233  0.84009  1.0000
  C   C126      1.0  0.07415  0.06887  0.80767  1.0000
  H   H104      1.0  0.27638  0.24981  0.82965  1.0000
  C   C127      1.0  0.19018  0.38751  0.90486  1.0000
  C   C128      1.0  0.07911  0.16800  0.97005  1.0000
  Fe  Fe7       1.0  0.32423  0.39683  0.76994  1.0000
  H   H105      1.0  0.43675  0.29011  0.74640  1.0000
  H   H106      1.0  0.07685  0.41946  0.96221  1.0000
  C   C129      1.0  0.50718  0.28572  0.76150  1.0000
  H   H107      1.0  0.50124  0.08113  0.96103  1.0000
  H   H108      1.0  0.44454  0.33162  0.95047  1.0000
  H   H109      1.0  0.38505  0.01862  0.74039  1.0000
  S   S14       1.0  0.23676  0.01087  0.87097  1.0000
  C   C130      1.0  0.32766  0.20310  0.80163  1.0000
  C   C131      1.0  0.40723  0.13893  0.76944  1.0000
  C   C132      1.0  0.31668  0.23295  0.79993  1.0000
  C   C133      1.0  0.12283  0.11350  0.89009  1.0000
  H   H110      1.0  0.16178  0.36816  0.92733  1.0000
  H   H111      1.0  0.35165  0.20763  0.77751  1.0000
  C   C134      1.0  0.43647  0.03616  0.87692  1.0000
  C   C135      1.0  0.40767  0.18466  0.81404  1.0000
  C   C136      1.0  0.19392  0.41842  0.87233  1.0000
  S   S15       1.0  0.26507  0.08543  0.78762  1.0000
  P   P7        1.0  0.49296  0.33981  0.79953  1.0000
  C   C137      1.0  0.48939  0.39461  0.73354  1.0000
  Fe  Fe8       1.0  0.24506  0.31872  0.81217  1.0000
  H   H112      1.0  0.40719  0.21210  0.81771  1.0000
  C   C138      1.0  0.15905  0.19418  0.84270  1.0000
  C   C139      1.0  0.40866  0.12325  0.84544  1.0000
  C   C140      1.0  0.49863  0.29557  0.80000  1.0000
  S   S16       1.0  0.36930  0.45925  0.77992  1.0000
  H   H113      1.0  0.09870  0.46740  0.78740  1.0000
  C   C141      1.0  0.16290  0.41542  0.77745  1.0000
  H   H114      1.0  0.09824  0.46573  0.86673  1.0000
  C   C142      1.0  0.46255  0.12474  0.90221  1.0000
  C   C143      1.0  0.26386  0.19031  0.86265  1.0000
  S   S17       1.0  0.16961  0.03302  0.83515  1.0000
  C   C144      1.0  0.27390  0.15974  0.86322  1.0000
  C   C145      1.0  0.41319  0.42665  0.81547  1.0000
  H   H115      1.0  0.49308  0.28061  0.86909  1.0000
  C   C146      1.0  0.12216  0.39507  0.77185  1.0000
  C   C147      1.0  0.15520  0.28918  0.85594  1.0000
  H   H116      1.0  0.16266  0.10711  0.84457  1.0000
  C   C148      1.0  0.36751  0.01727  0.86771  1.0000
  H   H117      1.0  0.10999  0.08249  0.90887  1.0000
  C   C149      1.0  0.39525  0.31083  0.91452  1.0000
  C   C150      1.0  0.27005  0.48867  0.75207  1.0000
  C   C151      1.0  0.30654  0.16668  0.83344  1.0000
  C   C152      1.0  0.14763  0.28571  0.81425  1.0000
  C   C153      1.0  0.08711  0.03609  0.75497  1.0000
  H   H118      1.0  0.12120  0.20204  0.88836  1.0000
  C   C154      1.0  0.44924  0.32235  0.73196  1.0000
  C   C155      1.0  0.30618  0.07082  0.96101  1.0000
  H   H119      1.0  0.26926  0.47968  0.92502  1.0000
  H   H120      1.0  0.44307  0.13824  0.96000  1.0000
  C   C156      1.0  0.33638  0.07940  0.92701  1.0000
  C   C157      1.0  0.09816  0.20857  0.73679  1.0000
  H   H121      1.0  0.35266  0.29197  0.87053  1.0000
  S   S18       1.0  0.25854  0.37698  0.76803  1.0000
  C   C158      1.0  0.29577  0.36230  0.96103  1.0000
  S   S19       1.0  0.19864  0.29097  0.87177  1.0000
  C   C159      1.0  0.44314  0.42796  0.83904  1.0000
  S   S20       1.0  0.24294  0.11104  0.89738  1.0000
  H   H122      1.0  0.26980  0.32135  0.91820  1.0000
  H   H123      1.0  0.31495  0.14350  0.83444  1.0000
  C   C160      1.0  0.54193  0.17900  0.91470  1.0000
  H   H124      1.0  0.50867  0.30315  0.73083  1.0000
  C   C161      1.0  0.28515  0.22690  0.83082  1.0000
  S   S21       1.0  0.24504  0.28654  0.75952  1.0000
  C   C162      1.0  0.12125  0.18993  0.74354  1.0000
  H   H125      1.0  0.49291  0.12339  0.84307  1.0000
  C   C163      1.0  0.22231  0.38039  0.90760  1.0000
  C   C164      1.0  0.46768  0.46308  0.85453  1.0000
  C   C165      1.0  0.10782  0.43317  0.96821  1.0000
  H   H126      1.0  0.06702  0.39735  0.77308  1.0000
  H   H127      1.0  0.40419  0.30682  0.80971  1.0000
  H   H128      1.0  0.16802  0.42264  0.87075  1.0000
  C   C166      1.0  0.49668  0.13533  0.87203  1.0000
  H   H129      1.0  0.17342  0.22558  0.82457  1.0000
  C   C167      1.0  0.12908  0.18052  0.87890  1.0000
  C   C168      1.0  0.51421  0.03767  0.76030  1.0000
  H   H130      1.0  0.10780  0.36378  0.76705  1.0000
  C   C169      1.0  0.08424  0.28440  0.83220  1.0000
  H   H131      1.0  0.32062  0.38593  0.93607  1.0000
  C   C170      1.0  0.29733  0.48333  0.93446  1.0000
  H   H132      1.0  0.45720  0.99712  0.85782  1.0000
  H   H133      1.0  0.07538  0.09586  0.81561  1.0000
  H   H134      1.0  0.44126  0.39683  0.95358  1.0000
  C   C171      1.0  0.12944  0.47474  0.97015  1.0000
  C   C172      1.0  0.29604  0.45255  0.96548  1.0000
  C   C173      1.0  0.53540  0.05036  0.96607  1.0000
  H   H135      1.0  0.20903  0.26952  0.97173  1.0000
  H   H136      1.0  0.11764  0.01122  0.96608  1.0000
  H   H137      1.0  0.51277  0.18396  0.97168  1.0000
  C   C174      1.0  0.53347  0.01247  0.97324  1.0000
  H   H138      1.0  0.05751  0.19886  0.86595  1.0000
  C   C175      1.0  0.35567  0.99085  0.74327  1.0000
  H   H139      1.0  0.13362  0.98990  0.73649  1.0000
  S   S22       1.0  0.20706  0.99025  0.77918  1.0000
  H   H140      1.0  0.17614  0.99358  0.95087  1.0000
  H   H141      1.0  0.28763  0.05506  0.02965  1.0000
  H   H142      1.0  0.39881  0.33295  0.16855  1.0000
  C   C176      1.0  0.14307  0.07637  0.13945  1.0000
  H   H143      1.0  0.15617  0.05042  0.04528  1.0000
  C   C177      1.0  0.23986  0.23404  0.12507  1.0000
  C   C178      1.0  0.52258  0.15126  0.21966  1.0000
  H   H144      1.0  0.19957  0.28171  0.04487  1.0000
  C   C179      1.0  0.14668  0.04180  0.13948  1.0000
  C   C180      1.0  0.42656  0.02706  0.21303  1.0000
  C   C181      1.0  0.31064  0.06087  0.00332  1.0000
  C   C182      1.0  0.27047  0.25075  0.03783  1.0000
  H   H145      1.0  0.14242  0.19913  0.97822  1.0000
  C   C183      1.0  0.29331  0.27738  0.06339  1.0000
  H   H146      1.0  0.55459  0.12962  0.18311  1.0000
  C   C184      1.0  0.40870  0.44477  0.03515  1.0000
  C   C185      1.0  0.11493  0.23472  0.98914  1.0000
  H   H147      1.0  0.44494  0.11579  0.14191  1.0000
  H   H148      1.0  0.23716  0.15034  0.08354  1.0000
  C   C186      1.0  0.12823  0.15961  0.09989  1.0000
  C   C187      1.0  0.30514  0.39117  0.14673  1.0000
  P   P8        1.0  0.33042  0.41578  0.01569  1.0000
  C   C188      1.0  0.29206  0.36854  0.00282  1.0000
  P   P9        1.0  0.16971  0.15974  0.12356  1.0000
  H   H149      1.0  0.08809  0.44381  0.21948  1.0000
  H   H150      1.0  0.22179  0.39132  0.10829  1.0000
  H   H151      1.0  0.11599  0.07288  0.15697  1.0000
  H   H152      1.0  0.49006  0.43766  0.99763  1.0000
  S   S23       1.0  0.26648  0.12112  0.17469  1.0000
  H   H153      1.0  0.31405  0.36189  0.09855  1.0000
  C   C189      1.0  0.23204  0.29693  0.98066  1.0000
  H   H154      1.0  0.06562  0.22232  0.22044  1.0000
  C   C190      1.0  0.31261  0.38824  0.10442  1.0000
  C   C191      1.0  0.22356  0.44684  0.07868  1.0000
  C   C192      1.0  0.37450  0.06585  0.97765  1.0000
  C   C193      1.0  0.05955  0.12053  0.08455  1.0000
  C   C194      1.0  0.10009  0.43671  0.08513  1.0000
  H   H155      1.0  0.29487  0.28983  0.12695  1.0000
  H   H156      1.0  0.09777  0.09563  0.09527  1.0000
  H   H157      1.0  0.26672  0.42520  0.97959  1.0000
  H   H158      1.0  0.50509  0.10721  0.13323  1.0000
  H   H159      1.0  0.08442  0.21850  0.08543  1.0000
  H   H160      1.0  0.21911  0.48368  0.98982  1.0000
  C   C195      1.0  0.34470  0.05824  0.01164  1.0000
  C   C196      1.0  0.11063  0.40182  0.21824  1.0000
  C   C197      1.0  0.09888  0.04536  0.03755  1.0000
  C   C198      1.0  0.16586  0.42732  0.98376  1.0000
  C   C199      1.0  0.13140  0.25613  0.20400  1.0000
  S   S24       1.0  0.21460  0.29458  0.17892  1.0000
  H   H161      1.0  0.23764  0.44850  0.04729  1.0000
  H   H162      1.0  0.21439  0.19582  0.03561  1.0000
  C   C200      1.0  0.19543  0.47430  0.12528  1.0000
  C   C201      1.0  0.50090  0.12155  0.15824  1.0000
  S   S25       1.0  0.37091  0.02878  0.16483  1.0000
  H   H163      1.0  0.24823  0.45858  0.21401  1.0000
  C   C202      1.0  0.12438  0.19454  0.09583  1.0000
  C   C203      1.0  0.21694  0.20699  0.09972  1.0000
  H   H164      1.0  0.32264  0.47855  0.05297  1.0000
  H   H165      1.0  0.22866  0.22826  0.15894  1.0000
  C   C204      1.0  0.07933  0.06373  0.01674  1.0000
  C   C205      1.0  0.25674  0.33937  0.03279  1.0000
  H   H166      1.0  0.40103  0.45993  0.05698  1.0000
  H   H167      1.0  0.24359  0.08981  0.08399  1.0000
  H   H168      1.0  0.28218  0.25738  0.00396  1.0000
  C   C206      1.0  0.54217  0.43239  0.18121  1.0000
  H   H169      1.0  0.36869  0.25711  0.18617  1.0000
  C   C207      1.0  0.43175  0.40922  0.97723  1.0000
  H   H170      1.0  0.17964  0.40871  0.99003  1.0000
  C   C208      1.0  0.46154  0.01498  0.97563  1.0000
  C   C209      1.0  0.19722  0.41296  0.15370  1.0000
  C   C210      1.0  0.18805  0.46952  0.98413  1.0000
  C   C211      1.0  0.30372  0.42517  0.15511  1.0000
  C   C212      1.0  0.33231  0.45696  0.97768  1.0000
  H   H171      1.0  0.32265  0.30471  0.04935  1.0000
  C   C213      1.0  0.31726  0.45354  0.07865  1.0000
  H   H172      1.0  0.34782  0.04995  0.04451  1.0000
  H   H173      1.0  0.18635  0.02005  0.12089  1.0000
  H   H174      1.0  0.42932  0.37387  0.22156  1.0000
  C   C214      1.0  0.38051  0.42120  0.01059  1.0000
  C   C215      1.0  0.23200  0.21612  0.05572  1.0000
  C   C216      1.0  0.21401  0.47670  0.08491  1.0000
  C   C217      1.0  0.21491  0.08578  0.09826  1.0000
  C   C218      1.0  0.16465  0.10523  0.00475  1.0000
  H   H175      1.0  0.14233  0.25980  0.99584  1.0000
  H   H176      1.0  0.46922  0.46817  0.05002  1.0000
  C   C219      1.0  0.17463  0.11579  0.11815  1.0000
  H   H177      1.0  0.12340  0.46753  0.06800  1.0000
  C   C220      1.0  0.12026  0.28486  0.12336  1.0000
  H   H178      1.0  0.30887  0.48277  0.12769  1.0000
  C   C221      1.0  0.09887  0.36071  0.21852  1.0000
  C   C222      1.0  0.09175  0.24336  0.19571  1.0000
  C   C223      1.0  0.46076  0.14349  0.19644  1.0000
  C   C224      1.0  0.44770  0.44988  0.03111  1.0000
  H   H179      1.0  0.08361  0.33922  0.10443  1.0000
  H   H180      1.0  0.19824  0.02733  0.01186  1.0000
  C   C225      1.0  0.06243  0.42874  0.10608  1.0000
  C   C226      1.0  0.45936  0.43245  0.00189  1.0000
  C   C227      1.0  0.21463  0.41466  0.11297  1.0000
  Fe  Fe9       1.0  0.30889  0.01856  0.18600  1.0000
  P   P10       1.0  0.16438  0.44004  0.21273  1.0000
  H   H181      1.0  0.13687  0.41083  0.06938  1.0000
  C   C228      1.0  0.10235  0.10334  0.98977  1.0000
  C   C229      1.0  0.21094  0.12032  0.09775  1.0000
  C   C230      1.0  0.31790  0.41895  0.07000  1.0000
  H   H182      1.0  0.11612  0.29600  0.09206  1.0000
  C   C231      1.0  0.08799  0.19202  0.08720  1.0000
  C   C232      1.0  0.08619  0.25753  0.15521  1.0000
  H   H183      1.0  0.40027  0.06284  0.98460  1.0000
  C   C233      1.0  0.38312  0.27522  0.20933  1.0000
  C   C234      1.0  0.08028  0.41233  0.22151  1.0000
  H   H184      1.0  0.44579  0.03318  0.18314  1.0000
  H   H185      1.0  0.12144  0.35165  0.21548  1.0000
  H   H186      1.0  0.11339  0.17397  0.17924  1.0000
  H   H187      1.0  0.19773  0.12072  0.99902  1.0000
  C   C235      1.0  0.15959  0.29641  0.13118  1.0000
  C   C236      1.0  0.53640  0.40000  0.21342  1.0000
  C   C237      1.0  0.39249  0.40335  0.98166  1.0000
  C   C238      1.0  0.18294  0.04659  0.11951  1.0000
  C   C239      1.0  0.27780  0.26914  0.10692  1.0000
  H   H188      1.0  0.25172  0.34389  0.06464  1.0000
  C   C240      1.0  0.30995  0.45638  0.12111  1.0000
  H   H189      1.0  0.14823  0.22281  0.10252  1.0000
  H   H190      1.0  0.06011  0.09823  0.18068  1.0000
  C   C241      1.0  0.18785  0.44310  0.16024  1.0000
  C   C242      1.0  0.54372  0.31516  0.19299  1.0000
  H   H191      1.0  0.20125  0.13568  0.19448  1.0000
  C   C243      1.0  0.14139  0.06567  0.03074  1.0000
  H   H192      1.0  0.18559  0.31649  0.10599  1.0000
  H   H193      1.0  0.30004  0.36686  0.17315  1.0000
  C   C244      1.0  0.22675  0.30391  0.02158  1.0000
  C   C245      1.0  0.46703  0.12639  0.16316  1.0000
  C   C246      1.0  0.39997  0.31789  0.19951  1.0000
  S   S26       1.0  0.09516  0.35539  0.98246  1.0000
  C   C247      1.0  0.27259  0.14555  0.21805  1.0000
  C   C248      1.0  0.11472  0.20021  0.97926  1.0000
  C   C249      1.0  0.50105  0.29087  0.20227  1.0000
  C   C250      1.0  0.16520  0.28182  0.17131  1.0000
  H   H194      1.0  0.16058  0.04787  0.22213  1.0000
  C   C251      1.0  0.10786  0.40462  0.08537  1.0000
  H   H195      1.0  0.51807  0.42840  0.16314  1.0000
  C   C252      1.0  0.15866  0.15527  0.18065  1.0000
  C   C253      1.0  0.52869  0.13405  0.18643  1.0000
  H   H196      1.0  0.19112  0.38806  0.17995  1.0000
  H   H197      1.0  0.28119  0.20108  0.17883  1.0000
  H   H198      1.0  0.50770  0.37093  0.22041  1.0000
  H   H199      1.0  0.29787  0.42728  0.18799  1.0000
  H   H200      1.0  0.48268  0.30320  0.19041  1.0000
  S   S27       1.0  0.26908  0.02616  0.14252  1.0000
  C   C254      1.0  0.12987  0.16386  0.19873  1.0000
  C   C255      1.0  0.09600  0.12305  0.09264  1.0000
  Fe  Fe10      1.0  0.25682  0.05753  0.19086  1.0000
  H   H201      1.0  0.07994  0.26407  0.99788  1.0000
  H   H202      1.0  0.12162  0.01153  0.15600  1.0000
  C   C256      1.0  0.17933  0.14273  0.20771  1.0000
  C   C257      1.0  0.14528  0.12418  0.98469  1.0000
  C   C258      1.0  0.07967  0.23722  0.99033  1.0000
  C   C259      1.0  0.38783  0.02201  0.21308  1.0000
  H   H203      1.0  0.43428  0.14688  0.19979  1.0000
  C   C260      1.0  0.07787  0.36419  0.10517  1.0000
  H   H204      1.0  0.08102  0.01496  0.05848  1.0000
  H   H205      1.0  0.43426  0.01686  0.97595  1.0000
  H   H206      1.0  0.55209  0.00224  0.10707  1.0000
  C   C261      1.0  0.12522  0.40891  0.97704  1.0000
  C   C262      1.0  0.27876  0.18535  0.21093  1.0000
  H   H207      1.0  0.21556  0.99353  0.07294  1.0000
  C   C263      1.0  0.19656  0.99827  0.01174  1.0000
  C   C264      1.0  0.17451  0.48893  0.22351  1.0000
  H   H208      1.0  0.08968  0.03463  0.22415  1.0000
  C   C265      1.0  0.05751  0.33036  0.22408  1.0000
  C   C266      1.0  0.12140  0.15882  0.24313  1.0000
  S   S28       1.0  0.54334  0.07789  0.27664  1.0000
  C   C267      1.0  0.39698  0.33743  0.35527  1.0000
  C   C268      1.0  0.49603  0.13079  0.32738  1.0000
  C   C269      1.0  0.11278  0.27585  0.38397  1.0000
  C   C270      1.0  0.22599  0.41053  0.31895  1.0000
  C   C271      1.0  0.50544  0.17109  0.31038  1.0000
  C   C272      1.0  0.55191  0.19577  0.36082  1.0000
  H   H209      1.0  0.43403  0.47553  0.25121  1.0000
  H   H210      1.0  0.13572  0.24515  0.23521  1.0000
  H   H211      1.0  0.09903  0.16528  0.25683  1.0000
  C   C273      1.0  0.17170  0.13895  0.25192  1.0000
  H   H212      1.0  0.12579  0.27523  0.31766  1.0000
  H   H213      1.0  0.07144  0.03856  0.46700  1.0000
  H   H214      1.0  0.12376  0.46140  0.27675  1.0000
  S   S29       1.0  0.27680  0.20688  0.33054  1.0000
  C   C274      1.0  0.50551  0.23348  0.24027  1.0000
  Fe  Fe11      1.0  0.44245  0.48009  0.46024  1.0000
  H   H215      1.0  0.33905  0.02206  0.42972  1.0000
  H   H216      1.0  0.41218  0.09565  0.27883  1.0000
  C   C275      1.0  0.51469  0.12312  0.36049  1.0000
  C   C276      1.0  0.37674  0.01033  0.29074  1.0000
  C   C277      1.0  0.48982  0.31904  0.31502  1.0000
  H   H217      1.0  0.39885  0.47383  0.31613  1.0000
  C   C278      1.0  0.08632  0.15655  0.36997  1.0000
  C   C279      1.0  0.47428  0.34033  0.33429  1.0000
  C   C280      1.0  0.41413  0.23264  0.41400  1.0000
  C   C281      1.0  0.22984  0.44019  0.24512  1.0000
  C   C282      1.0  0.37352  0.35337  0.41830  1.0000
  H   H218      1.0  0.35243  0.27907  0.34169  1.0000
  C   C283      1.0  0.08102  0.00501  0.42362  1.0000
  C   C284      1.0  0.27610  0.18376  0.28712  1.0000
  C   C285      1.0  0.16481  0.40223  0.29365  1.0000
  H   H219      1.0  0.42131  0.24695  0.38025  1.0000
  C   C286      1.0  0.41602  0.01720  0.29067  1.0000
  H   H220      1.0  0.50787  0.09199  0.37262  1.0000
  C   C287      1.0  0.51911  0.47554  0.27539  1.0000
  H   H221      1.0  0.20385  0.31059  0.46302  1.0000
  H   H222      1.0  0.25290  0.41155  0.45926  1.0000
  H   H223      1.0  0.12176  0.09639  0.41428  1.0000
  H   H224      1.0  0.54458  0.16091  0.24104  1.0000
  S   S30       1.0  0.08442  0.44533  0.37328  1.0000
  H   H225      1.0  0.28338  0.23427  0.23962  1.0000
  C   C288      1.0  0.41367  0.17792  0.30908  1.0000
  H   H226      1.0  0.19914  0.36889  0.42063  1.0000
  H   H227      1.0  0.53129  0.29622  0.31681  1.0000
  C   C289      1.0  0.43607  0.42134  0.27698  1.0000
  H   H228      1.0  0.13600  0.14268  0.30395  1.0000
  C   C290      1.0  0.36255  0.01217  0.25213  1.0000
  S   S31       1.0  0.48505  0.46900  0.42039  1.0000
  Fe  Fe12      1.0  0.55009  0.98971  0.34392  1.0000
  H   H229      1.0  0.24453  0.14723  0.42024  1.0000
  Fe  Fe13      1.0  0.27901  0.34281  0.30048  1.0000
  C   C291      1.0  0.34570  0.11714  0.32818  1.0000
  H   H230      1.0  0.30115  0.26014  0.40388  1.0000
  H   H231      1.0  0.33976  0.06212  0.31195  1.0000
  H   H232      1.0  0.13186  0.16610  0.40930  1.0000
  H   H233      1.0  0.28101  0.37053  0.37716  1.0000
  H   H234      1.0  0.48044  0.30866  0.28613  1.0000
  H   H235      1.0  0.28152  0.44493  0.27228  1.0000
  C   C292      1.0  0.35934  0.43466  0.42223  1.0000
  C   C293      1.0  0.37703  0.45387  0.34482  1.0000
  H   H236      1.0  0.29887  0.38320  0.44833  1.0000
  H   H237      1.0  0.18860  0.13025  0.27241  1.0000
  H   H238      1.0  0.47485  0.10526  0.31443  1.0000
  H   H239      1.0  0.52184  0.42199  0.29992  1.0000
  C   C294      1.0  0.07307  0.07658  0.37679  1.0000
  C   C295      1.0  0.44062  0.02452  0.25190  1.0000
  H   H240      1.0  0.26770  0.12839  0.32646  1.0000
  C   C296      1.0  0.46058  0.40555  0.29043  1.0000
  H   H241      1.0  0.31366  0.10214  0.34213  1.0000
  H   H242      1.0  0.08674  0.30718  0.29303  1.0000
  H   H243      1.0  0.13251  0.39128  0.30040  1.0000
  H   H244      1.0  0.39996  0.26270  0.31146  1.0000
  C   C297      1.0  0.19178  0.38101  0.44610  1.0000
  C   C298      1.0  0.07909  0.03033  0.29176  1.0000
  C   C299      1.0  0.51802  0.34786  0.38784  1.0000
  Fe  Fe14      1.0  0.19300  0.27413  0.34363  1.0000
  C   C300      1.0  0.27981  0.20410  0.24543  1.0000
  C   C301      1.0  0.43424  0.21290  0.43034  1.0000
  C   C302      1.0  0.33677  0.31576  0.42615  1.0000
  H   H245      1.0  0.26379  0.09432  0.26572  1.0000
  H   H246      1.0  0.14893  0.04258  0.35698  1.0000
  S   S32       1.0  0.21715  0.32827  0.28796  1.0000
  C   C303      1.0  0.18385  0.39479  0.32654  1.0000
  C   C304      1.0  0.11030  0.28320  0.34064  1.0000
  S   S33       1.0  0.53463  0.03042  0.37373  1.0000
  H   H247      1.0  0.36935  0.22233  0.25748  1.0000
  H   H248      1.0  0.40353  0.40094  0.27856  1.0000
  S   S34       1.0  0.43348  0.01571  0.33927  1.0000
  C   C305      1.0  0.36035  0.09459  0.31086  1.0000
  C   C306      1.0  0.14202  0.04268  0.25218  1.0000
  H   H249      1.0  0.31338  0.30789  0.45305  1.0000
  Fe  Fe15      1.0  0.25635  0.25259  0.31402  1.0000
  H   H250      1.0  0.41718  0.48538  0.38687  1.0000
  S   S35       1.0  0.33007  0.40802  0.29220  1.0000
  H   H251      1.0  0.47824  0.37203  0.38599  1.0000
  C   C307      1.0  0.37234  0.15876  0.32749  1.0000
  C   C308      1.0  0.40140  0.11379  0.29183  1.0000
  P   P11       1.0  0.43741  0.35074  0.31173  1.0000
  C   C309      1.0  0.38728  0.46064  0.38494  1.0000
  C   C310      1.0  0.25044  0.16683  0.44309  1.0000
  C   C311      1.0  0.42822  0.15583  0.28994  1.0000
  H   H252      1.0  0.30148  0.16239  0.45977  1.0000
  C   C312      1.0  0.27128  0.14449  0.29419  1.0000
  H   H253      1.0  0.35723  0.00359  0.32066  1.0000
  C   C313      1.0  0.26363  0.02736  0.45096  1.0000
  H   H254      1.0  0.09095  0.18716  0.36764  1.0000
  H   H255      1.0  0.36907  0.24894  0.42810  1.0000
  S   S36       1.0  0.30049  0.05409  0.23072  1.0000
  H   H256      1.0  0.39546  0.01535  0.45531  1.0000
  C   C314      1.0  0.06947  0.31380  0.35545  1.0000
  C   C315      1.0  0.34158  0.99569  0.42652  1.0000
  C   C316      1.0  0.33941  0.42035  0.34202  1.0000
  H   H257      1.0  0.09268  0.27876  0.44736  1.0000
  C   C317      1.0  0.50230  0.43304  0.28938  1.0000
  C   C318      1.0  0.37334  0.99194  0.44082  1.0000
  C   C319      1.0  0.31060  0.39563  0.37927  1.0000
  C   C320      1.0  0.40329  0.36445  0.38284  1.0000
  C   C321      1.0  0.41705  0.34101  0.23004  1.0000
  C   C322      1.0  0.53301  0.32645  0.36862  1.0000
  H   H258      1.0  0.52953  0.35982  0.41560  1.0000
  C   C323      1.0  0.41729  0.32155  0.27090  1.0000
  C   C324      1.0  0.22625  0.18410  0.44912  1.0000
  H   H259      1.0  0.16570  0.37680  0.35782  1.0000
  C   C325      1.0  0.15830  0.04447  0.28987  1.0000
  H   H260      1.0  0.20179  0.17795  0.43095  1.0000
  H   H261      1.0  0.36072  0.17602  0.34114  1.0000
  H   H262      1.0  0.47026  0.02783  0.25163  1.0000
  S   S37       1.0  0.20175  0.99908  0.22999  1.0000
  S   S38       1.0  0.19263  0.23172  0.30226  1.0000
  H   H263      1.0  0.43101  0.39438  0.37692  1.0000
  S   S39       1.0  0.28583  0.30550  0.25703  1.0000
  P   P12       1.0  0.06487  0.02534  0.37912  1.0000
  C   C326      1.0  0.40078  0.27863  0.28014  1.0000
  C   C327      1.0  0.14210  0.14607  0.26969  1.0000
  H   H264      1.0  0.54041  0.23477  0.31596  1.0000
  C   C328      1.0  0.38366  0.25563  0.24957  1.0000
  S   S40       1.0  0.14479  0.25771  0.40024  1.0000
  Fe  Fe16      1.0  0.49473  0.02337  0.32489  1.0000
  H   H265      1.0  0.43415  0.20984  0.30972  1.0000
  H   H266      1.0  0.12965  0.35812  0.43681  1.0000
  C   C329      1.0  0.32990  0.28906  0.39853  1.0000
  H   H267      1.0  0.37876  0.37432  0.43942  1.0000
  C   C330      1.0  0.07023  0.30470  0.39926  1.0000
  C   C331      1.0  0.51891  0.31200  0.33227  1.0000
  C   C332      1.0  0.45322  0.46372  0.26179  1.0000
  H   H268      1.0  0.55604  0.32163  0.38156  1.0000
  P   P13       1.0  0.48159  0.17984  0.26670  1.0000
  C   C333      1.0  0.24892  0.43304  0.27818  1.0000
  C   C334      1.0  0.38457  0.23380  0.44121  1.0000
  H   H269      1.0  0.33199  0.00605  0.25307  1.0000
  C   C335      1.0  0.08810  0.30138  0.32664  1.0000
  C   C336      1.0  0.26913  0.12522  0.25975  1.0000
  C   C337      1.0  0.18755  0.42460  0.25268  1.0000
  C   C338      1.0  0.53292  0.20351  0.32795  1.0000
  S   S41       1.0  0.25490  0.29149  0.35883  1.0000
  C   C339      1.0  0.35955  0.29998  0.36297  1.0000
  C   C340      1.0  0.48873  0.35468  0.37089  1.0000
  H   H270      1.0  0.45690  0.21166  0.40918  1.0000
  H   H271      1.0  0.24089  0.40483  0.34434  1.0000
  C   C341      1.0  0.54299  0.15562  0.37689  1.0000
  Fe  Fe17      1.0  0.22213  0.28753  0.24782  1.0000
  C   C342      1.0  0.08182  0.01762  0.46250  1.0000
  H   H272      1.0  0.18917  0.05050  0.28900  1.0000
  C   C343      1.0  0.10912  0.14435  0.39375  1.0000
  C   C344      1.0  0.13517  0.03956  0.32847  1.0000
  C   C345      1.0  0.10277  0.10460  0.39700  1.0000
  H   H273      1.0  0.27119  0.05041  0.42208  1.0000
  C   C346      1.0  0.09485  0.03103  0.32988  1.0000
  C   C347      1.0  0.32050  0.40303  0.41946  1.0000
  C   C348      1.0  0.09138  0.28503  0.41363  1.0000
  C   C349      1.0  0.10249  0.03579  0.25316  1.0000
  Fe  Fe18      1.0  0.24700  0.99397  0.26708  1.0000
  H   H274      1.0  0.51975  0.01605  0.46973  1.0000
  C   C350      1.0  0.15248  0.37447  0.45540  1.0000
  C   C351      1.0  0.28303  0.17597  0.46521  1.0000
  C   C352      1.0  0.05840  0.12971  0.34797  1.0000
  H   H275      1.0  0.07491  0.18532  0.47272  1.0000
  C   C353      1.0  0.22191  0.40448  0.46857  1.0000
  C   C354      1.0  0.48809  0.15529  0.22547  1.0000
  S   S42       1.0  0.37476  0.43838  0.47199  1.0000
  C   C355      1.0  0.54833  0.25777  0.22971  1.0000
  H   H276      1.0  0.44900  0.23108  0.23014  1.0000
  C   C356      1.0  0.48198  0.25002  0.22538  1.0000
  C   C357      1.0  0.42491  0.19452  0.47399  1.0000
  H   H277      1.0  0.38144  0.96032  0.71385  1.0000
  H   H278      1.0  0.55416  0.76962  0.48900  1.0000
  H   H279      1.0  0.32540  0.89398  0.50559  1.0000
  H   H280      1.0  0.16401  0.65449  0.64062  1.0000
  C   C358      1.0  0.10580  0.97285  0.49241  1.0000
  C   C359      1.0  0.31288  0.76483  0.68417  1.0000
  S   S43       1.0  0.52225  0.60962  0.51081  1.0000
  H   H281      1.0  0.24828  0.71754  0.49937  1.0000
  C   C360      1.0  0.24355  0.96703  0.52548  1.0000
  Fe  Fe19      1.0  0.51178  0.55563  0.48275  1.0000
  H   H282      1.0  0.20822  0.58562  0.58362  1.0000
  H   H283      1.0  0.12212  0.65675  0.57550  1.0000
  H   H284      1.0  0.27577  0.62806  0.60369  1.0000
  C   C361      1.0  0.54882  0.65358  0.64347  1.0000
  H   H285      1.0  0.18107  0.83760  0.59077  1.0000
  H   H286      1.0  0.22960  0.57910  0.47619  1.0000
  H   H287      1.0  0.35855  0.61488  0.60504  1.0000
  P   P14       1.0  0.13259  0.58592  0.59499  1.0000
  H   H288      1.0  0.24780  0.55403  0.60601  1.0000
  C   C362      1.0  0.37086  0.85015  0.48039  1.0000
  H   H289      1.0  0.11455  0.95995  0.51932  1.0000
  C   C363      1.0  0.19475  0.74620  0.56142  1.0000
  C   C364      1.0  0.09621  0.63295  0.59937  1.0000
  C   C365      1.0  0.10575  0.59237  0.47464  1.0000
  C   C366      1.0  0.45458  0.53388  0.61648  1.0000
  H   H290      1.0  0.38309  0.82514  0.53876  1.0000
  C   C367      1.0  0.30673  0.89020  0.53486  1.0000
  C   C368      1.0  0.39599  0.84852  0.50926  1.0000
  C   C369      1.0  0.18082  0.61622  0.61162  1.0000
  H   H291      1.0  0.46555  0.59544  0.60123  1.0000
  S   S44       1.0  0.14960  0.74764  0.56806  1.0000
  C   C370      1.0  0.25076  0.63263  0.61296  1.0000
  H   H292      1.0  0.54042  0.90704  0.65683  1.0000
  H   H293      1.0  0.27061  0.53638  0.54316  1.0000
  C   C371      1.0  0.09371  0.71288  0.68439  1.0000
  H   H294      1.0  0.19401  0.92682  0.49561  1.0000
  H   H295      1.0  0.54338  0.49711  0.68586  1.0000
  C   C372      1.0  0.09384  0.59558  0.61615  1.0000
  C   C373      1.0  0.50715  0.86477  0.61771  1.0000
  P   P15       1.0  0.22967  0.92896  0.57447  1.0000
  H   H296      1.0  0.35133  0.50431  0.65882  1.0000
  C   C374      1.0  0.44509  0.64447  0.64838  1.0000
  H   H297      1.0  0.45732  0.87531  0.52237  1.0000
  C   C375      1.0  0.38714  0.63510  0.61454  1.0000
  H   H298      1.0  0.30389  0.96429  0.61277  1.0000
  C   C376      1.0  0.25849  0.90322  0.57289  1.0000
  C   C377      1.0  0.17462  0.63152  0.51248  1.0000
  H   H299      1.0  0.32716  0.85481  0.57329  1.0000
  H   H300      1.0  0.39469  0.58553  0.64301  1.0000
  C   C378      1.0  0.22008  0.95748  0.49275  1.0000
  C   C379      1.0  0.11832  0.81170  0.70223  1.0000
  C   C380      1.0  0.20343  0.72880  0.52980  1.0000
  H   H301      1.0  0.35099  0.79572  0.62168  1.0000
  H   H302      1.0  0.23158  0.69609  0.66007  1.0000
  H   H303      1.0  0.45608  0.53129  0.58336  1.0000
  C   C381      1.0  0.22577  0.67110  0.64469  1.0000
  C   C382      1.0  0.18760  0.64753  0.63333  1.0000
  H   H304      1.0  0.28495  0.84598  0.64113  1.0000
  C   C383      1.0  0.45991  0.57021  0.62677  1.0000
  C   C384      1.0  0.40319  0.67759  0.60518  1.0000
  H   H305      1.0  0.17345  0.50920  0.51366  1.0000
  H   H306      1.0  0.28744  0.68361  0.64138  1.0000
  Fe  Fe20      1.0  0.10956  0.73221  0.51785  1.0000
  C   C385      1.0  0.26851  0.74654  0.55213  1.0000
  C   C386      1.0  0.23507  0.52201  0.60490  1.0000
  C   C387      1.0  0.43633  0.64280  0.51334  1.0000
  H   H307      1.0  0.15761  0.93807  0.57221  1.0000
  C   C388      1.0  0.44009  0.57162  0.51390  1.0000
  H   H308      1.0  0.43472  0.67018  0.51361  1.0000
  H   H309      1.0  0.50184  0.67363  0.51082  1.0000
  H   H310      1.0  0.44083  0.54379  0.51423  1.0000
  C   C389      1.0  0.10553  0.87718  0.58323  1.0000
  C   C390      1.0  0.16059  0.84941  0.58931  1.0000
  H   H311      1.0  0.54668  0.92471  0.48793  1.0000
  C   C391      1.0  0.25737  0.66389  0.63432  1.0000
  H   H312      1.0  0.19634  0.49884  0.66687  1.0000
  C   C392      1.0  0.14729  0.90554  0.57913  1.0000
  Fe  Fe21      1.0  0.34563  0.65053  0.48755  1.0000
  H   H313      1.0  0.17460  0.87048  0.68271  1.0000
  C   C393      1.0  0.28209  0.90770  0.53453  1.0000
  C   C394      1.0  0.45875  0.57422  0.66958  1.0000
  H   H314      1.0  0.08954  0.72770  0.65516  1.0000
  H   H315      1.0  0.12656  0.53950  0.67830  1.0000
  S   S45       1.0  0.07276  0.95069  0.60972  1.0000
  C   C395      1.0  0.06467  0.63959  0.61247  1.0000
  C   C396      1.0  0.17033  0.52456  0.48414  1.0000
  H   H316      1.0  0.48868  0.70787  0.64993  1.0000
  H   H317      1.0  0.40132  0.77514  0.63726  1.0000
  H   H318      1.0  0.05910  0.81327  0.59208  1.0000
  H   H319      1.0  0.13058  0.69474  0.65051  1.0000
  H   H320      1.0  0.28089  0.77684  0.60487  1.0000
  H   H321      1.0  0.13239  0.79485  0.69337  1.0000
  C   C397      1.0  0.25943  0.76349  0.58388  1.0000
  H   H322      1.0  0.33835  0.82789  0.48817  1.0000
  C   C398      1.0  0.14229  0.85469  0.69570  1.0000
  C   C399      1.0  0.55241  0.82768  0.64056  1.0000
  H   H323      1.0  0.08407  0.88779  0.58060  1.0000
  C   C400      1.0  0.52270  0.65689  0.67382  1.0000
  S   S46       1.0  0.47891  0.88789  0.60302  1.0000
  H   H324      1.0  0.10776  0.78862  0.59744  1.0000
  H   H325      1.0  0.50670  0.97644  0.54384  1.0000
  H   H326      1.0  0.08188  0.94156  0.69911  1.0000
  Fe  Fe22      1.0  0.32479  0.71582  0.49834  1.0000
  H   H327      1.0  0.21786  0.73358  0.69715  1.0000
  C   C401      1.0  0.12447  0.87730  0.70565  1.0000
  H   H328      1.0  0.18527  0.77498  0.68601  1.0000
  C   C402      1.0  0.11881  0.82125  0.59299  1.0000
  S   S47       1.0  0.42871  0.94131  0.65786  1.0000
  C   C403      1.0  0.10928  0.98270  0.63696  1.0000
  S   S48       1.0  0.31502  0.87861  0.71715  1.0000
  H   H329      1.0  0.31876  0.49312  0.57235  1.0000
  Fe  Fe23      1.0  0.45481  0.90017  0.66120  1.0000
  S   S49       1.0  0.38446  0.71780  0.48569  1.0000
  C   C404      1.0  0.30778  0.86802  0.57315  1.0000
  S   S50       1.0  0.35198  0.59936  0.52254  1.0000
  H   H330      1.0  0.45166  0.73642  0.61117  1.0000
  C   C405      1.0  0.34647  0.77673  0.65271  1.0000
  C   C406      1.0  0.47595  0.60895  0.51208  1.0000
  C   C407      1.0  0.52458  0.81252  0.61279  1.0000
  C   C408      1.0  0.46074  0.68720  0.63959  1.0000
  C   C409      1.0  0.47416  0.64468  0.51202  1.0000
  H   H331      1.0  0.20181  0.64647  0.52628  1.0000
  Fe  Fe24      1.0  0.37961  0.89219  0.71122  1.0000
  C   C410      1.0  0.40046  0.60493  0.51602  1.0000
  C   C411      1.0  0.37483  0.76494  0.66142  1.0000
  C   C412      1.0  0.28458  0.49925  0.47992  1.0000
  C   C413      1.0  0.09133  0.83510  0.58999  1.0000
  H   H332      1.0  0.29218  0.77545  0.67699  1.0000
  C   C414      1.0  0.53540  0.88027  0.64515  1.0000
  C   C415      1.0  0.11832  0.53287  0.61338  1.0000
  C   C416      1.0  0.28248  0.97116  0.62806  1.0000
  C   C417      1.0  0.43983  0.70359  0.61787  1.0000
  S   S51       1.0  0.07267  0.67058  0.50150  1.0000
  P   P16       1.0  0.46795  0.62225  0.68230  1.0000
  C   C418      1.0  0.21262  0.60885  0.60159  1.0000
  H   H333      1.0  0.37518  0.54047  0.51818  1.0000
  S   S52       1.0  0.31432  0.74617  0.54852  1.0000
  C   C419      1.0  0.11905  0.51905  0.65624  1.0000
  C   C420      1.0  0.13757  0.59975  0.53779  1.0000
  C   C421      1.0  0.05942  0.56501  0.64616  1.0000
  H   H334      1.0  0.53674  0.63199  0.62289  1.0000
  C   C422      1.0  0.24078  0.72968  0.52464  1.0000
  C   C423      1.0  0.24822  0.51190  0.56923  1.0000
  H   H335      1.0  0.18723  0.95766  0.62956  1.0000
  C   C424      1.0  0.50236  0.83138  0.60085  1.0000
  Fe  Fe25      1.0  0.46357  0.96502  0.71005  1.0000
  C   C425      1.0  0.21719  0.96740  0.63729  1.0000
  C   C426      1.0  0.25926  0.88029  0.61121  1.0000
  C   C427      1.0  0.07665  0.79095  0.72012  1.0000
  C   C428      1.0  0.40798  0.61858  0.63585  1.0000
  H   H336      1.0  0.24164  0.87668  0.64134  1.0000
  H   H337      1.0  0.28195  0.92501  0.50454  1.0000
  C   C429      1.0  0.40260  0.56959  0.51640  1.0000
  S   S53       1.0  0.28631  0.64768  0.50496  1.0000
  C   C430      1.0  0.22267  0.76323  0.58860  1.0000
  C   C431      1.0  0.10298  0.58069  0.51870  1.0000
  C   C432      1.0  0.11668  0.69382  0.68162  1.0000
  C   C433      1.0  0.43793  0.87700  0.50020  1.0000
  C   C434      1.0  0.08277  0.85695  0.72209  1.0000
  H   H338      1.0  0.07400  0.55658  0.53790  1.0000
  C   C435      1.0  0.10652  0.97122  0.68119  1.0000
  H   H339      1.0  0.39386  0.61866  0.72312  1.0000
  H   H340      1.0  0.48127  0.81997  0.57883  1.0000
  H   H341      1.0  0.52089  0.78668  0.59987  1.0000
  H   H342      1.0  0.18168  0.71527  0.50899  1.0000
  H   H343      1.0  0.38720  0.69035  0.58808  1.0000
  C   C436      1.0  0.17526  0.89193  0.58266  1.0000
  H   H344      1.0  0.21610  0.77676  0.61302  1.0000
  C   C437      1.0  0.28391  0.86292  0.61129  1.0000
  C   C438      1.0  0.24344  0.95689  0.61706  1.0000
  C   C439      1.0  0.36960  0.74113  0.70165  1.0000
  H   H345      1.0  0.10985  0.51585  0.55165  1.0000
  C   C440      1.0  0.53978  0.68677  0.69843  1.0000
  S   S54       1.0  0.40247  0.84840  0.71025  1.0000
  H   H346      1.0  0.39208  0.73275  0.70864  1.0000
  C   C441      1.0  0.45214  0.54119  0.70183  1.0000
  C   C442      1.0  0.44643  0.50475  0.69140  1.0000
  C   C443      1.0  0.44752  0.50103  0.64876  1.0000
  H   H347      1.0  0.14276  0.91052  0.70062  1.0000
  C   C444      1.0  0.19984  0.77504  0.71366  1.0000
  C   C445      1.0  0.10955  0.50602  0.58519  1.0000
  H   H348      1.0  0.13913  0.65862  0.71645  1.0000
  S   S55       1.0  0.49416  0.92819  0.70893  1.0000
  C   C446      1.0  0.12174  0.67374  0.71880  1.0000
  C   C447      1.0  0.32872  0.50056  0.68434  1.0000
  C   C448      1.0  0.21865  0.75174  0.71996  1.0000
  H   H349      1.0  0.06651  0.66838  0.59909  1.0000
  H   H350      1.0  0.52052  0.69105  0.72109  1.0000
  H   H351      1.0  0.37314  0.53478  0.72172  1.0000
  C   C449      1.0  0.20635  0.49092  0.63920  1.0000
  C   C450      1.0  0.34106  0.51815  0.71954  1.0000
  H   H352      1.0  0.46550  0.59909  0.83898  1.0000
  H   H353      1.0  0.36679  0.61052  0.79832  1.0000
  H   H354      1.0  0.25116  0.77582  0.81341  1.0000
  H   H355      1.0  0.17448  0.66903  0.79731  1.0000
  H   H356      1.0  0.39805  0.49769  0.96864  1.0000
  H   H357      1.0  0.51658  0.64619  0.95401  1.0000
  C   C451      1.0  0.26671  0.59879  0.84406  1.0000
  H   H358      1.0  0.39985  0.55178  0.91468  1.0000
  H   H359      1.0  0.31063  0.96974  0.95676  1.0000
  H   H360      1.0  0.07693  0.86791  0.80822  1.0000
  H   H361      1.0  0.14512  0.53155  0.88657  1.0000
  H   H362      1.0  0.17111  0.80675  0.96480  1.0000
  H   H363      1.0  0.32453  0.83649  0.90457  1.0000
  H   H364      1.0  0.30712  0.63093  0.78347  1.0000
  H   H365      1.0  0.39805  0.71027  0.78552  1.0000
  C   C452      1.0  0.39535  0.97603  0.84876  1.0000
  H   H366      1.0  0.46513  0.94386  0.91392  1.0000
  H   H367      1.0  0.45207  0.91381  0.85051  1.0000
  H   H368      1.0  0.49523  0.89168  0.90727  1.0000
  H   H369      1.0  0.51364  0.49988  0.75562  1.0000
  H   H370      1.0  0.11511  0.49300  0.96575  1.0000
  Fe  Fe26      1.0  0.10820  0.63432  0.92080  1.0000
  S   S56       1.0  0.28938  0.64357  0.95298  1.0000
  H   H371      1.0  0.07737  0.77124  0.90827  1.0000
  H   H372      1.0  0.38088  0.71550  0.91772  1.0000
  H   H373      1.0  0.48231  0.52483  0.85617  1.0000
  S   S57       1.0  0.07113  0.70300  0.95991  1.0000
  C   C453      1.0  0.45844  0.77747  0.95608  1.0000
  C   C454      1.0  0.46277  0.49714  0.84557  1.0000
  C   C455      1.0  0.48565  0.86016  0.92187  1.0000
  C   C456      1.0  0.16832  0.58507  0.76752  1.0000
  H   H374      1.0  0.34732  0.78666  0.86836  1.0000
  H   H375      1.0  0.25445  0.95003  0.77945  1.0000
  H   H376      1.0  0.46363  0.70516  0.88030  1.0000
  Fe  Fe27      1.0  0.10280  0.71131  0.89427  1.0000
  H   H377      1.0  0.36295  0.95200  0.94014  1.0000
  C   C457      1.0  0.15063  0.87946  0.83610  1.0000
  H   H378      1.0  0.55044  0.81163  0.74876  1.0000
  C   C458      1.0  0.28460  0.60109  0.80336  1.0000
  C   C459      1.0  0.11493  0.52458  0.88131  1.0000
  C   C460      1.0  0.43429  0.92034  0.91287  1.0000
  Fe  Fe28      1.0  0.17753  0.97824  0.84712  1.0000
  S   S58       1.0  0.44979  0.84778  0.81729  1.0000
  C   C461      1.0  0.23814  0.75205  0.75544  1.0000
  C   C462      1.0  0.45005  0.60330  0.81343  1.0000
  C   C463      1.0  0.42401  0.79375  0.82929  1.0000
  C   C464      1.0  0.28019  0.91872  0.75038  1.0000
  H   H379      1.0  0.23329  0.67474  0.92179  1.0000
  H   H380      1.0  0.17123  0.90936  0.81603  1.0000
  H   H381      1.0  0.44601  0.74485  0.96797  1.0000
  H   H382      1.0  0.49424  0.60835  0.76397  1.0000
  S   S59       1.0  0.15086  0.70109  0.91889  1.0000
  H   H383      1.0  0.32222  0.52491  0.78097  1.0000
  C   C465      1.0  0.41432  0.60406  0.82317  1.0000
  S   S60       1.0  0.41335  0.91818  0.76324  1.0000
  C   C466      1.0  0.36294  0.98305  0.85275  1.0000
  H   H384      1.0  0.28737  0.56775  0.75666  1.0000
  C   C467      1.0  0.51349  0.67029  0.96448  1.0000
  H   H385      1.0  0.17099  0.50440  0.79581  1.0000
  C   C468      1.0  0.15593  0.60948  0.78441  1.0000
  C   C469      1.0  0.44626  0.61405  0.73757  1.0000
  H   H386      1.0  0.41209  0.79075  0.89633  1.0000
  S   S61       1.0  0.49649  0.54983  0.93430  1.0000
  C   C470      1.0  0.35515  0.85997  0.90696  1.0000
  C   C471      1.0  0.24514  0.90944  0.88281  1.0000
  C   C472      1.0  0.24573  0.52621  0.81523  1.0000
  P   P17       1.0  0.26174  0.72115  0.76422  1.0000
  C   C473      1.0  0.27530  0.72238  0.81691  1.0000
  C   C474      1.0  0.21765  0.79756  0.77932  1.0000
  C   C475      1.0  0.53193  0.78856  0.77773  1.0000
  P   P18       1.0  0.52387  0.77927  0.90775  1.0000
  H   H387      1.0  0.24434  0.93990  0.93306  1.0000
  H   H388      1.0  0.39223  0.95056  0.83532  1.0000
  H   H389      1.0  0.29807  0.73461  0.93171  1.0000
  H   H390      1.0  0.53238  0.85991  0.88059  1.0000
  H   H391      1.0  0.49936  0.97468  0.77908  1.0000
  C   C476      1.0  0.37086  0.52393  0.92849  1.0000
  H   H392      1.0  0.21842  0.58349  0.73442  1.0000
  Fe  Fe29      1.0  0.55004  0.61006  0.89778  1.0000
  C   C477      1.0  0.46614  0.60844  0.77083  1.0000
  C   C478      1.0  0.49393  0.80092  0.92459  1.0000
  C   C479      1.0  0.12254  0.80567  0.85092  1.0000
  H   H393      1.0  0.22364  0.55888  0.90143  1.0000
  C   C480      1.0  0.23289  0.91036  0.92458  1.0000
  H   H394      1.0  0.07102  0.69415  0.79348  1.0000
  C   C481      1.0  0.48354  0.72857  0.85206  1.0000
  C   C482      1.0  0.35366  0.95753  0.72854  1.0000
  C   C483      1.0  0.51432  0.76764  0.85566  1.0000
  Fe  Fe30      1.0  0.53144  0.52163  0.91143  1.0000
  C   C484      1.0  0.40069  0.72786  0.80966  1.0000
  C   C485      1.0  0.54621  0.51180  0.74780  1.0000
  C   C486      1.0  0.08290  0.69378  0.76191  1.0000
  H   H395      1.0  0.07997  0.83238  0.92774  1.0000
  C   C487      1.0  0.39152  0.73060  0.88427  1.0000
  H   H396      1.0  0.53127  0.87538  0.77612  1.0000
  C   C488      1.0  0.31952  0.76052  0.86401  1.0000
  H   H397      1.0  0.12492  0.59583  0.80114  1.0000
  C   C489      1.0  0.28216  0.95229  0.76515  1.0000
  C   C490      1.0  0.50230  0.74914  0.77452  1.0000
  C   C491      1.0  0.31197  0.51225  0.75326  1.0000
  C   C492      1.0  0.23154  0.87176  0.87102  1.0000
  H   H398      1.0  0.24088  0.87116  0.83855  1.0000
  S   S62       1.0  0.54197  0.65652  0.85537  1.0000
  C   C493      1.0  0.14827  0.84471  0.82439  1.0000
  C   C494      1.0  0.12617  0.87514  0.87347  1.0000
  C   C495      1.0  0.50652  0.84201  0.90658  1.0000
  H   H399      1.0  0.49782  0.74203  0.74322  1.0000
  C   C496      1.0  0.24739  0.69293  0.85309  1.0000
  Fe  Fe31      1.0  0.44052  0.87879  0.75769  1.0000
  H   H400      1.0  0.08325  0.53247  0.75008  1.0000
  H   H401      1.0  0.06374  0.97138  0.77465  1.0000
  C   C497      1.0  0.43786  0.79576  0.97173  1.0000
  C   C498      1.0  0.40984  0.77335  0.87229  1.0000
  C   C499      1.0  0.22757  0.52430  0.85600  1.0000
  C   C500      1.0  0.38786  0.70779  0.85318  1.0000
  H   H402      1.0  0.40284  0.60180  0.85597  1.0000
  H   H403      1.0  0.19378  0.80564  0.89139  1.0000
  S   S63       1.0  0.12730  0.91806  0.88756  1.0000
  C   C501      1.0  0.29157  0.73125  0.89977  1.0000
  C   C502      1.0  0.40182  0.90741  0.94641  1.0000
  S   S64       1.0  0.12200  0.76291  0.83728  1.0000
  C   C503      1.0  0.20505  0.83491  0.90081  1.0000
  C   C504      1.0  0.18407  0.65108  0.78199  1.0000
  C   C505      1.0  0.40996  0.61428  0.74780  1.0000
  S   S65       1.0  0.36969  0.65485  0.86935  1.0000
  C   C506      1.0  0.32004  0.98837  0.76159  1.0000
  C   C507      1.0  0.53775  0.79790  0.81809  1.0000
  H   H404      1.0  0.33212  0.71032  0.76406  1.0000
  C   C508      1.0  0.09948  0.83595  0.89926  1.0000
  H   H405      1.0  0.33551  0.54285  0.89203  1.0000
  S   S66       1.0  0.06276  0.64560  0.89043  1.0000
  C   C509      1.0  0.23792  0.56047  0.87012  1.0000
  C   C510      1.0  0.33579  0.72879  0.73302  1.0000
  H   H406      1.0  0.14688  0.55249  0.77123  1.0000
  H   H407      1.0  0.42972  0.78668  0.76418  1.0000
  H   H408      1.0  0.33647  0.86675  0.96821  1.0000
  H   H409      1.0  0.52701  0.70545  0.90051  1.0000
  C   C511      1.0  0.36215  0.87712  0.94306  1.0000
  H   H410      1.0  0.21631  0.81451  0.80281  1.0000
  H   H411      1.0  0.18413  0.81526  0.73954  1.0000
  C   C512      1.0  0.47826  0.71917  0.81167  1.0000
  C   C513      1.0  0.42707  0.90340  0.87664  1.0000
  C   C514      1.0  0.09800  0.80129  0.88824  1.0000
  H   H412      1.0  0.25103  0.89077  0.75333  1.0000
  C   C515      1.0  0.41866  0.77099  0.79761  1.0000
  C   C516      1.0  0.43227  0.49546  0.82291  1.0000
  C   C517      1.0  0.39418  0.60935  0.79045  1.0000
  C   C518      1.0  0.38762  0.87309  0.87381  1.0000
  C   C519      1.0  0.20553  0.87354  0.95452  1.0000
  C   C520      1.0  0.19190  0.83572  0.94236  1.0000
  C   C521      1.0  0.25542  0.69753  0.89424  1.0000
  S   S67       1.0  0.13631  0.59942  0.89900  1.0000
  H   H413      1.0  0.45065  0.54299  0.73514  1.0000
  C   C522      1.0  0.07742  0.98379  0.92213  1.0000
  H   H414      1.0  0.42773  0.52135  0.81720  1.0000
  H   H415      1.0  0.16717  0.84825  0.79538  1.0000
  H   H416      1.0  0.06855  0.87430  0.72901  1.0000
  H   H417      1.0  0.45461  0.68891  0.80926  1.0000
  H   H418      1.0  0.33330  0.77980  0.79541  1.0000
  C   C523      1.0  0.45162  0.83719  0.95479  1.0000
  C   C524      1.0  0.06318  0.54338  0.87996  1.0000
  C   C525      1.0  0.10218  0.55241  0.88670  1.0000
  H   H419      1.0  0.17238  0.92771  0.95026  1.0000
  H   H420      1.0  0.26456  0.93798  0.85932  1.0000
  H   H421      1.0  0.27526  0.62669  0.85561  1.0000
  H   H422      1.0  0.53097  0.92307  0.81997  1.0000
  C   C526      1.0  0.23725  0.77512  0.78523  1.0000
  C   C527      1.0  0.31163  0.75616  0.82269  1.0000
  C   C528      1.0  0.22489  0.66871  0.76242  1.0000
  H   H423      1.0  0.53522  0.98623  0.84143  1.0000
  C   C529      1.0  0.27372  0.56506  0.78865  1.0000
  C   C530      1.0  0.51881  0.70368  0.93407  1.0000
  C   C531      1.0  0.19923  0.79779  0.74350  1.0000
  C   C532      1.0  0.23702  0.64404  0.74504  1.0000
  H   H424      1.0  0.21887  0.66671  0.85021  1.0000
  H   H425      1.0  0.33494  0.96291  0.84233  1.0000
  H   H426      1.0  0.38224  0.85984  0.84576  1.0000
  H   H427      1.0  0.10916  0.65899  0.78810  1.0000
  Fe  Fe32      1.0  0.34159  0.63402  0.93936  1.0000
  C   C533      1.0  0.10500  0.67392  0.75896  1.0000
  C   C534      1.0  0.51442  0.73485  0.94700  1.0000
  H   H428      1.0  0.08325  0.93067  0.82696  1.0000
  C   C535      1.0  0.20873  0.60246  0.74733  1.0000
  C   C536      1.0  0.33475  0.51888  0.91572  1.0000
  H   H429      1.0  0.43484  0.85086  0.96587  1.0000
  H   H430      1.0  0.20517  0.49508  0.87701  1.0000
  H   H431      1.0  0.26830  0.65648  0.73021  1.0000
  C   C537      1.0  0.31613  0.92115  0.73261  1.0000
  C   C538      1.0  0.05920  0.81403  0.72992  1.0000
  C   C539      1.0  0.36971  0.49311  0.95933  1.0000
  C   C540      1.0  0.09356  0.98289  0.95976  1.0000
  C   C541      1.0  0.35352  0.95120  0.97308  1.0000
  C   C542      1.0  0.07632  0.71270  0.72463  1.0000
  C   C543      1.0  0.30689  0.74018  0.72438  1.0000
  C   C544      1.0  0.47247  0.66472  0.21680  1.0000
  C   C545      1.0  0.25253  0.85886  0.02571  1.0000
  C   C546      1.0  0.26584  0.74753  0.05103  1.0000
  C   C547      1.0  0.22096  0.86421  0.04278  1.0000
  Fe  Fe33      1.0  0.31476  0.66519  0.01059  1.0000
  C   C548      1.0  0.27207  0.72048  0.03110  1.0000
  C   C549      1.0  0.24163  0.69393  0.01083  1.0000
  C   C550      1.0  0.09993  0.51807  0.09668  1.0000
  S   S68       1.0  0.34970  0.56746  0.08787  1.0000
  H   H432      1.0  0.36996  0.78904  0.07375  1.0000
  C   C551      1.0  0.32391  0.96143  0.98232  1.0000
  C   C552      1.0  0.14848  0.61796  0.16252  1.0000
  C   C553      1.0  0.38827  0.82192  0.07222  1.0000
  C   C554      1.0  0.11631  0.92006  0.14269  1.0000
  H   H433      1.0  0.11142  0.86814  0.99594  1.0000
  H   H434      1.0  0.09203  0.54768  0.03731  1.0000
  C   C555      1.0  0.07337  0.61244  0.18486  1.0000
  C   C556      1.0  0.55110  0.97974  0.13281  1.0000
  S   S69       1.0  0.31783  0.72006  0.03203  1.0000
  C   C557      1.0  0.41210  0.64298  0.18395  1.0000
  C   C558      1.0  0.17844  0.58875  0.07932  1.0000
  P   P19       1.0  0.41043  0.92893  0.99360  1.0000
  C   C559      1.0  0.15082  0.58481  0.05184  1.0000
  H   H435      1.0  0.16019  0.60766  0.02243  1.0000
  H   H436      1.0  0.41016  0.77724  0.99561  1.0000
  C   C560      1.0  0.41068  0.56807  0.03545  1.0000
  C   C561      1.0  0.37095  0.94043  0.00606  1.0000
  H   H437      1.0  0.09170  0.94452  0.01790  1.0000
  H   H438      1.0  0.15159  0.78851  0.05631  1.0000
  H   H439      1.0  0.36556  0.83743  0.01802  1.0000
  C   C562      1.0  0.40998  0.89247  0.03751  1.0000
  H   H440      1.0  0.16017  0.66628  0.10935  1.0000
  C   C563      1.0  0.38581  0.84974  0.04048  1.0000
  H   H441      1.0  0.29973  0.84586  0.03965  1.0000
  C   C564      1.0  0.31173  0.96137  0.02447  1.0000
  C   C565      1.0  0.27606  0.85082  0.05268  1.0000
  H   H442      1.0  0.25893  0.86048  0.99180  1.0000
  C   C566      1.0  0.35926  0.94138  0.04814  1.0000
  H   H443      1.0  0.23163  0.85269  0.14749  1.0000
  C   C567      1.0  0.16885  0.49256  0.97964  1.0000
  H   H444      1.0  0.24575  0.67252  0.99598  1.0000
  S   S70       1.0  0.37008  0.66014  0.99463  1.0000
  C   C568      1.0  0.32975  0.95192  0.05724  1.0000
  P   P20       1.0  0.18978  0.87440  0.00882  1.0000
  C   C569      1.0  0.22893  0.74719  0.05141  1.0000
  H   H445      1.0  0.54194  0.93594  0.09350  1.0000
  H   H446      1.0  0.28907  0.76798  0.06701  1.0000
  H   H447      1.0  0.37288  0.93391  0.07376  1.0000
  H   H448      1.0  0.22347  0.76706  0.06786  1.0000
  C   C570      1.0  0.41481  0.83637  0.10132  1.0000
  C   C571      1.0  0.21284  0.86015  0.08715  1.0000
  C   C572      1.0  0.19868  0.72077  0.03089  1.0000
  H   H449      1.0  0.41694  0.62984  0.12151  1.0000
  H   H450      1.0  0.21361  0.92929  0.07168  1.0000
  C   C573      1.0  0.26879  0.84873  0.09660  1.0000
  C   C574      1.0  0.20669  0.97956  0.04574  1.0000
  C   C575      1.0  0.20548  0.69485  0.00976  1.0000
  C   C576      1.0  0.20522  0.94243  0.04502  1.0000
  C   C577      1.0  0.19304  0.92320  0.01047  1.0000
  H   H451      1.0  0.09493  0.66287  0.12945  1.0000
  H   H452      1.0  0.20890  0.61572  0.07200  1.0000
  H   H453      1.0  0.18238  0.67478  0.99342  1.0000
  C   C578      1.0  0.23899  0.75726  0.18943  1.0000
  C   C579      1.0  0.23741  0.85386  0.11366  1.0000
  H   H454      1.0  0.28723  0.84287  0.11739  1.0000
  H   H455      1.0  0.18763  0.86222  0.10130  1.0000
  C   C580      1.0  0.18226  0.94203  0.97694  1.0000
  C   C581      1.0  0.18428  0.97942  0.97734  1.0000
  H   H456      1.0  0.41740  0.81487  0.12533  1.0000
  C   C582      1.0  0.06479  0.80588  0.02414  1.0000
  S   S71       1.0  0.27826  0.60193  0.05269  1.0000
  H   H457      1.0  0.22040  0.50150  0.05838  1.0000
  Fe  Fe34      1.0  0.25683  0.57983  0.99373  1.0000
  C   C583      1.0  0.43246  0.63947  0.14818  1.0000
  Fe  Fe35      1.0  0.33159  0.59503  0.03287  1.0000
  H   H458      1.0  0.15919  0.73062  0.13555  1.0000
  S   S72       1.0  0.15140  0.71816  0.03472  1.0000
  H   H459      1.0  0.21856  0.72137  0.14143  1.0000
  H   H460      1.0  0.39958  0.57764  0.00852  1.0000
  H   H461      1.0  0.39030  0.96151  0.14257  1.0000
  C   C584      1.0  0.13273  0.89439  0.14597  1.0000
  C   C585      1.0  0.13710  0.83309  0.02546  1.0000
  H   H462      1.0  0.13208  0.94931  0.15191  1.0000
  C   C586      1.0  0.16704  0.55744  0.11547  1.0000
  C   C587      1.0  0.12765  0.79405  0.04777  1.0000
  H   H463      1.0  0.14491  0.76994  0.18185  1.0000
  H   H464      1.0  0.32008  0.94721  0.16474  1.0000
  C   C588      1.0  0.36657  0.93104  0.16030  1.0000
  C   C589      1.0  0.13873  0.64402  0.13743  1.0000
  H   H465      1.0  0.17799  0.62099  0.15464  1.0000
  H   H466      1.0  0.28867  0.96915  0.03169  1.0000
  H   H467      1.0  0.18887  0.56045  0.13622  1.0000
  S   S73       1.0  0.17976  0.90876  0.16278  1.0000
  C   C590      1.0  0.17881  0.74363  0.15848  1.0000
  C   C591      1.0  0.21250  0.73881  0.16145  1.0000
  C   C592      1.0  0.39131  0.56060  0.07734  1.0000
  H   H468      1.0  0.12331  0.83542  0.13857  1.0000
  C   C593      1.0  0.32723  0.92328  0.17301  1.0000
  C   C594      1.0  0.11161  0.85604  0.13501  1.0000
  H   H469      1.0  0.40562  0.90559  0.16055  1.0000
  C   C595      1.0  0.44022  0.54449  0.10507  1.0000
  S   S74       1.0  0.19063  0.54192  0.99037  1.0000
  C   C596      1.0  0.11176  0.54995  0.06047  1.0000
  Fe  Fe36      1.0  0.21762  0.96725  0.18503  1.0000
  C   C597      1.0  0.40577  0.54822  0.11203  1.0000
  C   C598      1.0  0.10527  0.83873  0.01373  1.0000
  C   C599      1.0  0.17088  0.76592  0.18445  1.0000
  C   C600      1.0  0.10148  0.64165  0.14873  1.0000
  H   H470      1.0  0.39070  0.54217  0.14448  1.0000
  C   C601      1.0  0.37517  0.89961  0.17069  1.0000
  C   C602      1.0  0.08718  0.76115  0.05776  1.0000
  H   H471      1.0  0.38112  0.63651  0.18418  1.0000
  H   H472      1.0  0.26577  0.75446  0.19011  1.0000
  C   C603      1.0  0.11994  0.58773  0.19739  1.0000
  C   C604      1.0  0.19695  0.78389  0.21301  1.0000
  H   H473      1.0  0.23270  0.52527  0.17992  1.0000
  C   C605      1.0  0.34501  0.86110  0.19573  1.0000
  C   C606      1.0  0.12805  0.52204  0.12405  1.0000
  H   H474      1.0  0.08042  0.73085  0.07379  1.0000
  S   S75       1.0  0.07671  0.62017  0.98850  1.0000
  C   C607      1.0  0.29710  0.88501  0.19773  1.0000
  C   C608      1.0  0.07921  0.90756  0.12744  1.0000
  C   C609      1.0  0.08242  0.58482  0.20829  1.0000
  H   H475      1.0  0.26703  0.88008  0.20798  1.0000
  C   C610      1.0  0.07491  0.84371  0.11979  1.0000
  H   H476      1.0  0.35238  0.83729  0.20376  1.0000
  C   C611      1.0  0.23128  0.77973  0.21563  1.0000
  C   C612      1.0  0.21126  0.52545  0.20383  1.0000
  H   H477      1.0  0.05878  0.81391  0.11170  1.0000
  H   H478      1.0  0.24973  0.59054  0.20036  1.0000
  C   C613      1.0  0.30629  0.85431  0.21107  1.0000
  S   S76       1.0  0.30722  0.56814  0.97657  1.0000
  C   C614      1.0  0.22140  0.56255  0.21582  1.0000
  H   H479      1.0  0.18700  0.49676  0.12897  1.0000
  H   H480      1.0  0.12031  0.49725  0.15111  1.0000
  H   H481      1.0  0.11498  0.82582  0.22235  1.0000
  H   H482      1.0  0.37210  0.76584  0.21318  1.0000
  H   H483      1.0  0.06669  0.92752  0.12443  1.0000
  H   H484      1.0  0.10392  0.67818  0.22148  1.0000
  H   H485      1.0  0.32047  0.95251  0.08970  1.0000
  C   C615      1.0  0.07919  0.94544  0.98876  1.0000
  C   C616      1.0  0.55420  0.95880  0.20697  1.0000
  Fe  Fe37      1.0  0.11664  0.68811  0.98443  1.0000
  H   H486      1.0  0.06408  0.50140  0.18443  1.0000
  H   H487      1.0  0.12682  0.56673  0.21647  1.0000
  C   C617      1.0  0.43147  0.65411  0.21923  1.0000
  C   C618      1.0  0.43831  0.87865  0.09925  1.0000
  C   C619      1.0  0.54519  0.94222  0.12519  1.0000
  C   C620      1.0  0.43552  0.90659  0.06794  1.0000
  H   H488      1.0  0.44049  0.82408  0.21743  1.0000
  H   H489      1.0  0.48761  0.64354  0.11994  1.0000
  C   C621      1.0  0.50592  0.73270  0.99103  1.0000
  C   C622      1.0  0.49267  0.66088  0.18113  1.0000
  C   C623      1.0  0.48804  0.78930  0.07420  1.0000
  S   S77       1.0  0.53913  0.86744  0.14805  1.0000
  C   C624      1.0  0.51531  0.82673  0.04577  1.0000
  C   C625      1.0  0.50278  0.76666  0.09681  1.0000
  H   H490      1.0  0.45400  0.93921  0.06714  1.0000
  C   C626      1.0  0.44497  0.56378  0.02848  1.0000
  H   H491      1.0  0.45905  0.88976  0.12177  1.0000
  H   H492      1.0  0.49332  0.69749  0.05526  1.0000
  C   C627      1.0  0.50039  0.69919  0.02142  1.0000
  C   C628      1.0  0.55583  0.98813  0.17370  1.0000
  C   C629      1.0  0.45929  0.97667  0.98288  1.0000
  S   S78       1.0  0.50509  0.55044  0.05614  1.0000
  H   H493      1.0  0.50091  0.64257  0.03174  1.0000
  C   C630      1.0  0.54455  0.91333  0.15831  1.0000
  C   C631      1.0  0.47244  0.64763  0.14710  1.0000
  Fe  Fe38      1.0  0.53246  0.56085  0.98775  1.0000
  H   H494      1.0  0.50449  0.75731  0.00209  1.0000
  C   C632      1.0  0.50447  0.66814  0.00816  1.0000
  H   H495      1.0  0.45551  0.77782  0.07872  1.0000
  H   H496      1.0  0.52386  0.66781  0.18018  1.0000
  H   H497      1.0  0.55467  0.76264  0.10838  1.0000
  H   H498      1.0  0.45164  0.53570  0.13217  1.0000
  C   C633      1.0  0.54884  0.92154  0.19923  1.0000
  H   H499      1.0  0.50385  0.84428  0.02820  1.0000
  C   C634      1.0  0.54480  0.78156  0.09127  1.0000
  H   H500      1.0  0.46039  0.57071  0.99622  1.0000
  C   C635      1.0  0.46021  0.55264  0.06334  1.0000
  H   H501      1.0  0.48163  0.73759  0.11897  1.0000
  H   H502      1.0  0.49475  0.94668  0.98642  1.0000
  C   C636      1.0  0.49563  0.97576  0.98156  1.0000
  C   C637      1.0  0.05874  0.86942  0.11559  1.0000
  H   H503      1.0  0.37452  0.54285  0.41039  1.0000
  C   C638      1.0  0.15858  0.92847  0.34812  1.0000
  H   H504      1.0  0.45995  0.62443  0.41821  1.0000
  H   H505      1.0  0.09287  0.89017  0.35799  1.0000
  C   C639      1.0  0.24474  0.81915  0.29031  1.0000
  C   C640      1.0  0.38605  0.71910  0.23669  1.0000
  H   H506      1.0  0.16050  0.94838  0.31911  1.0000
  H   H507      1.0  0.33160  0.71458  0.33236  1.0000
  C   C641      1.0  0.29146  0.55353  0.42336  1.0000
  H   H508      1.0  0.14484  0.63400  0.41546  1.0000
  H   H509      1.0  0.20375  0.59178  0.25852  1.0000
  C   C642      1.0  0.20417  0.83814  0.35119  1.0000
  H   H510      1.0  0.49236  0.80995  0.24325  1.0000
  C   C643      1.0  0.22980  0.98780  0.45603  1.0000
  C   C644      1.0  0.16029  0.52674  0.27002  1.0000
  C   C645      1.0  0.51609  0.89187  0.38109  1.0000
  C   C646      1.0  0.46262  0.78458  0.24163  1.0000
  H   H511      1.0  0.05838  0.72089  0.31547  1.0000
  C   C647      1.0  0.26597  0.73439  0.28188  1.0000
  C   C648      1.0  0.41518  0.71096  0.25246  1.0000
  C   C649      1.0  0.31965  0.73206  0.31554  1.0000
  C   C650      1.0  0.32245  0.50622  0.46103  1.0000
  C   C651      1.0  0.20693  0.78831  0.31498  1.0000
  H   H512      1.0  0.53199  0.91248  0.31231  1.0000
  H   H513      1.0  0.23733  0.53356  0.31414  1.0000
  S   S79       1.0  0.54932  0.94000  0.39104  1.0000
  S   S80       1.0  0.42383  0.76784  0.35673  1.0000
  H   H514      1.0  0.43217  0.60123  0.29468  1.0000
  H   H515      1.0  0.26229  0.60070  0.33457  1.0000
  C   C652      1.0  0.55185  0.81825  0.37490  1.0000
  H   H516      1.0  0.44382  0.87825  0.29099  1.0000
  C   C653      1.0  0.51285  0.88680  0.33904  1.0000
  C   C654      1.0  0.18680  0.79801  0.34508  1.0000
  H   H517      1.0  0.06086  0.56149  0.23550  1.0000
  C   C655      1.0  0.09169  0.97511  0.42004  1.0000
  H   H518      1.0  0.54921  0.61796  0.38775  1.0000
  H   H519      1.0  0.49902  0.75911  0.37654  1.0000
  C   C656      1.0  0.30031  0.80834  0.39330  1.0000
  H   H520      1.0  0.19253  0.75693  0.31054  1.0000
  C   C657      1.0  0.33751  0.58168  0.26762  1.0000
  P   P21       1.0  0.40549  0.65905  0.26532  1.0000
  H   H521      1.0  0.54784  0.89917  0.22508  1.0000
  S   S81       1.0  0.23774  0.63302  0.39710  1.0000
  H   H522      1.0  0.20896  0.79615  0.46829  1.0000
  C   C658      1.0  0.10641  0.60791  0.30954  1.0000
  C   C659      1.0  0.45495  0.90733  0.46232  1.0000
  C   C660      1.0  0.34157  0.77501  0.30828  1.0000
  C   C661      1.0  0.19859  0.58358  0.42415  1.0000
  H   H523      1.0  0.08006  0.95118  0.25885  1.0000
  C   C662      1.0  0.13110  0.52461  0.42838  1.0000
  C   C663      1.0  0.07821  0.67750  0.23890  1.0000
  H   H524      1.0  0.54523  0.68083  0.38069  1.0000
  H   H525      1.0  0.19097  0.80220  0.23175  1.0000
  H   H526      1.0  0.10407  0.79519  0.35925  1.0000
  H   H527      1.0  0.14489  0.81693  0.28603  1.0000
  H   H528      1.0  0.45610  0.58678  0.36041  1.0000
  C   C664      1.0  0.55012  0.67075  0.35222  1.0000
  C   C665      1.0  0.28179  0.71176  0.30249  1.0000
  C   C666      1.0  0.09711  0.81611  0.25416  1.0000
  C   C667      1.0  0.43459  0.61876  0.31890  1.0000
  H   H529      1.0  0.47689  0.73856  0.26595  1.0000
  H   H530      1.0  0.12273  0.60908  0.27989  1.0000
  S   S82       1.0  0.07014  0.82858  0.43473  1.0000
  C   C668      1.0  0.35175  0.62021  0.27823  1.0000
  C   C669      1.0  0.48530  0.84811  0.33161  1.0000
  C   C670      1.0  0.43023  0.90865  0.43297  1.0000
  C   C671      1.0  0.28323  0.59570  0.31530  1.0000
  C   C672      1.0  0.26884  0.52242  0.46018  1.0000
  H   H531      1.0  0.34750  0.58559  0.37731  1.0000
  H   H532      1.0  0.21112  0.98065  0.43127  1.0000
  C   C673      1.0  0.31783  0.93260  0.40118  1.0000
  P   P22       1.0  0.35582  0.88593  0.40635  1.0000
  H   H533      1.0  0.15724  0.77449  0.36319  1.0000
  C   C674      1.0  0.37765  0.95875  0.43497  1.0000
  C   C675      1.0  0.55341  0.69298  0.31175  1.0000
  C   C676      1.0  0.31360  0.96581  0.40718  1.0000
  S   S83       1.0  0.34418  0.65966  0.41728  1.0000
  H   H534      1.0  0.25704  0.74960  0.38067  1.0000
  S   S84       1.0  0.10990  0.69182  0.37422  1.0000
  H   H535      1.0  0.32577  0.81065  0.37346  1.0000
  H   H536      1.0  0.34224  0.83075  0.28414  1.0000
  H   H537      1.0  0.33518  0.65518  0.31377  1.0000
  C   C677      1.0  0.42712  0.67105  0.34538  1.0000
  C   C678      1.0  0.38631  0.92220  0.27537  1.0000
  C   C679      1.0  0.46334  0.82038  0.40814  1.0000
  C   C680      1.0  0.30619  0.83959  0.41485  1.0000
  C   C681      1.0  0.23422  0.79984  0.44658  1.0000
  H   H538      1.0  0.50737  0.52389  0.25173  1.0000
  C   C682      1.0  0.35016  0.92888  0.41460  1.0000
  C   C683      1.0  0.40524  0.88104  0.34129  1.0000
  C   C684      1.0  0.26141  0.77361  0.39746  1.0000
  C   C685      1.0  0.45368  0.74403  0.25447  1.0000
  S   S85       1.0  0.47532  0.54703  0.42991  1.0000
  S   S86       1.0  0.54920  0.57049  0.32632  1.0000
  C   C686      1.0  0.13500  0.50456  0.46650  1.0000
  H   H539      1.0  0.48319  0.84392  0.29915  1.0000
  H   H540      1.0  0.37044  0.79062  0.31941  1.0000
  C   C687      1.0  0.36881  0.91510  0.31795  1.0000
  C   C688      1.0  0.41399  0.90966  0.26580  1.0000
  H   H541      1.0  0.50051  0.72843  0.44988  1.0000
  H   H542      1.0  0.28550  0.52109  0.27198  1.0000
  S   S87       1.0  0.54449  0.73397  0.30873  1.0000
  H   H543      1.0  0.15108  0.85716  0.45298  1.0000
  C   C689      1.0  0.42267  0.88825  0.29861  1.0000
  S   S88       1.0  0.12854  0.76706  0.44954  1.0000
  H   H544      1.0  0.26418  0.67836  0.30947  1.0000
  H   H545      1.0  0.41893  0.69448  0.34174  1.0000
  C   C690      1.0  0.38788  0.88040  0.44206  1.0000
  C   C691      1.0  0.09115  0.79906  0.33119  1.0000
  S   S89       1.0  0.50550  0.97815  0.29899  1.0000
  C   C692      1.0  0.52365  0.76005  0.43503  1.0000
  Fe  Fe39      1.0  0.07306  0.77226  0.46022  1.0000
  C   C693      1.0  0.29630  0.55077  0.28011  1.0000
  C   C694      1.0  0.52271  0.77724  0.39377  1.0000
  H   H546      1.0  0.48872  0.67560  0.24269  1.0000
  C   C695      1.0  0.09571  0.64403  0.36058  1.0000
  C   C696      1.0  0.42487  0.64983  0.31275  1.0000
  C   C697      1.0  0.20212  0.56413  0.46294  1.0000
  C   C698      1.0  0.27304  0.83441  0.44262  1.0000
  H   H547      1.0  0.10335  0.51028  0.41540  1.0000
  C   C699      1.0  0.55489  0.61963  0.32001  1.0000
  H   H548      1.0  0.19807  0.74263  0.42700  1.0000
  H   H549      1.0  0.41262  0.86447  0.36621  1.0000
  H   H550      1.0  0.20534  0.66945  0.44931  1.0000
  H   H551      1.0  0.29610  0.91005  0.38571  1.0000
  C   C700      1.0  0.37892  0.89545  0.35137  1.0000
  H   H552      1.0  0.23587  0.71794  0.27358  1.0000
  C   C701      1.0  0.22824  0.76958  0.42373  1.0000
  C   C702      1.0  0.08548  0.70372  0.26735  1.0000
  C   C703      1.0  0.24233  0.86881  0.32767  1.0000
  C   C704      1.0  0.26916  0.55776  0.30392  1.0000
  C   C705      1.0  0.34511  0.53739  0.42427  1.0000
  C   C706      1.0  0.32575  0.79767  0.28785  1.0000
  C   C707      1.0  0.17674  0.64470  0.46878  1.0000
  Fe  Fe40      1.0  0.52173  0.53753  0.39521  1.0000
  C   C708      1.0  0.49212  0.85845  0.41559  1.0000
  C   C709      1.0  0.45992  0.81520  0.36619  1.0000
  H   H553      1.0  0.25540  0.90020  0.33184  1.0000
  Fe  Fe41      1.0  0.37816  0.72697  0.41619  1.0000
  C   C710      1.0  0.19404  0.93576  0.36416  1.0000
  C   C711      1.0  0.32446  0.62664  0.30304  1.0000
  H   H554      1.0  0.14058  0.67367  0.30258  1.0000
  H   H555      1.0  0.42917  0.91693  0.23312  1.0000
  C   C712      1.0  0.11652  0.64462  0.32243  1.0000
  H   H556      1.0  0.37929  0.93862  0.24999  1.0000
  H   H557      1.0  0.27920  0.57164  0.40878  1.0000
  S   S90       1.0  0.24193  0.97775  0.33837  1.0000
  H   H558      1.0  0.35664  0.69420  0.23351  1.0000
  C   C713      1.0  0.28856  0.77767  0.27315  1.0000
  H   H559      1.0  0.34816  0.92586  0.32465  1.0000
  H   H560      1.0  0.28919  0.96898  0.39594  1.0000
  H   H561      1.0  0.07955  0.57587  0.45988  1.0000
  C   C714      1.0  0.07580  0.56988  0.33493  1.0000
  H   H562      1.0  0.49495  0.86211  0.44815  1.0000
  H   H563      1.0  0.29299  0.88333  0.28093  1.0000
  H   H564      1.0  0.44426  0.79503  0.43491  1.0000
  C   C715      1.0  0.12034  0.89576  0.37027  1.0000
  H   H565      1.0  0.15977  0.57897  0.37735  1.0000
  C   C716      1.0  0.55163  0.63464  0.35627  1.0000
  H   H566      1.0  0.14106  0.52695  0.29658  1.0000
  C   C717      1.0  0.26311  0.85917  0.29809  1.0000
  C   C718      1.0  0.14244  0.62489  0.44974  1.0000
  C   C719      1.0  0.06521  0.60605  0.38635  1.0000
  P   P23       1.0  0.26807  0.80735  0.24795  1.0000
  H   H567      1.0  0.18786  0.84528  0.37409  1.0000
  C   C720      1.0  0.10397  0.95913  0.45429  1.0000
  S   S91       1.0  0.32172  0.73031  0.42880  1.0000
  C   C721      1.0  0.19123  0.91014  0.40210  1.0000
  H   H568      1.0  0.21849  0.91552  0.41464  1.0000
  C   C722      1.0  0.44763  0.61002  0.35654  1.0000
  C   C723      1.0  0.43955  0.66175  0.38338  1.0000
  C   C724      1.0  0.44994  0.63133  0.38893  1.0000
  H   H569      1.0  0.40313  0.95742  0.44555  1.0000
  C   C725      1.0  0.15314  0.87697  0.42373  1.0000
  C   C726      1.0  0.16304  0.56376  0.40690  1.0000
  H   H570      1.0  0.11154  0.93565  0.45141  1.0000
  H   H571      1.0  0.44112  0.67817  0.40851  1.0000
  C   C727      1.0  0.11774  0.86978  0.40778  1.0000
  H   H572      1.0  0.11633  0.72410  0.27188  1.0000
  C   C728      1.0  0.32977  0.56124  0.40557  1.0000
  H   H573      1.0  0.35827  0.57505  0.25052  1.0000
  C   C729      1.0  0.19571  0.56325  0.24866  1.0000
  H   H574      1.0  0.44405  0.93237  0.40359  1.0000
  C   C730      1.0  0.11402  0.81114  0.29010  1.0000
  Fe  Fe42      1.0  0.08741  0.70571  0.43347  1.0000
  H   H575      1.0  0.09062  0.96396  0.39083  1.0000
  Fe  Fe43      1.0  0.28805  0.66211  0.43424  1.0000
  H   H576      1.0  0.48746  0.92943  0.45537  1.0000
  C   C731      1.0  0.43325  0.79250  0.22694  1.0000
  H   H577      1.0  0.55000  0.83191  0.34369  1.0000
  C   C732      1.0  0.49456  0.49089  0.26163  1.0000
  S   S92       1.0  0.06237  0.52503  0.31512  1.0000
  H   H578      1.0  0.27681  0.85707  0.46097  1.0000
  H   H579      1.0  0.06592  0.88055  0.27974  1.0000
  C   C733      1.0  0.55431  0.78363  0.45701  1.0000
  H   H580      1.0  0.55098  0.49680  0.27604  1.0000
  C   C734      1.0  0.15010  0.48968  0.25804  1.0000
  C   C735      1.0  0.05779  0.81022  0.25925  1.0000
  H   H581      1.0  0.23886  0.51601  0.47309  1.0000
  C   C736      1.0  0.39493  0.75976  0.22447  1.0000
  S   S93       1.0  0.25882  0.95797  0.22545  1.0000
  C   C737      1.0  0.75134  0.17772  0.55181  1.0000
  H   H582      1.0  0.80061  0.06724  0.69163  1.0000
  C   C738      1.0  0.00682  0.03229  0.71655  1.0000
  H   H583      1.0  0.94718  0.09393  0.49813  1.0000
  C   C739      1.0  0.59112  0.43859  0.68079  1.0000
  C   C740      1.0  0.93314  0.03171  0.59951  1.0000
  C   C741      1.0  0.00377  0.22208  0.53881  1.0000
  C   C742      1.0  0.60618  0.05115  0.53812  1.0000
  C   C743      1.0  0.82222  0.12596  0.54355  1.0000
  C   C744      1.0  0.96587  0.21822  0.53532  1.0000
  C   C745      1.0  0.81380  0.05979  0.66595  1.0000
  H   H584      1.0  0.64539  0.02182  0.49733  1.0000
  H   H585      1.0  0.73715  0.11534  0.56086  1.0000
  C   C746      1.0  0.97058  0.43475  0.53411  1.0000
  C   C747      1.0  0.59697  0.33478  0.55300  1.0000
  C   C748      1.0  0.02867  0.08088  0.50472  1.0000
  C   C749      1.0  0.93479  0.45234  0.67744  1.0000
  C   C750      1.0  0.62711  0.04574  0.62404  1.0000
  C   C751      1.0  0.80713  0.01498  0.61762  1.0000
  H   H586      1.0  0.59974  0.07577  0.70949  1.0000
  C   C752      1.0  0.97935  0.99047  0.71859  1.0000
  C   C753      1.0  0.70333  0.11994  0.70477  1.0000
  C   C754      1.0  0.69268  0.43121  0.54877  1.0000
  C   C755      1.0  0.69973  0.03270  0.57855  1.0000
  C   C756      1.0  0.98769  0.06988  0.50556  1.0000
  H   H587      1.0  0.67009  0.47858  0.63354  1.0000
  C   C757      1.0  0.73425  0.46219  0.53916  1.0000
  H   H588      1.0  0.99159  0.31710  0.53507  1.0000
  C   C758      1.0  0.61544  0.00550  0.64468  1.0000
  C   C759      1.0  0.71723  0.09482  0.69278  1.0000
  C   C760      1.0  0.96158  0.47997  0.63971  1.0000
  C   C761      1.0  0.90848  0.01160  0.48577  1.0000
  P   P24       1.0  0.94626  0.01643  0.51894  1.0000
  H   H589      1.0  0.86467  0.20344  0.61730  1.0000
  C   C762      1.0  0.84739  0.04340  0.59633  1.0000
  C   C763      1.0  0.61338  0.07344  0.49611  1.0000
  C   C764      1.0  0.85540  0.29893  0.58711  1.0000
  C   C765      1.0  0.62910  0.31961  0.64328  1.0000
  H   H590      1.0  0.04612  0.06914  0.62656  1.0000
  H   H591      1.0  0.72202  0.04168  0.71299  1.0000
  H   H592      1.0  0.84653  0.42834  0.56206  1.0000
  C   C766      1.0  0.56950  0.39684  0.67977  1.0000
  S   S94       1.0  0.76463  0.41893  0.70777  1.0000
  H   H593      1.0  0.87194  0.11571  0.65618  1.0000
  C   C767      1.0  0.63764  0.34546  0.54023  1.0000
  H   H594      1.0  0.03677  0.05783  0.51273  1.0000
  C   C768      1.0  0.59613  0.46851  0.64561  1.0000
  C   C769      1.0  0.03239  0.29405  0.53999  1.0000
  C   C770      1.0  0.81907  0.14345  0.61254  1.0000
  H   H595      1.0  0.60441  0.44767  0.70882  1.0000
  H   H596      1.0  0.67731  0.33799  0.49479  1.0000
  H   H597      1.0  0.56608  0.37406  0.70683  1.0000
  H   H598      1.0  0.91971  0.04333  0.66052  1.0000
  C   C771      1.0  0.89758  0.45042  0.68864  1.0000
  H   H599      1.0  0.68427  0.42329  0.63627  1.0000
  C   C772      1.0  0.97925  0.40155  0.65064  1.0000
  H   H600      1.0  0.04018  0.47026  0.72350  1.0000
  C   C773      1.0  0.90651  0.42525  0.51586  1.0000
  P   P25       1.0  0.64789  0.06395  0.56748  1.0000
  C   C774      1.0  0.87102  0.07964  0.61048  1.0000
  H   H601      1.0  0.70418  0.04392  0.60791  1.0000
  H   H602      1.0  0.68311  0.20947  0.54078  1.0000
  H   H603      1.0  0.80425  0.42729  0.62414  1.0000
  C   C775      1.0  0.56736  0.01632  0.55523  1.0000
  C   C776      1.0  0.64668  0.33062  0.50594  1.0000
  C   C777      1.0  0.62130  0.07104  0.64765  1.0000
  H   H604      1.0  0.76709  0.32885  0.62179  1.0000
  C   C778      1.0  0.67349  0.03739  0.55297  1.0000
  C   C779      1.0  0.97931  0.40584  0.69342  1.0000
  C   C780      1.0  0.00997  0.14265  0.48373  1.0000
  H   H605      1.0  0.63088  0.41955  0.55242  1.0000
  H   H606      1.0  0.91848  0.30488  0.65836  1.0000
  H   H607      1.0  0.87573  0.35894  0.70639  1.0000
  H   H608      1.0  0.58209  0.47823  0.58187  1.0000
  H   H609      1.0  0.87519  0.40445  0.51320  1.0000
  C   C781      1.0  0.72893  0.35144  0.59880  1.0000
  C   C782      1.0  0.67481  0.48386  0.53100  1.0000
  H   H610      1.0  0.71206  0.34371  0.63072  1.0000
  H   H611      1.0  0.86037  0.03706  0.56940  1.0000
  C   C783      1.0  0.85567  0.16558  0.52646  1.0000
  H   H612      1.0  0.73278  0.10171  0.66041  1.0000
  H   H613      1.0  0.85449  0.27760  0.52931  1.0000
  C   C784      1.0  0.61252  0.30682  0.68696  1.0000
  C   C785      1.0  0.77503  0.37158  0.51772  1.0000
  C   C786      1.0  0.84357  0.45484  0.56237  1.0000
  H   H614      1.0  0.77888  0.08404  0.60009  1.0000
  S   S95       1.0  0.94610  0.20131  0.65381  1.0000
  C   C787      1.0  0.03698  0.25992  0.54144  1.0000
  C   C788      1.0  0.98906  0.47710  0.51870  1.0000
  P   P26       1.0  0.91182  0.24687  0.52998  1.0000
  C   C789      1.0  0.56601  0.30932  0.53246  1.0000
  C   C790      1.0  0.72484  0.13532  0.55660  1.0000
  H   H615      1.0  0.86188  0.31750  0.64753  1.0000
  H   H616      1.0  0.87953  0.20364  0.70122  1.0000
  H   H617      1.0  0.79264  0.37889  0.48623  1.0000
  C   C791      1.0  0.90174  0.27720  0.56204  1.0000
  C   C792      1.0  0.69475  0.18873  0.54529  1.0000
  C   C793      1.0  0.68296  0.11914  0.55638  1.0000
  H   H618      1.0  0.62331  0.29658  0.62459  1.0000
  C   C794      1.0  0.82659  0.20812  0.71941  1.0000
  H   H619      1.0  0.96467  0.41305  0.62966  1.0000
  C   C795      1.0  0.96064  0.25189  0.53543  1.0000
  H   H620      1.0  0.82269  0.31947  0.49398  1.0000
  C   C796      1.0  0.91956  0.28536  0.59899  1.0000
  H   H621      1.0  0.86993  0.17336  0.49330  1.0000
  H   H622      1.0  0.70892  0.14701  0.68207  1.0000
  C   C797      1.0  0.60479  0.05649  0.69139  1.0000
  H   H623      1.0  0.80725  0.34583  0.54953  1.0000
  Fe  Fe44      1.0  0.01183  0.22856  0.66299  1.0000
  C   C798      1.0  0.80383  0.11505  0.58645  1.0000
  H   H624      1.0  0.99697  0.37737  0.60188  1.0000
  C   C799      1.0  0.66308  0.44252  0.54506  1.0000
  C   C800      1.0  0.85275  0.18274  0.59582  1.0000
  C   C801      1.0  0.87348  0.30708  0.62339  1.0000
  H   H625      1.0  0.03843  0.04606  0.70219  1.0000
  C   C802      1.0  0.71991  0.01270  0.56682  1.0000
  H   H626      1.0  0.83369  0.23183  0.69153  1.0000
  C   C803      1.0  0.71995  0.36978  0.56293  1.0000
  C   C804      1.0  0.74430  0.38112  0.52261  1.0000
  H   H627      1.0  0.99142  0.48377  0.63153  1.0000
  H   H628      1.0  0.00194  0.99466  0.55791  1.0000
  C   C805      1.0  0.99674  0.38057  0.63489  1.0000
  H   H629      1.0  0.81105  0.10339  0.52391  1.0000
  S   S96       1.0  0.92133  0.11561  0.58450  1.0000
  H   H630      1.0  0.58906  0.34602  0.57897  1.0000
  H   H631      1.0  0.78357  0.18980  0.55245  1.0000
  C   C806      1.0  0.65424  0.36177  0.62425  1.0000
  C   C807      1.0  0.87066  0.19462  0.55229  1.0000
  Fe  Fe45      1.0  0.99933  0.14548  0.70475  1.0000
  H   H632      1.0  0.75686  0.23732  0.54236  1.0000
  H   H633      1.0  0.64331  0.09980  0.48189  1.0000
  C   C808      1.0  0.66700  0.02067  0.51635  1.0000
  C   C809      1.0  0.66317  0.39086  0.64968  1.0000
  C   C810      1.0  0.57540  0.29480  0.49848  1.0000
  C   C811      1.0  0.01266  0.36216  0.66211  1.0000
  C   C812      1.0  0.92932  0.40894  0.53303  1.0000
  C   C813      1.0  0.73628  0.20444  0.54628  1.0000
  H   H634      1.0  0.62897  0.10177  0.63254  1.0000
  H   H635      1.0  0.56393  0.37812  0.49324  1.0000
  H   H636      1.0  0.73904  0.39670  0.49474  1.0000
  C   C814      1.0  0.85433  0.08735  0.64574  1.0000
  H   H637      1.0  0.75785  0.45473  0.54233  1.0000
  C   C815      1.0  0.01207  0.36538  0.70491  1.0000
  H   H638      1.0  0.73987  0.00891  0.58663  1.0000
  C   C816      1.0  0.61571  0.30548  0.48522  1.0000
  H   H639      1.0  0.02523  0.34511  0.65004  1.0000
  C   C817      1.0  0.97861  0.10131  0.49602  1.0000
  H   H640      1.0  0.59461  0.27426  0.70191  1.0000
  C   C818      1.0  0.78300  0.35247  0.55333  1.0000
  H   H641      1.0  0.84714  0.24090  0.48097  1.0000
  H   H642      1.0  0.94246  0.27767  0.60615  1.0000
  C   C819      1.0  0.92428  0.00190  0.57503  1.0000
  C   C820      1.0  0.92450  0.46794  0.50103  1.0000
  S   S97       1.0  0.93354  0.11243  0.69952  1.0000
  C   C821      1.0  0.99449  0.29023  0.53655  1.0000
  C   C822      1.0  0.59925  0.99130  0.68837  1.0000
  H   H643      1.0  0.95469  0.06397  0.58594  1.0000
  P   P27       1.0  0.67700  0.37770  0.56824  1.0000
  H   H644      1.0  0.91570  0.37599  0.54322  1.0000
  C   C823      1.0  0.59415  0.01679  0.71180  1.0000
  Fe  Fe46      1.0  0.95257  0.15109  0.63326  1.0000
  S   S98       1.0  0.01930  0.18104  0.63650  1.0000
  H   H645      1.0  0.94064  0.18900  0.53249  1.0000
  C   C824      1.0  0.62054  0.33598  0.71180  1.0000
  C   C825      1.0  0.91338  0.02013  0.64203  1.0000
  H   H646      1.0  0.82994  0.30325  0.58299  1.0000
  H   H647      1.0  0.00705  0.19541  0.54039  1.0000
  C   C826      1.0  0.90556  0.30031  0.62930  1.0000
  C   C827      1.0  0.88732  0.47545  0.66242  1.0000
  C   C828      1.0  0.81945  0.45411  0.59779  1.0000
  H   H648      1.0  0.63588  0.13451  0.55058  1.0000
  H   H649      1.0  0.80621  0.13448  0.64638  1.0000
  C   C829      1.0  0.66814  0.14626  0.55042  1.0000
  C   C830      1.0  0.05065  0.15322  0.48243  1.0000
  H   H650      1.0  0.98878  0.42183  0.54486  1.0000
  S   S99       1.0  0.73812  0.99199  0.67479  1.0000
  C   C831      1.0  0.76038  0.34293  0.59394  1.0000
  C   C832      1.0  0.57882  0.45599  0.60958  1.0000
  C   C833      1.0  0.86954  0.28428  0.55654  1.0000
  C   C834      1.0  0.79006  0.02368  0.65192  1.0000
  H   H651      1.0  0.56091  0.99803  0.58723  1.0000
  C   C835      1.0  0.64602  0.37799  0.69325  1.0000
  H   H652      1.0  0.73480  0.33380  0.70752  1.0000
  H   H653      1.0  0.65386  0.40054  0.71295  1.0000
  P   P28       1.0  0.95273  0.42835  0.71621  1.0000
  C   C836      1.0  0.71379  0.99675  0.53004  1.0000
  H   H654      1.0  0.87718  0.43103  0.71856  1.0000
  C   C837      1.0  0.68716  0.00059  0.50486  1.0000
  C   C838      1.0  0.99570  0.38737  0.72050  1.0000
  C   C839      1.0  0.81612  0.48846  0.60006  1.0000
  H   H655      1.0  0.85894  0.47442  0.67185  1.0000
  Fe  Fe47      1.0  0.93057  0.16382  0.72073  1.0000
  H   H656      1.0  0.00263  0.16650  0.47536  1.0000
  C   C840      1.0  0.71104  0.06074  0.72267  1.0000
  H   H657      1.0  0.79877  0.48840  0.62842  1.0000
  C   C841      1.0  0.58723  0.40866  0.47590  1.0000
  H   H658      1.0  0.56866  0.34621  0.89337  1.0000
  H   H659      1.0  0.83251  0.28089  0.83237  1.0000
  H   H660      1.0  0.64690  0.47129  0.81884  1.0000
  C   C842      1.0  0.72282  0.37367  0.73876  1.0000
  H   H661      1.0  0.63085  0.47229  0.89819  1.0000
  C   C843      1.0  0.75353  0.31570  0.92848  1.0000
  C   C844      1.0  0.66598  0.33958  0.79826  1.0000
  H   H662      1.0  0.04193  0.02967  0.86972  1.0000
  H   H663      1.0  0.03765  0.08533  0.88652  1.0000
  H   H664      1.0  0.94119  0.40025  0.80941  1.0000
  C   C845      1.0  0.83940  0.07064  0.88413  1.0000
  H   H665      1.0  0.75611  0.15139  0.80974  1.0000
  Fe  Fe48      1.0  0.04365  0.34077  0.94566  1.0000
  C   C846      1.0  0.97612  0.03935  0.91601  1.0000
  Fe  Fe49      1.0  0.71320  0.19735  0.80316  1.0000
  S   S100      1.0  0.70211  0.46780  0.87680  1.0000
  C   C847      1.0  0.65941  0.30132  0.79305  1.0000
  H   H666      1.0  0.88162  0.04886  0.96676  1.0000
  H   H667      1.0  0.98548  0.09428  0.81270  1.0000
  C   C848      1.0  0.74834  0.41516  0.95311  1.0000
  C   C849      1.0  0.59719  0.30986  0.90325  1.0000
  H   H668      1.0  0.87196  0.24334  0.81639  1.0000
  Fe  Fe50      1.0  0.69479  0.19204  0.89873  1.0000
  H   H669      1.0  0.65772  0.06807  0.80761  1.0000
  C   C850      1.0  0.89763  0.16742  0.88240  1.0000
  P   P29       1.0  0.90815  0.12994  0.91098  1.0000
  H   H670      1.0  0.89019  0.33499  0.85908  1.0000
  C   C851      1.0  0.71534  0.33541  0.73250  1.0000
  Fe  Fe51      1.0  0.64941  0.21636  0.83855  1.0000
  H   H671      1.0  0.58120  0.00556  0.74557  1.0000
  C   C852      1.0  0.95162  0.10933  0.85581  1.0000
  H   H672      1.0  0.85998  0.26338  0.90496  1.0000
  C   C853      1.0  0.66959  0.02706  0.93945  1.0000
  H   H673      1.0  0.05292  0.15022  0.82042  1.0000
  C   C854      1.0  0.88915  0.41621  0.88498  1.0000
  H   H674      1.0  0.95610  0.20285  0.83879  1.0000
  H   H675      1.0  0.57264  0.20022  0.91917  1.0000
  C   C855      1.0  0.72794  0.34594  0.87646  1.0000
  C   C856      1.0  0.02687  0.08462  0.95383  1.0000
  C   C857      1.0  0.58208  0.44740  0.82503  1.0000
  C   C858      1.0  0.98398  0.46910  0.74205  1.0000
  H   H676      1.0  0.84350  0.09557  0.85917  1.0000
  H   H677      1.0  0.72747  0.07719  0.84036  1.0000
  Fe  Fe52      1.0  0.01791  0.30463  0.86726  1.0000
  C   C859      1.0  0.61701  0.37171  0.92986  1.0000
  C   C860      1.0  0.82989  0.00435  0.94485  1.0000
  S   S101      1.0  0.64805  0.17497  0.79580  1.0000
  C   C861      1.0  0.02546  0.14632  0.83783  1.0000
  H   H678      1.0  0.92240  0.08521  0.85112  1.0000
  S   S102      1.0  0.87534  0.14161  0.77069  1.0000
  C   C862      1.0  0.76386  0.21069  0.96476  1.0000
  C   C863      1.0  0.91531  0.37777  0.79772  1.0000
  Fe  Fe53      1.0  0.95340  0.29490  0.93677  1.0000
  C   C864      1.0  0.67803  0.01368  0.85664  1.0000
  C   C865      1.0  0.80836  0.14686  0.79149  1.0000
  H   H679      1.0  0.78716  0.24024  0.89801  1.0000
  S   S103      1.0  0.99482  0.35712  0.95041  1.0000
  C   C866      1.0  0.80778  0.03053  0.88543  1.0000
  S   S104      1.0  0.62199  0.25630  0.82895  1.0000
  C   C867      1.0  0.79752  0.02660  0.77397  1.0000
  C   C868      1.0  0.85950  0.16386  0.89286  1.0000
  C   C869      1.0  0.86588  0.07820  0.91411  1.0000
  C   C870      1.0  0.92661  0.19930  0.84837  1.0000
  H   H680      1.0  0.82818  0.05307  0.76261  1.0000
  H   H681      1.0  0.89486  0.42907  0.85092  1.0000
  S   S105      1.0  0.03949  0.28096  0.81808  1.0000
  Fe  Fe54      1.0  0.63171  0.12822  0.85685  1.0000
  H   H682      1.0  0.94152  0.05701  0.76275  1.0000
  C   C871      1.0  0.05018  0.47933  0.86141  1.0000
  C   C872      1.0  0.59183  0.34274  0.90765  1.0000
  C   C873      1.0  0.05524  0.03152  0.83797  1.0000
  C   C874      1.0  0.99330  0.05648  0.73217  1.0000
  C   C875      1.0  0.62830  0.30648  0.92020  1.0000
  H   H683      1.0  0.80146  0.12346  0.81966  1.0000
  C   C876      1.0  0.01580  0.07117  0.91605  1.0000
  C   C877      1.0  0.83571  0.24586  0.93249  1.0000
  Fe  Fe55      1.0  0.01194  0.37839  0.87884  1.0000
  H   H684      1.0  0.79219  0.47999  0.94350  1.0000
  C   C878      1.0  0.75649  0.34942  0.84373  1.0000
  C   C879      1.0  0.85037  0.19131  0.86929  1.0000
  H   H685      1.0  0.63288  0.28150  0.91541  1.0000
  H   H686      1.0  0.66710  0.39116  0.96405  1.0000
  C   C880      1.0  0.78282  0.16300  0.78618  1.0000
  H   H687      1.0  0.64329  0.41215  0.79340  1.0000
  C   C881      1.0  0.02618  0.48492  0.73820  1.0000
  C   C882      1.0  0.79199  0.19399  0.75053  1.0000
  C   C883      1.0  0.99237  0.16824  0.88605  1.0000
  S   S106      1.0  0.78204  0.44934  0.81946  1.0000
  H   H688      1.0  0.83128  0.41265  0.89667  1.0000
  C   C884      1.0  0.91159  0.39449  0.94726  1.0000
  C   C885      1.0  0.84344  0.16161  0.76115  1.0000
  H   H689      1.0  0.78741  0.02521  0.86240  1.0000
  H   H690      1.0  0.75785  0.36257  0.81082  1.0000
  C   C886      1.0  0.68402  0.29918  0.76017  1.0000
  C   C887      1.0  0.85328  0.40682  0.91081  1.0000
  H   H691      1.0  0.83668  0.13960  0.91890  1.0000
  C   C888      1.0  0.04412  0.17130  0.97052  1.0000
  H   H692      1.0  0.77029  0.06371  0.77566  1.0000
  H   H693      1.0  0.70435  0.40541  0.77677  1.0000
  C   C889      1.0  0.02801  0.17333  0.86380  1.0000
  C   C890      1.0  0.85434  0.31005  0.81088  1.0000
  C   C891      1.0  0.77864  0.44996  0.96494  1.0000
  C   C892      1.0  0.79480  0.23277  0.92857  1.0000
  H   H694      1.0  0.70828  0.35779  0.86837  1.0000
  C   C893      1.0  0.65427  0.33595  0.94177  1.0000
  S   S107      1.0  0.58597  0.06044  0.86951  1.0000
  S   S108      1.0  0.96691  0.31749  0.86538  1.0000
  H   H695      1.0  0.73915  0.41883  0.92230  1.0000
  C   C894      1.0  0.61565  0.41319  0.80005  1.0000
  C   C895      1.0  0.98733  0.11455  0.83364  1.0000
  H   H696      1.0  0.03130  0.46278  0.95493  1.0000
  S   S109      1.0  0.62843  0.16816  0.89898  1.0000
  S   S110      1.0  0.02785  0.10894  0.72869  1.0000
  H   H697      1.0  0.67442  0.24594  0.96455  1.0000
  C   C896      1.0  0.86112  0.04452  0.94412  1.0000
  C   C897      1.0  0.96673  0.48871  0.76178  1.0000
  S   S111      1.0  0.71319  0.19677  0.96276  1.0000
  S   S112      1.0  0.76098  0.21584  0.74502  1.0000
  H   H698      1.0  0.99478  0.19034  0.90486  1.0000
  H   H699      1.0  0.61351  0.39772  0.93260  1.0000
  C   C898      1.0  0.87556  0.38481  0.97343  1.0000
  C   C899      1.0  0.57802  0.38095  0.79511  1.0000
  P   P30       1.0  0.68179  0.00641  0.80252  1.0000
  C   C900      1.0  0.85004  0.31720  0.76803  1.0000
  H   H700      1.0  0.82495  0.29349  0.75652  1.0000
  C   C901      1.0  0.78256  0.31995  0.89576  1.0000
  C   C902      1.0  0.68188  0.10997  0.74613  1.0000
  H   H701      1.0  0.57725  0.35521  0.78447  1.0000
  C   C903      1.0  0.84621  0.39064  0.95480  1.0000
  H   H702      1.0  0.67915  0.26961  0.75626  1.0000
  C   C904      1.0  0.61771  0.44650  0.81474  1.0000
  C   C905      1.0  0.78425  0.33721  0.85344  1.0000
  H   H703      1.0  0.96794  0.02880  0.88677  1.0000
  C   C906      1.0  0.91152  0.38489  0.75447  1.0000
  H   H704      1.0  0.99471  0.38892  0.75407  1.0000
  C   C907      1.0  0.84480  0.23500  0.97218  1.0000
  H   H705      1.0  0.80701  0.34133  0.82800  1.0000
  H   H706      1.0  0.64725  0.34140  0.82375  1.0000
  C   C908      1.0  0.72624  0.32901  0.91915  1.0000
  C   C909      1.0  0.70010  0.05880  0.90685  1.0000
  H   H707      1.0  0.93503  0.39086  0.96064  1.0000
  S   S113      1.0  0.00090  0.27691  0.93765  1.0000
  C   C910      1.0  0.87929  0.22269  0.83533  1.0000
  C   C911      1.0  0.69823  0.37580  0.77163  1.0000
  S   S114      1.0  0.69647  0.14791  0.86183  1.0000
  H   H708      1.0  0.80446  0.31094  0.90338  1.0000
  C   C912      1.0  0.70435  0.05211  0.86559  1.0000
  S   S115      1.0  0.71601  0.24312  0.84107  1.0000
  H   H709      1.0  0.94618  0.41804  0.88333  1.0000
  H   H710      1.0  0.71989  0.08893  0.91319  1.0000
  C   C913      1.0  0.76448  0.03252  0.78124  1.0000
  S   S116      1.0  0.01890  0.43625  0.84113  1.0000
  Fe  Fe56      1.0  0.78294  0.46510  0.74903  1.0000
  C   C914      1.0  0.95215  0.03870  0.75009  1.0000
  H   H711      1.0  0.67050  0.12900  0.75496  1.0000
  C   C915      1.0  0.67514  0.07559  0.77598  1.0000
  C   C916      1.0  0.88666  0.34052  0.82587  1.0000
  C   C917      1.0  0.95395  0.13579  0.88273  1.0000
  H   H712      1.0  0.60833  0.32576  0.74582  1.0000
  H   H713      1.0  0.93418  0.47706  0.76534  1.0000
  H   H714      1.0  0.75304  0.30309  0.96113  1.0000
  C   C918      1.0  0.91815  0.41000  0.90322  1.0000
  H   H715      1.0  0.82065  0.18793  0.87688  1.0000
  C   C919      1.0  0.69100  0.05151  0.76481  1.0000
  H   H716      1.0  0.93983  0.25073  0.79843  1.0000
  S   S117      1.0  0.99541  0.19432  0.73199  1.0000
  C   C920      1.0  0.91743  0.22676  0.82505  1.0000
  H   H717      1.0  0.58342  0.47250  0.83798  1.0000
  P   P31       1.0  0.69471  0.33109  0.96226  1.0000
  C   C921      1.0  0.91563  0.13748  0.96476  1.0000
  C   C922      1.0  0.64786  0.36814  0.94730  1.0000
  C   C923      1.0  0.92461  0.99695  0.75204  1.0000
  H   H718      1.0  0.57834  0.28769  0.88539  1.0000
  H   H719      1.0  0.66532  0.03265  0.97099  1.0000
  C   C924      1.0  0.05236  0.99616  0.82712  1.0000
  H   H720      1.0  0.91659  0.99572  0.95406  1.0000
  H   H721      1.0  0.01681  0.14789  0.96213  1.0000
  H   H722      1.0  0.56217  0.16944  0.85519  1.0000
  C   C925      1.0  0.87859  0.35443  0.73985  1.0000
  C   C926      1.0  0.94707  0.02104  0.95368  1.0000
  C   C927      1.0  0.85245  0.19207  0.72477  1.0000
  H   H723      1.0  0.56487  0.07875  0.95837  1.0000
  C   C928      1.0  0.80312  0.99738  0.91560  1.0000
  C   C929      1.0  0.72451  0.99850  0.79446  1.0000
  H   H724      1.0  0.56667  0.11258  0.81380  1.0000
  H   H725      1.0  0.88927  0.17603  0.96601  1.0000
  H   H726      1.0  0.56152  0.01177  0.97105  1.0000
  H   H727      1.0  0.02371  0.35015  0.72608  1.0000
  C   C930      1.0  0.77333  0.20034  0.00417  1.0000
  H   H728      1.0  0.65861  0.00261  0.15180  1.0000
  C   C931      1.0  0.03259  0.47743  0.18746  1.0000
  C   C932      1.0  0.95056  0.41523  0.19795  1.0000
  C   C933      1.0  0.67746  0.09826  0.01539  1.0000
  S   S118      1.0  0.89415  0.24806  0.97990  1.0000
  H   H729      1.0  0.00305  0.38006  0.14248  1.0000
  H   H730      1.0  0.62788  0.21291  0.20278  1.0000
  C   C934      1.0  0.77020  0.13569  0.11754  1.0000
  H   H731      1.0  0.74950  0.18341  0.03215  1.0000
  H   H732      1.0  0.70484  0.24031  0.09970  1.0000
  S   S119      1.0  0.85290  0.07477  0.16364  1.0000
  S   S120      1.0  0.92388  0.18356  0.19092  1.0000
  C   C935      1.0  0.03395  0.07426  0.20382  1.0000
  C   C936      1.0  0.79406  0.29998  0.02827  1.0000
  C   C937      1.0  0.79311  0.02350  0.04786  1.0000
  P   P32       1.0  0.73277  0.08344  0.11577  1.0000
  H   H733      1.0  0.84848  0.24614  0.12963  1.0000
  H   H734      1.0  0.97473  0.30867  0.06815  1.0000
  H   H735      1.0  0.72681  0.15651  0.11919  1.0000
  C   C938      1.0  0.69903  0.47826  0.18680  1.0000
  Fe  Fe57      1.0  0.80787  0.41332  0.22150  1.0000
  C   C939      1.0  0.78636  0.99653  0.18047  1.0000
  C   C940      1.0  0.65323  0.99376  0.22014  1.0000
  C   C941      1.0  0.81350  0.21179  0.00763  1.0000
  S   S121      1.0  0.03599  0.02202  0.15623  1.0000
  C   C942      1.0  0.76150  0.99997  0.08298  1.0000
  H   H736      1.0  0.04644  0.04613  0.02135  1.0000
  H   H737      1.0  0.77728  0.22678  0.12577  1.0000
  C   C943      1.0  0.63359  0.24941  0.07745  1.0000
  C   C944      1.0  0.78848  0.08340  0.05408  1.0000
  H   H738      1.0  0.00445  0.07775  0.02037  1.0000
  C   C945      1.0  0.95410  0.31997  0.06259  1.0000
  C   C946      1.0  0.79184  0.44593  0.00392  1.0000
  C   C947      1.0  0.70488  0.09465  0.03960  1.0000
  H   H739      1.0  0.74446  0.29044  0.14277  1.0000
  C   C948      1.0  0.90260  0.16071  0.98369  1.0000
  H   H740      1.0  0.71992  0.99927  0.13177  1.0000
  H   H741      1.0  0.93495  0.02071  0.02049  1.0000
  P   P33       1.0  0.86874  0.36946  0.03092  1.0000
  H   H742      1.0  0.79901  0.99404  0.15057  1.0000
  C   C949      1.0  0.92338  0.14464  0.05008  1.0000
  C   C950      1.0  0.95745  0.03511  0.99116  1.0000
  H   H743      1.0  0.61346  0.18475  0.09453  1.0000
  Fe  Fe58      1.0  0.81265  0.33790  0.21396  1.0000
  H   H744      1.0  0.65226  0.07458  0.13956  1.0000
  H   H745      1.0  0.87839  0.45136  0.99717  1.0000
  C   C951      1.0  0.64121  0.09318  0.03581  1.0000
  C   C952      1.0  0.89822  0.44743  0.11409  1.0000
  C   C953      1.0  0.99699  0.06713  0.99111  1.0000
  H   H746      1.0  0.93084  0.25356  0.21210  1.0000
  S   S122      1.0  0.56407  0.03537  0.18291  1.0000
  C   C954      1.0  0.80636  0.06510  0.03320  1.0000
  H   H747      1.0  0.82043  0.12454  0.12074  1.0000
  C   C955      1.0  0.75375  0.26839  0.04525  1.0000
  H   H748      1.0  0.01695  0.32425  0.14068  1.0000
  C   C956      1.0  0.89008  0.41403  0.09550  1.0000
  C   C957      1.0  0.93368  0.11888  0.98870  1.0000
  Fe  Fe59      1.0  0.72979  0.33273  0.22324  1.0000
  C   C958      1.0  0.75818  0.16471  0.11975  1.0000
  H   H749      1.0  0.05664  0.45007  0.02049  1.0000
  C   C959      1.0  0.62859  0.21251  0.06926  1.0000
  C   C960      1.0  0.03258  0.38786  0.12641  1.0000
  H   H750      1.0  0.78595  0.40378  0.06075  1.0000
  Fe  Fe60      1.0  0.98492  0.18916  0.19174  1.0000
  C   C961      1.0  0.60964  0.47579  0.19661  1.0000
  C   C962      1.0  0.56730  0.29852  0.20656  1.0000
  C   C963      1.0  0.88158  0.41412  0.05365  1.0000
  H   H751      1.0  0.73664  0.24592  0.02691  1.0000
  S   S123      1.0  0.85125  0.31861  0.17967  1.0000
  C   C964      1.0  0.75687  0.06002  0.08979  1.0000
  C   C965      1.0  0.89904  0.48181  0.09064  1.0000
  H   H752      1.0  0.83098  0.08338  0.00613  1.0000
  C   C966      1.0  0.04018  0.35579  0.12544  1.0000
  H   H753      1.0  0.03394  0.09121  0.08234  1.0000
  H   H754      1.0  0.91892  0.39066  0.20222  1.0000
  C   C967      1.0  0.86660  0.29080  0.21435  1.0000
  C   C968      1.0  0.89198  0.48291  0.04847  1.0000
  H   H755      1.0  0.55860  0.34645  0.17413  1.0000
  C   C969      1.0  0.90133  0.34956  0.04534  1.0000
  C   C970      1.0  0.80798  0.03259  0.19560  1.0000
  C   C971      1.0  0.77501  0.40700  0.03094  1.0000
  H   H756      1.0  0.81559  0.47292  0.01283  1.0000
  C   C972      1.0  0.65362  0.28535  0.04496  1.0000
  H   H757      1.0  0.62055  0.09702  0.01692  1.0000
  C   C973      1.0  0.73061  0.37599  0.98041  1.0000
  H   H758      1.0  0.89620  0.18221  0.04048  1.0000
  C   C974      1.0  0.73570  0.26522  0.08623  1.0000
  H   H759      1.0  0.70647  0.01629  0.01830  1.0000
  C   C975      1.0  0.67193  0.01603  0.17808  1.0000
  C   C976      1.0  0.82705  0.21570  0.12508  1.0000
  C   C977      1.0  0.74487  0.37206  0.01905  1.0000
  H   H760      1.0  0.60040  0.31669  0.19807  1.0000
  H   H761      1.0  0.73383  0.34215  0.03955  1.0000
  C   C978      1.0  0.03796  0.46388  0.02085  1.0000
  H   H762      1.0  0.62226  0.25026  0.10912  1.0000
  C   C979      1.0  0.69609  0.08559  0.08463  1.0000
  H   H763      1.0  0.81240  0.18416  0.20528  1.0000
  C   C980      1.0  0.04428  0.20551  0.98094  1.0000
  C   C981      1.0  0.88732  0.30734  0.05110  1.0000
  C   C982      1.0  0.79823  0.32505  0.09348  1.0000
  H   H764      1.0  0.67330  0.46400  0.17061  1.0000
  H   H765      1.0  0.80806  0.30111  0.99702  1.0000
  S   S124      1.0  0.66677  0.29809  0.20815  1.0000
  C   C983      1.0  0.72387  0.07154  0.20524  1.0000
  C   C984      1.0  0.78659  0.20456  0.12344  1.0000
  H   H766      1.0  0.90294  0.26026  0.06415  1.0000
  H   H767      1.0  0.81560  0.34557  0.11315  1.0000
  C   C985      1.0  0.88331  0.44930  0.02998  1.0000
  H   H768      1.0  0.65689  0.31361  0.05165  1.0000
  C   C986      1.0  0.66965  0.28484  0.00431  1.0000
  C   C987      1.0  0.02369  0.47120  0.98357  1.0000
  C   C988      1.0  0.97616  0.42871  0.15827  1.0000
  H   H769      1.0  0.79965  0.11591  0.04255  1.0000
  S   S125      1.0  0.84356  0.47998  0.18884  1.0000
  S   S126      1.0  0.95912  0.12177  0.19542  1.0000
  H   H770      1.0  0.90335  0.44647  0.14694  1.0000
  S   S127      1.0  0.78759  0.37168  0.17569  1.0000
  H   H771      1.0  0.95052  0.10714  0.04989  1.0000
  H   H772      1.0  0.87034  0.19517  0.12603  1.0000
  C   C989      1.0  0.81079  0.14686  0.12023  1.0000
  H   H773      1.0  0.75170  0.10109  0.20048  1.0000
  C   C990      1.0  0.96843  0.36200  0.05584  1.0000
  C   C991      1.0  0.74352  0.01810  0.10399  1.0000
  Fe  Fe61      1.0  0.89754  0.11548  0.20140  1.0000
  C   C992      1.0  0.01775  0.45896  0.15307  1.0000
  H   H774      1.0  0.63996  0.18309  0.02209  1.0000
  H   H775      1.0  0.92578  0.14693  0.08322  1.0000
  C   C993      1.0  0.90641  0.16420  0.02615  1.0000
  C   C994      1.0  0.01552  0.03349  0.19930  1.0000
  H   H776      1.0  0.73347  0.10050  0.02290  1.0000
  H   H777      1.0  0.91056  0.29518  0.16452  1.0000
  C   C995      1.0  0.66357  0.24747  0.99603  1.0000
  C   C996      1.0  0.02829  0.47437  0.05824  1.0000
  H   H778      1.0  0.01713  0.20781  0.98128  1.0000
  C   C997      1.0  0.93725  0.12215  0.03126  1.0000
  C   C998      1.0  0.75800  0.29348  0.11044  1.0000
  C   C999      1.0  0.57887  0.47024  0.17267  1.0000
  C   C1000     1.0  0.81636  0.32911  0.05207  1.0000
  C   C1001     1.0  0.94212  0.37675  0.04778  1.0000
  H   H779      1.0  0.00030  0.38297  0.05551  1.0000
  H   H780      1.0  0.68514  0.10683  0.98068  1.0000
  C   C1002     1.0  0.05538  0.15493  0.08216  1.0000
  C   C1003     1.0  0.64347  0.21156  0.02853  1.0000
  H   H781      1.0  0.82059  0.20318  0.03809  1.0000
  H   H782      1.0  0.60445  0.08099  0.09650  1.0000
  H   H783      1.0  0.02682  0.15291  0.07704  1.0000
  C   C1004     1.0  0.63232  0.08443  0.08053  1.0000
  C   C1005     1.0  0.83918  0.18687  0.12349  1.0000
  H   H784      1.0  0.85649  0.28561  0.04783  1.0000
  H   H785      1.0  0.80778  0.00963  0.03261  1.0000
  C   C1006     1.0  0.65957  0.08064  0.10492  1.0000
  H   H786      1.0  0.96385  0.41410  0.13221  1.0000
  C   C1007     1.0  0.91354  0.29270  0.06042  1.0000
  H   H787      1.0  0.88993  0.38783  0.11396  1.0000
  H   H788      1.0  0.95359  0.40936  0.04243  1.0000
  S   S128      1.0  0.03732  0.24019  0.14237  1.0000
  C   C1008     1.0  0.89621  0.28282  0.19794  1.0000
  C   C1009     1.0  0.70774  0.05501  0.17023  1.0000
  P   P34       1.0  0.05173  0.47012  0.10407  1.0000
  H   H789      1.0  0.94468  0.10156  0.97446  1.0000
  H   H790      1.0  0.81854  0.38401  0.97446  1.0000
  C   C1010     1.0  0.64383  0.40412  0.33550  1.0000
  H   H791      1.0  0.57887  0.43329  0.33222  1.0000
  H   H792      1.0  0.72027  0.22945  0.44250  1.0000
  C   C1011     1.0  0.69321  0.47809  0.23067  1.0000
  C   C1012     1.0  0.67420  0.04803  0.40997  1.0000
  H   H793      1.0  0.95353  0.05497  0.42998  1.0000
  C   C1013     1.0  0.75563  0.00205  0.25927  1.0000
  Fe  Fe62      1.0  0.55771  0.03340  0.25355  1.0000
  H   H794      1.0  0.05520  0.31346  0.42184  1.0000
  Fe  Fe63      1.0  0.97000  0.38748  0.42414  1.0000
  Fe  Fe64      1.0  0.03550  0.38129  0.37247  1.0000
  H   H795      1.0  0.04877  0.02576  0.29170  1.0000
  C   C1014     1.0  0.86448  0.33830  0.43520  1.0000
  S   S129      1.0  0.83639  0.38197  0.25746  1.0000
  H   H796      1.0  0.88520  0.10814  0.45204  1.0000
  H   H797      1.0  0.74389  0.00447  0.28963  1.0000
  C   C1015     1.0  0.79988  0.12900  0.30400  1.0000
  H   H798      1.0  0.73769  0.16773  0.32004  1.0000
  Fe  Fe65      1.0  0.77410  0.34140  0.29872  1.0000
  S   S130      1.0  0.01322  0.45224  0.42959  1.0000
  H   H799      1.0  0.62318  0.29436  0.45880  1.0000
  S   S131      1.0  0.74755  0.37707  0.26653  1.0000
  H   H800      1.0  0.61261  0.99629  0.42991  1.0000
  C   C1016     1.0  0.94273  0.27257  0.39883  1.0000
  C   C1017     1.0  0.74048  0.14690  0.40798  1.0000
  Fe  Fe66      1.0  0.58476  0.08184  0.32341  1.0000
  C   C1018     1.0  0.90727  0.25872  0.22468  1.0000
  H   H801      1.0  0.71655  0.06297  0.27396  1.0000
  C   C1019     1.0  0.82609  0.32337  0.45959  1.0000
  H   H802      1.0  0.82971  0.99594  0.40986  1.0000
  C   C1020     1.0  0.77256  0.13684  0.32671  1.0000
  H   H803      1.0  0.94641  0.42125  0.26353  1.0000
  C   C1021     1.0  0.79556  0.11255  0.40644  1.0000
  C   C1022     1.0  0.69788  0.17728  0.41305  1.0000
  H   H804      1.0  0.81491  0.04732  0.47224  1.0000
  H   H805      1.0  0.83811  0.33616  0.33623  1.0000
  C   C1023     1.0  0.68851  0.99660  0.36752  1.0000
  C   C1024     1.0  0.82490  0.46412  0.44433  1.0000
  C   C1025     1.0  0.77252  0.17727  0.26034  1.0000
  H   H806      1.0  0.57459  0.22098  0.37295  1.0000
  S   S132      1.0  0.01191  0.36495  0.44294  1.0000
  S   S133      1.0  0.60384  0.04181  0.29674  1.0000
  H   H807      1.0  0.81188  0.11140  0.32024  1.0000
  Fe  Fe67      1.0  0.95082  0.11511  0.26677  1.0000
  S   S134      1.0  0.98177  0.18330  0.26278  1.0000
  H   H808      1.0  0.03069  0.11634  0.23918  1.0000
  H   H809      1.0  0.65075  0.42961  0.35073  1.0000
  H   H810      1.0  0.74985  0.04725  0.34749  1.0000
  S   S135      1.0  0.88790  0.10563  0.27307  1.0000
  S   S136      1.0  0.70276  0.46469  0.41102  1.0000
  C   C1026     1.0  0.96602  0.43246  0.23248  1.0000
  C   C1027     1.0  0.86879  0.34226  0.39074  1.0000
  H   H811      1.0  0.90675  0.27265  0.35075  1.0000
  Fe  Fe68      1.0  0.03858  0.46405  0.36068  1.0000
  C   C1028     1.0  0.65499  0.45554  0.43368  1.0000
  H   H812      1.0  0.66783  0.06693  0.42709  1.0000
  H   H813      1.0  0.61543  0.15166  0.25524  1.0000
  C   C1029     1.0  0.79715  0.32123  0.39479  1.0000
  H   H814      1.0  0.90316  0.04590  0.38296  1.0000
  C   C1030     1.0  0.63215  0.18298  0.30715  1.0000
  C   C1031     1.0  0.86749  0.14542  0.41233  1.0000
  C   C1032     1.0  0.62463  0.18007  0.26537  1.0000
  C   C1033     1.0  0.83528  0.14707  0.39616  1.0000
  H   H815      1.0  0.55879  0.14974  0.40120  1.0000
  H   H816      1.0  0.84596  0.25344  0.40323  1.0000
  C   C1034     1.0  0.80014  0.16981  0.23850  1.0000
  H   H817      1.0  0.58813  0.07800  0.43895  1.0000
  C   C1035     1.0  0.84630  0.42398  0.39121  1.0000
  H   H818      1.0  0.97252  0.27149  0.45197  1.0000
  H   H819      1.0  0.68524  0.12834  0.38093  1.0000
  C   C1036     1.0  0.63192  0.21487  0.23554  1.0000
  P   P35       1.0  0.75470  0.11489  0.38359  1.0000
  C   C1037     1.0  0.75945  0.20401  0.44355  1.0000
  C   C1038     1.0  0.63613  0.40589  0.29334  1.0000
  C   C1039     1.0  0.86016  0.10938  0.43957  1.0000
  C   C1040     1.0  0.98038  0.99481  0.38356  1.0000
  H   H820      1.0  0.89749  0.43893  0.42345  1.0000
  C   C1041     1.0  0.76683  0.17446  0.43109  1.0000
  C   C1042     1.0  0.96545  0.01252  0.26334  1.0000
  C   C1043     1.0  0.87321  0.25693  0.41458  1.0000
  C   C1044     1.0  0.89290  0.02859  0.41599  1.0000
  C   C1045     1.0  0.81128  0.42627  0.38785  1.0000
  S   S137      1.0  0.75654  0.31758  0.37015  1.0000
  C   C1046     1.0  0.60134  0.46576  0.32700  1.0000
  C   C1047     1.0  0.98312  0.05366  0.26675  1.0000
  C   C1048     1.0  0.60963  0.48056  0.45077  1.0000
  H   H821      1.0  0.83529  0.14021  0.24276  1.0000
  H   H822      1.0  0.76289  0.19696  0.24347  1.0000
  H   H823      1.0  0.01550  0.38954  0.23268  1.0000
  S   S138      1.0  0.62374  0.13997  0.34465  1.0000
  H   H824      1.0  0.98559  0.02380  0.38962  1.0000
  H   H825      1.0  0.82625  0.28208  0.27074  1.0000
  C   C1049     1.0  0.02751  0.34068  0.23001  1.0000
  C   C1050     1.0  0.88822  0.24186  0.26766  1.0000
  C   C1051     1.0  0.63026  0.37366  0.27342  1.0000
  C   C1052     1.0  0.94449  0.26762  0.44255  1.0000
  H   H826      1.0  0.04149  0.13945  0.32840  1.0000
  C   C1053     1.0  0.72012  0.03679  0.36559  1.0000
  C   C1054     1.0  0.64723  0.22081  0.31901  1.0000
  H   H827      1.0  0.77421  0.44953  0.41076  1.0000
  H   H828      1.0  0.76342  0.30590  0.45821  1.0000
  S   S139      1.0  0.75306  0.29499  0.25773  1.0000
  S   S140      1.0  0.90610  0.35240  0.46182  1.0000
  Fe  Fe69      1.0  0.91947  0.17471  0.26229  1.0000
  C   C1055     1.0  0.70551  0.14820  0.39979  1.0000
  C   C1056     1.0  0.64277  0.00767  0.41207  1.0000
  C   C1057     1.0  0.79255  0.31529  0.43943  1.0000
  H   H829      1.0  0.01843  0.47788  0.25378  1.0000
  C   C1058     1.0  0.64512  0.37041  0.35758  1.0000
  H   H830      1.0  0.79400  0.17451  0.43814  1.0000
  H   H831      1.0  0.56211  0.38055  0.26261  1.0000
  C   C1059     1.0  0.00675  0.46416  0.22701  1.0000
  C   C1060     1.0  0.82051  0.07505  0.45075  1.0000
  C   C1061     1.0  0.75863  0.16079  0.30426  1.0000
  C   C1062     1.0  0.79281  0.03505  0.23537  1.0000
  H   H832      1.0  0.89822  0.17214  0.40313  1.0000
  P   P36       1.0  0.64264  0.45270  0.26201  1.0000
  H   H833      1.0  0.62729  0.31542  0.27974  1.0000
  C   C1063     1.0  0.64786  0.25283  0.24726  1.0000
  C   C1064     1.0  0.81330  0.14520  0.25998  1.0000
  H   H834      1.0  0.03289  0.07127  0.33090  1.0000
  C   C1065     1.0  0.62468  0.41578  0.45564  1.0000
  C   C1066     1.0  0.85938  0.46059  0.44888  1.0000
  C   C1067     1.0  0.60416  0.44341  0.22886  1.0000
  H   H835      1.0  0.80905  0.06283  0.24714  1.0000
  H   H836      1.0  0.89822  0.35270  0.37194  1.0000
  S   S141      1.0  0.89847  0.20780  0.30015  1.0000
  C   C1068     1.0  0.63708  0.48350  0.29634  1.0000
  C   C1069     1.0  0.63079  0.33961  0.29579  1.0000
  H   H837      1.0  0.90981  0.45487  0.30776  1.0000
  H   H838      1.0  0.84471  0.23812  0.31761  1.0000
  H   H839      1.0  0.90779  0.46982  0.23026  1.0000
  S   S142      1.0  0.99136  0.40094  0.35330  1.0000
  H   H840      1.0  0.96880  0.28001  0.37559  1.0000
  H   H841      1.0  0.65297  0.37039  0.38940  1.0000
  C   C1070     1.0  0.93208  0.48469  0.28771  1.0000
  C   C1071     1.0  0.83478  0.33290  0.37057  1.0000
  C   C1072     1.0  0.78827  0.07664  0.43437  1.0000
  C   C1073     1.0  0.58224  0.06098  0.47159  1.0000
  H   H842      1.0  0.82302  0.46289  0.28129  1.0000
  C   C1074     1.0  0.72516  0.20560  0.43428  1.0000
  H   H843      1.0  0.85534  0.40985  0.36946  1.0000
  C   C1075     1.0  0.80063  0.44650  0.41433  1.0000
  H   H844      1.0  0.66931  0.28531  0.29776  1.0000
  C   C1076     1.0  0.85969  0.25117  0.28446  1.0000
  H   H845      1.0  0.79286  0.41300  0.36414  1.0000
  C   C1077     1.0  0.64697  0.48759  0.43054  1.0000
  C   C1078     1.0  0.85140  0.00050  0.43124  1.0000
  C   C1079     1.0  0.05282  0.09051  0.35030  1.0000
  C   C1080     1.0  0.87447  0.25106  0.45855  1.0000
  H   H846      1.0  0.67175  0.17912  0.40505  1.0000
  C   C1081     1.0  0.84900  0.27581  0.25785  1.0000
  S   S143      1.0  0.96058  0.06757  0.30552  1.0000
  H   H847      1.0  0.84140  0.17525  0.37520  1.0000
  C   C1082     1.0  0.65517  0.25569  0.28908  1.0000
  H   H848      1.0  0.62703  0.37566  0.24001  1.0000
  H   H849      1.0  0.65413  0.22353  0.35088  1.0000
  C   C1083     1.0  0.70412  0.04984  0.24721  1.0000
  C   C1084     1.0  0.71321  0.06299  0.38670  1.0000
  C   C1085     1.0  0.01742  0.08445  0.23706  1.0000
  C   C1086     1.0  0.66901  0.01079  0.25466  1.0000
  H   H850      1.0  0.64131  0.31282  0.35416  1.0000
  C   C1087     1.0  0.90743  0.26793  0.38480  1.0000
  C   C1088     1.0  0.98123  0.00252  0.22910  1.0000
  C   C1089     1.0  0.92138  0.03382  0.44292  1.0000
  C   C1090     1.0  0.63862  0.33813  0.33773  1.0000
  H   H851      1.0  0.75789  0.04982  0.44315  1.0000
  C   C1091     1.0  0.56729  0.40548  0.23720  1.0000
  C   C1092     1.0  0.87008  0.44055  0.42190  1.0000
  H   H852      1.0  0.63057  0.39082  0.45767  1.0000
  H   H853      1.0  0.04866  0.29857  0.22494  1.0000
  H   H854      1.0  0.99546  0.31683  0.23605  1.0000
  H   H855      1.0  0.56718  0.24493  0.23834  1.0000
  C   C1093     1.0  0.91063  0.25767  0.47303  1.0000
  H   H856      1.0  0.81715  0.48122  0.46325  1.0000
  S   S144      1.0  0.04761  0.34234  0.33483  1.0000
  H   H857      1.0  0.56639  0.47634  0.37418  1.0000
  H   H858      1.0  0.78100  0.22664  0.45919  1.0000
  C   C1094     1.0  0.03890  0.38170  0.22829  1.0000
  Fe  Fe70      1.0  0.05679  0.43076  0.44227  1.0000
  H   H859      1.0  0.65427  0.99332  0.28716  1.0000
  C   C1095     1.0  0.57990  0.44117  0.47373  1.0000
  H   H860      1.0  0.83210  0.71677  0.59507  1.0000
  H   H861      1.0  0.86901  0.96988  0.69306  1.0000
  H   H862      1.0  0.58970  0.96010  0.70374  1.0000
  H   H863      1.0  0.02152  0.49682  0.51777  1.0000
  H   H864      1.0  0.88747  0.62690  0.59366  1.0000
  H   H865      1.0  0.01347  0.78009  0.67394  1.0000
  H   H866      1.0  0.74249  0.49987  0.62753  1.0000
  H   H867      1.0  0.90668  0.52312  0.60533  1.0000
  C   C1096     1.0  0.99875  0.94533  0.53134  1.0000
  C   C1097     1.0  0.96630  0.49369  0.50223  1.0000
  H   H868      1.0  0.80330  0.69747  0.67190  1.0000
  H   H869      1.0  0.97214  0.52661  0.58480  1.0000
  H   H870      1.0  0.57076  0.94245  0.55552  1.0000
  H   H871      1.0  0.66359  0.59705  0.49576  1.0000
  C   C1098     1.0  0.79885  0.86295  0.56033  1.0000
  H   H872      1.0  0.05605  0.53547  0.65837  1.0000
  Fe  Fe71      1.0  0.95214  0.82563  0.71090  1.0000
  C   C1099     1.0  0.60534  0.52584  0.69814  1.0000
  C   C1100     1.0  0.95103  0.50471  0.61337  1.0000
  H   H873      1.0  0.80817  0.75085  0.54253  1.0000
  C   C1101     1.0  0.87717  0.69431  0.68871  1.0000
  C   C1102     1.0  0.79204  0.71196  0.64951  1.0000
  H   H874      1.0  0.83261  0.54941  0.56761  1.0000
  C   C1103     1.0  0.56737  0.91586  0.50049  1.0000
  H   H875      1.0  0.00584  0.61386  0.65191  1.0000
  C   C1104     1.0  0.99645  0.68326  0.67809  1.0000
  H   H876      1.0  0.56868  0.60058  0.57201  1.0000
  C   C1105     1.0  0.01235  0.72215  0.68820  1.0000
  C   C1106     1.0  0.69171  0.50937  0.63652  1.0000
  C   C1107     1.0  0.03062  0.60906  0.64244  1.0000
  H   H877      1.0  0.61274  0.61928  0.50217  1.0000
  C   C1108     1.0  0.81726  0.85768  0.52434  1.0000
  C   C1109     1.0  0.96175  0.97993  0.51102  1.0000
  H   H878      1.0  0.90137  0.74251  0.47819  1.0000
  H   H879      1.0  0.72551  0.54643  0.50934  1.0000
  H   H880      1.0  0.80602  0.95572  0.48561  1.0000
  H   H881      1.0  0.72594  0.74732  0.64415  1.0000
  H   H882      1.0  0.01915  0.94149  0.55058  1.0000
  C   C1110     1.0  0.76204  0.56136  0.63495  1.0000
  C   C1111     1.0  0.74999  0.58954  0.64074  1.0000
  H   H883      1.0  0.00145  0.54831  0.68247  1.0000
  H   H884      1.0  0.63420  0.72780  0.47528  1.0000
  C   C1112     1.0  0.86384  0.48958  0.52825  1.0000
  H   H885      1.0  0.95921  0.64280  0.63910  1.0000
  C   C1113     1.0  0.94213  0.95140  0.48559  1.0000
  S   S145      1.0  0.66531  0.87455  0.71705  1.0000
  C   C1114     1.0  0.85889  0.52340  0.52991  1.0000
  C   C1115     1.0  0.98932  0.97583  0.53486  1.0000
  Fe  Fe72      1.0  0.70660  0.84906  0.71665  1.0000
  C   C1116     1.0  0.61965  0.89183  0.53347  1.0000
  H   H886      1.0  0.86152  0.84300  0.50040  1.0000
  C   C1117     1.0  0.85340  0.63296  0.54530  1.0000
  H   H887      1.0  0.77786  0.52745  0.51718  1.0000
  C   C1118     1.0  0.88683  0.63220  0.55963  1.0000
  H   H888      1.0  0.87305  0.55028  0.50363  1.0000
  C   C1119     1.0  0.60743  0.91425  0.55478  1.0000
  C   C1120     1.0  0.97181  0.67291  0.64667  1.0000
  H   H889      1.0  0.85188  0.84648  0.63371  1.0000
  C   C1121     1.0  0.84203  0.84930  0.60332  1.0000
  H   H890      1.0  0.61117  0.67536  0.61623  1.0000
  C   C1122     1.0  0.87749  0.94877  0.63693  1.0000
  H   H891      1.0  0.61034  0.60930  0.68064  1.0000
  S   S146      1.0  0.68198  0.81558  0.66451  1.0000
  C   C1123     1.0  0.76216  0.72065  0.66378  1.0000
  H   H892      1.0  0.63990  0.88281  0.54669  1.0000
  P   P37       1.0  0.62594  0.52228  0.64727  1.0000
  H   H893      1.0  0.75513  0.76620  0.56711  1.0000
  C   C1124     1.0  0.60582  0.88124  0.49543  1.0000
  C   C1125     1.0  0.59383  0.56718  0.60516  1.0000
  C   C1126     1.0  0.58117  0.92612  0.53837  1.0000
  C   C1127     1.0  0.91789  0.64470  0.48618  1.0000
  H   H894      1.0  0.94855  0.56657  0.50519  1.0000
  H   H895      1.0  0.79404  0.57061  0.63226  1.0000
  H   H896      1.0  0.58081  0.87448  0.67646  1.0000
  S   S147      1.0  0.89792  0.83086  0.57192  1.0000
  H   H897      1.0  0.59517  0.73464  0.71301  1.0000
  C   C1128     1.0  0.65492  0.77561  0.56144  1.0000
  C   C1129     1.0  0.86654  0.98372  0.50101  1.0000
  Fe  Fe73      1.0  0.92715  0.85041  0.62874  1.0000
  S   S148      1.0  0.98731  0.89014  0.72050  1.0000
  C   C1130     1.0  0.67074  0.82097  0.49246  1.0000
  H   H898      1.0  0.61803  0.92205  0.58428  1.0000
  H   H899      1.0  0.77289  0.62056  0.64246  1.0000
  C   C1131     1.0  0.74583  0.50354  0.52519  1.0000
  C   C1132     1.0  0.55846  0.86206  0.65609  1.0000
  H   H900      1.0  0.85654  0.91668  0.65184  1.0000
  Fe  Fe74      1.0  0.02063  0.68234  0.50795  1.0000
  C   C1133     1.0  0.97849  0.73997  0.63481  1.0000
  H   H901      1.0  0.82870  0.62887  0.56813  1.0000
  H   H902      1.0  0.66972  0.55579  0.55867  1.0000
  Fe  Fe75      1.0  0.72988  0.87361  0.61850  1.0000
  C   C1134     1.0  0.91412  0.50279  0.62496  1.0000
  C   C1135     1.0  0.79457  0.74158  0.57614  1.0000
  C   C1136     1.0  0.85120  0.63728  0.50164  1.0000
  C   C1137     1.0  0.71620  0.51436  0.52088  1.0000
  C   C1138     1.0  0.59122  0.67829  0.63942  1.0000
  C   C1139     1.0  0.63515  0.82245  0.50251  1.0000
  C   C1140     1.0  0.73296  0.52141  0.63259  1.0000
  C   C1141     1.0  0.70873  0.57767  0.64448  1.0000
  C   C1142     1.0  0.80820  0.72248  0.60584  1.0000
  C   C1143     1.0  0.68062  0.79779  0.52195  1.0000
  C   C1144     1.0  0.76469  0.75017  0.59004  1.0000
  S   S149      1.0  0.80721  0.63309  0.48429  1.0000
  C   C1145     1.0  0.58218  0.71146  0.69419  1.0000
  Fe  Fe76      1.0  0.93294  0.89329  0.70341  1.0000
  H   H903      1.0  0.68129  0.98720  0.47694  1.0000
  S   S150      1.0  0.95974  0.63472  0.54840  1.0000
  C   C1146     1.0  0.60926  0.79967  0.54211  1.0000
  H   H904      1.0  0.64070  0.72547  0.66286  1.0000
  Fe  Fe77      1.0  0.71570  0.92769  0.66812  1.0000
  H   H905      1.0  0.00299  0.66086  0.69456  1.0000
  C   C1147     1.0  0.61574  0.60144  0.52996  1.0000
  C   C1148     1.0  0.02816  0.57197  0.65955  1.0000
  S   S151      1.0  0.68998  0.90086  0.61276  1.0000
  C   C1149     1.0  0.62209  0.55398  0.60186  1.0000
  H   H906      1.0  0.70001  0.60006  0.64831  1.0000
  S   S152      1.0  0.76080  0.87518  0.55531  1.0000
  S   S153      1.0  0.89644  0.82750  0.69743  1.0000
  S   S154      1.0  0.97984  0.84263  0.64153  1.0000
  H   H907      1.0  0.98632  0.89348  0.50364  1.0000
  C   C1150     1.0  0.61903  0.77619  0.57131  1.0000
  Fe  Fe78      1.0  0.01031  0.90766  0.64948  1.0000
  C   C1151     1.0  0.64416  0.58876  0.52637  1.0000
  H   H908      1.0  0.81908  0.85720  0.71244  1.0000
  H   H909      1.0  0.59919  0.75948  0.60208  1.0000
  S   S155      1.0  0.95878  0.91652  0.63340  1.0000
  C   C1152     1.0  0.66705  0.65316  0.69704  1.0000
  H   H910      1.0  0.94422  0.69345  0.60035  1.0000
  H   H911      1.0  0.66341  0.75880  0.58463  1.0000
  C   C1153     1.0  0.64744  0.56524  0.56216  1.0000
  C   C1154     1.0  0.89717  0.96019  0.59444  1.0000
  H   H912      1.0  0.68545  0.65155  0.67092  1.0000
  S   S156      1.0  0.75882  0.90434  0.67103  1.0000
  C   C1155     1.0  0.62449  0.62886  0.70261  1.0000
  C   C1156     1.0  0.83558  0.52295  0.56602  1.0000
  C   C1157     1.0  0.86754  0.65623  0.71319  1.0000
  C   C1158     1.0  0.91918  0.63810  0.53005  1.0000
  C   C1159     1.0  0.59079  0.59081  0.56938  1.0000
  H   H913      1.0  0.66229  0.55190  0.72286  1.0000
  Fe  Fe79      1.0  0.64367  0.84471  0.66206  1.0000
  H   H914      1.0  0.97092  0.76162  0.61842  1.0000
  H   H915      1.0  0.57385  0.55944  0.63489  1.0000
  C   C1160     1.0  0.00275  0.75028  0.66653  1.0000
  H   H916      1.0  0.58199  0.80077  0.55092  1.0000
  C   C1161     1.0  0.60788  0.70672  0.66535  1.0000
  H   H917      1.0  0.78604  0.79626  0.68112  1.0000
  H   H918      1.0  0.90869  0.75967  0.68357  1.0000
  C   C1162     1.0  0.98014  0.91807  0.50492  1.0000
  H   H919      1.0  0.70898  0.79823  0.51472  1.0000
  H   H920      1.0  0.78903  0.98698  0.60666  1.0000
  H   H921      1.0  0.80795  0.86127  0.49370  1.0000
  S   S157      1.0  0.83172  0.61125  0.69918  1.0000
  H   H922      1.0  0.86501  0.69580  0.65956  1.0000
  C   C1163     1.0  0.74845  0.73969  0.63370  1.0000
  C   C1164     1.0  0.95149  0.92082  0.48246  1.0000
  H   H923      1.0  0.79649  0.86216  0.62775  1.0000
  H   H924      1.0  0.99005  0.97207  0.70626  1.0000
  C   C1165     1.0  0.84752  0.84745  0.52806  1.0000
  C   C1166     1.0  0.86010  0.84355  0.56751  1.0000
  H   H925      1.0  0.89081  0.93651  0.57655  1.0000
  S   S158      1.0  0.57853  0.80257  0.65628  1.0000
  C   C1167     1.0  0.96312  0.70138  0.62483  1.0000
  C   C1168     1.0  0.90199  0.73046  0.70229  1.0000
  C   C1169     1.0  0.81087  0.85832  0.59991  1.0000
  C   C1170     1.0  0.67912  0.53717  0.64335  1.0000
  C   C1171     1.0  0.78232  0.79195  0.71552  1.0000
  H   H926      1.0  0.69365  0.93010  0.47915  1.0000
  P   P38       1.0  0.89404  0.48944  0.48212  1.0000
  P   P39       1.0  0.74066  0.70685  0.72005  1.0000
  C   C1172     1.0  0.56317  0.51034  0.70842  1.0000
  S   S159      1.0  0.05631  0.74114  0.52955  1.0000
  H   H927      1.0  0.98215  0.52648  0.48970  1.0000
  C   C1173     1.0  0.57991  0.89382  0.47888  1.0000
  H   H928      1.0  0.72913  0.98073  0.52176  1.0000
  H   H929      1.0  0.65180  0.49213  0.52694  1.0000
  C   C1174     1.0  0.88489  0.97880  0.66039  1.0000
  H   H930      1.0  0.85540  0.96558  0.53354  1.0000
  H   H931      1.0  0.61820  0.98474  0.62708  1.0000
  H   H932      1.0  0.98994  0.49627  0.95382  1.0000
  C   C1175     1.0  0.65735  0.50203  0.89737  1.0000
  C   C1176     1.0  0.59078  0.73253  0.80337  1.0000
  H   H933      1.0  0.57011  0.85019  0.94672  1.0000
  C   C1177     1.0  0.58822  0.70328  0.83731  1.0000
  H   H934      1.0  0.00853  0.80569  0.81500  1.0000
  H   H935      1.0  0.56712  0.61089  0.74114  1.0000
  H   H936      1.0  0.56101  0.82851  0.81998  1.0000
  C   C1178     1.0  0.90923  0.69061  0.76374  1.0000
  H   H937      1.0  0.83679  0.68332  0.79604  1.0000
  C   C1179     1.0  0.66051  0.74712  0.83804  1.0000
  S   S160      1.0  0.58185  0.58108  0.87012  1.0000
  H   H938      1.0  0.68753  0.75257  0.85121  1.0000
  H   H939      1.0  0.76051  0.70915  0.90644  1.0000
  H   H940      1.0  0.72460  0.57412  0.79200  1.0000
  H   H941      1.0  0.89064  0.84201  0.77793  1.0000
  C   C1180     1.0  0.66095  0.67958  0.75945  1.0000
  C   C1181     1.0  0.01125  0.83328  0.82307  1.0000
  C   C1182     1.0  0.05317  0.90390  0.82960  1.0000
  H   H942      1.0  0.63211  0.55530  0.79172  1.0000
  H   H943      1.0  0.76105  0.55148  0.88135  1.0000
  C   C1183     1.0  0.65985  0.78369  0.95262  1.0000
  C   C1184     1.0  0.68623  0.57294  0.90410  1.0000
  C   C1185     1.0  0.75242  0.71717  0.93517  1.0000
  H   H944      1.0  0.72909  0.98300  0.97139  1.0000
  H   H945      1.0  0.04962  0.76555  0.80840  1.0000
  C   C1186     1.0  0.03282  0.90963  0.94228  1.0000
  C   C1187     1.0  0.75631  0.74822  0.78699  1.0000
  H   H946      1.0  0.67426  0.69879  0.78197  1.0000
  C   C1188     1.0  0.61304  0.54306  0.76812  1.0000
  C   C1189     1.0  0.05088  0.52057  0.75272  1.0000
  H   H947      1.0  0.95215  0.86806  0.86150  1.0000
  C   C1190     1.0  0.73071  0.54674  0.88762  1.0000
  H   H948      1.0  0.05273  0.56819  0.78248  1.0000
  H   H949      1.0  0.85955  0.53601  0.89183  1.0000
  C   C1191     1.0  0.59697  0.90631  0.76186  1.0000
  H   H950      1.0  0.56389  0.72682  0.78977  1.0000
  C   C1192     1.0  0.01386  0.71259  0.78140  1.0000
  P   P40       1.0  0.02354  0.94760  0.86589  1.0000
  S   S161      1.0  0.84613  0.51973  0.73623  1.0000
  C   C1193     1.0  0.96426  0.55716  0.91977  1.0000
  C   C1194     1.0  0.94837  0.53566  0.88782  1.0000
  C   C1195     1.0  0.91205  0.91579  0.93141  1.0000
  C   C1196     1.0  0.03370  0.54070  0.77099  1.0000
  C   C1197     1.0  0.63397  0.93909  0.76720  1.0000
  H   H951      1.0  0.86482  0.92403  0.90773  1.0000
  H   H952      1.0  0.83993  0.72405  0.86220  1.0000
  C   C1198     1.0  0.60014  0.62967  0.73667  1.0000
  C   C1199     1.0  0.66328  0.77579  0.80316  1.0000
  Fe  Fe80      1.0  0.61209  0.58929  0.92766  1.0000
  H   H953      1.0  0.02711  0.79869  0.74313  1.0000
  C   C1200     1.0  0.91716  0.94747  0.85838  1.0000
  C   C1201     1.0  0.88851  0.54155  0.89990  1.0000
  H   H954      1.0  0.82505  0.59145  0.94396  1.0000
  H   H955      1.0  0.88341  0.87185  0.83772  1.0000
  C   C1202     1.0  0.95602  0.95303  0.84809  1.0000
  C   C1203     1.0  0.59156  0.84762  0.92538  1.0000
  H   H956      1.0  0.62156  0.68783  0.88032  1.0000
  C   C1204     1.0  0.04970  0.86841  0.81893  1.0000
  C   C1205     1.0  0.57119  0.52837  0.77750  1.0000
  C   C1206     1.0  0.95122  0.92210  0.92171  1.0000
  S   S162      1.0  0.71043  0.82039  0.78111  1.0000
  H   H957      1.0  0.62136  0.96337  0.95688  1.0000
  C   C1207     1.0  0.78080  0.73349  0.96249  1.0000
  C   C1208     1.0  0.98267  0.67087  0.79137  1.0000
  C   C1209     1.0  0.63329  0.87647  0.92034  1.0000
  H   H958      1.0  0.66723  0.77071  0.92798  1.0000
  C   C1210     1.0  0.78211  0.62612  0.79649  1.0000
  Fe  Fe81      1.0  0.81559  0.55499  0.74803  1.0000
  H   H959      1.0  0.59518  0.74219  0.96024  1.0000
  C   C1211     1.0  0.62309  0.71057  0.85470  1.0000
  C   C1212     1.0  0.77546  0.78307  0.80448  1.0000
  S   S163      1.0  0.89488  0.50557  0.83356  1.0000
  C   C1213     1.0  0.69657  0.50826  0.88824  1.0000
  H   H960      1.0  0.90371  0.95679  0.83385  1.0000
  C   C1214     1.0  0.99159  0.52453  0.77588  1.0000
  C   C1215     1.0  0.71303  0.71046  0.94493  1.0000
  S   S164      1.0  0.81766  0.54723  0.81867  1.0000
  H   H961      1.0  0.79236  0.60755  0.81417  1.0000
  C   C1216     1.0  0.02440  0.73405  0.81457  1.0000
  C   C1217     1.0  0.57784  0.81579  0.90296  1.0000
  H   H962      1.0  0.92092  0.68923  0.79319  1.0000
  C   C1218     1.0  0.69094  0.81606  0.96668  1.0000
  C   C1219     1.0  0.01818  0.90436  0.84503  1.0000
  H   H963      1.0  0.64352  0.90131  0.93711  1.0000
  H   H964      1.0  0.77914  0.96628  0.91586  1.0000
  C   C1220     1.0  0.79096  0.98675  0.77982  1.0000
  C   C1221     1.0  0.87851  0.82275  0.80980  1.0000
  H   H965      1.0  0.88780  0.65782  0.90918  1.0000
  H   H966      1.0  0.81644  0.98232  0.77251  1.0000
  S   S165      1.0  0.58407  0.62306  0.95267  1.0000
  H   H967      1.0  0.59637  0.98047  0.83123  1.0000
  C   C1222     1.0  0.62839  0.76851  0.78591  1.0000
  H   H968      1.0  0.89270  0.98345  0.76541  1.0000
  C   C1223     1.0  0.86057  0.81570  0.88565  1.0000
  H   H969      1.0  0.66226  0.94459  0.74981  1.0000
  H   H970      1.0  0.74632  0.92178  0.79807  1.0000
  H   H971      1.0  0.72254  0.82771  0.95336  1.0000
  H   H972      1.0  0.67030  0.83849  0.85126  1.0000
  C   C1224     1.0  0.90419  0.56264  0.93253  1.0000
  H   H973      1.0  0.87790  0.62515  0.76847  1.0000
  C   C1225     1.0  0.75656  0.67468  0.74950  1.0000
  S   S166      1.0  0.56352  0.52775  0.96807  1.0000
  H   H974      1.0  0.86850  0.76799  0.78978  1.0000
  C   C1226     1.0  0.75146  0.95272  0.79426  1.0000
  C   C1227     1.0  0.72551  0.57904  0.89580  1.0000
  C   C1228     1.0  0.64835  0.84119  0.87190  1.0000
  C   C1229     1.0  0.89510  0.92873  0.89997  1.0000
  H   H975      1.0  0.70143  0.61678  0.75118  1.0000
  H   H976      1.0  0.96557  0.52539  0.87057  1.0000
  C   C1230     1.0  0.04628  0.94724  0.91344  1.0000
  H   H977      1.0  0.94641  0.80648  0.84028  1.0000
  H   H978      1.0  0.75187  0.60886  0.89513  1.0000
  C   C1231     1.0  0.85064  0.75651  0.85817  1.0000
  H   H979      1.0  0.69405  0.89550  0.88979  1.0000
  C   C1232     1.0  0.79504  0.69308  0.76191  1.0000
  S   S167      1.0  0.67934  0.61262  0.91577  1.0000
  C   C1233     1.0  0.59684  0.95938  0.81251  1.0000
  H   H980      1.0  0.77277  0.77977  0.83888  1.0000
  S   S168      1.0  0.94596  0.77314  0.75875  1.0000
  C   C1234     1.0  0.97355  0.94072  0.87985  1.0000
  H   H981      1.0  0.88738  0.57358  0.94949  1.0000
  C   C1235     1.0  0.64902  0.98125  0.89016  1.0000
  H   H982      1.0  0.73959  0.71799  0.80833  1.0000
  H   H983      1.0  0.00973  0.88084  0.93579  1.0000
  C   C1236     1.0  0.03742  0.50702  0.86695  1.0000
  C   C1237     1.0  0.80730  0.66891  0.78615  1.0000
  C   C1238     1.0  0.91112  0.52875  0.87699  1.0000
  Fe  Fe82      1.0  0.03381  0.63614  0.95808  1.0000
  C   C1239     1.0  0.75976  0.75236  0.74227  1.0000
  H   H984      1.0  0.59938  0.65528  0.79143  1.0000
  H   H985      1.0  0.89137  0.72361  0.91134  1.0000
  C   C1240     1.0  0.60665  0.81223  0.87696  1.0000
  C   C1241     1.0  0.87475  0.83976  0.84396  1.0000
  C   C1242     1.0  0.86204  0.65769  0.92604  1.0000
  Fe  Fe83      1.0  0.75644  0.48997  0.82589  1.0000
  C   C1243     1.0  0.63420  0.96478  0.79412  1.0000
  C   C1244     1.0  0.96250  0.65104  0.83365  1.0000
  C   C1245     1.0  0.66168  0.87329  0.89361  1.0000
  C   C1246     1.0  0.71846  0.95857  0.80227  1.0000
  H   H986      1.0  0.97218  0.96669  0.81525  1.0000
  H   H987      1.0  0.95852  0.65689  0.89935  1.0000
  H   H988      1.0  0.63022  0.79039  0.75897  1.0000
  C   C1247     1.0  0.86596  0.78108  0.81668  1.0000
  C   C1248     1.0  0.65225  0.53453  0.90434  1.0000
  S   S169      1.0  0.75211  0.50091  0.75625  1.0000
  H   H989      1.0  0.69119  0.69722  0.92392  1.0000
  S   S170      1.0  0.90373  0.92025  0.74050  1.0000
  C   C1249     1.0  0.93822  0.97273  0.73655  1.0000
  H   H990      1.0  0.85822  0.82988  0.91140  1.0000
  H   H991      1.0  0.81571  0.72613  0.75261  1.0000
  H   H992      1.0  0.01301  0.73072  0.88225  1.0000
  C   C1250     1.0  0.84949  0.77406  0.89337  1.0000
  H   H993      1.0  0.05319  0.56475  0.88389  1.0000
  H   H994      1.0  0.97434  0.65323  0.76679  1.0000
  C   C1251     1.0  0.97958  0.86891  0.84901  1.0000
  C   C1252     1.0  0.88446  0.65440  0.75008  1.0000
  C   C1253     1.0  0.00397  0.71418  0.85679  1.0000
  C   C1254     1.0  0.79817  0.82229  0.77750  1.0000
  C   C1255     1.0  0.86391  0.69491  0.92736  1.0000
  H   H995      1.0  0.93905  0.61868  0.84102  1.0000
  C   C1256     1.0  0.73108  0.63162  0.76047  1.0000
  C   C1257     1.0  0.83028  0.69509  0.94823  1.0000
  H   H996      1.0  0.99352  0.56309  0.92726  1.0000
  H   H997      1.0  0.96365  0.91223  0.94700  1.0000
  H   H998      1.0  0.89491  0.90098  0.96348  1.0000
  P   P41       1.0  0.83206  0.74343  0.94769  1.0000
  H   H999      1.0  0.68817  0.93184  0.81335  1.0000
  H   H1000     1.0  0.81293  0.84945  0.79081  1.0000
  C   C1258     1.0  0.74401  0.60739  0.78368  1.0000
  Fe  Fe84      1.0  0.84305  0.50720  0.80742  1.0000
  C   C1259     1.0  0.97328  0.67261  0.86641  1.0000
  C   C1260     1.0  0.97618  0.83366  0.83768  1.0000
  H   H1001     1.0  0.59701  0.88606  0.74189  1.0000
  H   H1002     1.0  0.62932  0.95095  0.88437  1.0000
  H   H1003     1.0  0.97815  0.53980  0.79059  1.0000
  H   H1004     1.0  0.59690  0.78718  0.86038  1.0000
  H   H1005     1.0  0.62194  0.52974  0.90965  1.0000
  C   C1261     1.0  0.94268  0.57142  0.94154  1.0000
  C   C1262     1.0  0.61838  0.65497  0.76498  1.0000
  C   C1263     1.0  0.61918  0.76782  0.97061  1.0000
  C   C1264     1.0  0.55985  0.92717  0.80611  1.0000
  H   H1006     1.0  0.55789  0.52919  0.80810  1.0000
  C   C1265     1.0  0.80145  0.82671  0.73312  1.0000
  C   C1266     1.0  0.64455  0.98809  0.93134  1.0000
  H   H1007     1.0  0.00753  0.50019  0.86104  1.0000
  C   C1267     1.0  0.79505  0.65731  0.96821  1.0000
  C   C1268     1.0  0.82673  0.62030  0.94570  1.0000
  C   C1269     1.0  0.79336  0.62014  0.96693  1.0000
  H   H1008     1.0  0.82674  0.97863  0.96795  1.0000
  P   P42       1.0  0.04488  0.73548  0.72837  1.0000
  C   C1270     1.0  0.63007  0.54141  0.72878  1.0000
  C   C1271     1.0  0.91758  0.72851  0.74007  1.0000
  C   C1272     1.0  0.55992  0.90032  0.78122  1.0000
  C   C1273     1.0  0.68565  0.67892  0.72531  1.0000
  C   C1274     1.0  0.78476  0.85633  0.10947  1.0000
  S   S171      1.0  0.96514  0.60228  0.97803  1.0000
  H   H1009     1.0  0.97520  0.51815  0.01851  1.0000
  Fe  Fe85      1.0  0.57795  0.85023  0.18534  1.0000
  H   H1010     1.0  0.80138  0.71400  0.20222  1.0000
  C   C1275     1.0  0.92422  0.76219  0.20861  1.0000
  H   H1011     1.0  0.99893  0.50385  0.08527  1.0000
  H   H1012     1.0  0.61296  0.89786  0.09210  1.0000
  H   H1013     1.0  0.02200  0.58538  0.12126  1.0000
  C   C1276     1.0  0.74267  0.70778  0.11718  1.0000
  C   C1277     1.0  0.99171  0.50189  0.01969  1.0000
  H   H1014     1.0  0.64723  0.97336  0.07776  1.0000
  H   H1015     1.0  0.74452  0.76503  0.11591  1.0000
  C   C1278     1.0  0.92836  0.82245  0.02492  1.0000
  C   C1279     1.0  0.80512  0.62057  0.10997  1.0000
  H   H1016     1.0  0.84623  0.89189  0.12094  1.0000
  H   H1017     1.0  0.68915  0.52272  0.04593  1.0000
  H   H1018     1.0  0.73406  0.65789  0.20769  1.0000
  C   C1280     1.0  0.65212  0.77727  0.16354  1.0000
  H   H1019     1.0  0.83284  0.89549  0.98880  1.0000
  S   S172      1.0  0.89694  0.92931  0.03740  1.0000
  C   C1281     1.0  0.57285  0.82000  0.06408  1.0000
  C   C1282     1.0  0.84430  0.89740  0.05337  1.0000
  S   S173      1.0  0.57533  0.79064  0.18558  1.0000
  H   H1020     1.0  0.96791  0.64579  0.05254  1.0000
  C   C1283     1.0  0.64854  0.82974  0.10248  1.0000
  H   H1021     1.0  0.90512  0.50757  0.10524  1.0000
  C   C1284     1.0  0.65758  0.95889  0.05743  1.0000
  H   H1022     1.0  0.95185  0.84183  0.04157  1.0000
  H   H1023     1.0  0.86103  0.77375  0.09652  1.0000
  H   H1024     1.0  0.70645  0.80593  0.19695  1.0000
  C   C1285     1.0  0.82799  0.75542  0.10157  1.0000
  H   H1025     1.0  0.82737  0.69934  0.10394  1.0000
  Fe  Fe86      1.0  0.99158  0.96151  0.14328  1.0000
  H   H1026     1.0  0.72087  0.74451  0.03763  1.0000
  S   S174      1.0  0.98474  0.90286  0.17792  1.0000
  Fe  Fe87      1.0  0.64671  0.82690  0.16710  1.0000
  C   C1286     1.0  0.82705  0.88283  0.09688  1.0000
  C   C1287     1.0  0.69751  0.61509  0.17027  1.0000
  C   C1288     1.0  0.80848  0.71280  0.10587  1.0000
  S   S175      1.0  0.91360  0.85591  0.12238  1.0000
  H   H1027     1.0  0.57795  0.77222  0.01522  1.0000
  C   C1289     1.0  0.88626  0.55397  0.21011  1.0000
  C   C1290     1.0  0.00825  0.62317  0.15512  1.0000
  C   C1291     1.0  0.92746  0.78799  0.01458  1.0000
  S   S176      1.0  0.99465  0.94683  0.07863  1.0000
  C   C1292     1.0  0.75972  0.84432  0.07843  1.0000
  S   S177      1.0  0.01297  0.85296  0.09545  1.0000
  H   H1028     1.0  0.04048  0.81061  0.01513  1.0000
  H   H1029     1.0  0.74306  0.49512  0.13008  1.0000
  C   C1293     1.0  0.99172  0.64886  0.15287  1.0000
  C   C1294     1.0  0.78328  0.61484  0.18487  1.0000
  H   H1030     1.0  0.87190  0.61422  0.17045  1.0000
  H   H1031     1.0  0.75166  0.96789  0.09489  1.0000
  H   H1032     1.0  0.70184  0.89538  0.09309  1.0000
  C   C1295     1.0  0.76877  0.74223  0.00013  1.0000
  H   H1033     1.0  0.66950  0.62246  0.00300  1.0000
  H   H1034     1.0  0.73540  0.88105  0.15472  1.0000
  C   C1296     1.0  0.74853  0.96390  0.20382  1.0000
  S   S178      1.0  0.64599  0.88786  0.16756  1.0000
  H   H1035     1.0  0.69500  0.90770  0.98487  1.0000
  H   H1036     1.0  0.03857  0.87977  0.00193  1.0000
  C   C1297     1.0  0.00049  0.49014  0.98297  1.0000
  C   C1298     1.0  0.70782  0.85603  0.14805  1.0000
  C   C1299     1.0  0.00958  0.60547  0.12021  1.0000
  C   C1300     1.0  0.70384  0.63392  0.20539  1.0000
  C   C1301     1.0  0.70363  0.96410  0.99769  1.0000
  C   C1302     1.0  0.62460  0.57480  0.19903  1.0000
  H   H1037     1.0  0.91730  0.77624  0.18098  1.0000
  C   C1303     1.0  0.76239  0.75048  0.11269  1.0000
  Fe  Fe88      1.0  0.91756  0.87793  0.18361  1.0000
  H   H1038     1.0  0.96447  0.67684  0.11445  1.0000
  S   S179      1.0  0.92471  0.93835  0.15308  1.0000
  H   H1039     1.0  0.89804  0.56628  0.17611  1.0000
  H   H1040     1.0  0.65106  0.57172  0.13961  1.0000
  C   C1304     1.0  0.63827  0.91597  0.06563  1.0000
  C   C1305     1.0  0.69323  0.55236  0.04853  1.0000
  H   H1041     1.0  0.80178  0.62510  0.07663  1.0000
  H   H1042     1.0  0.02451  0.74151  0.05332  1.0000
  C   C1306     1.0  0.97706  0.65691  0.11606  1.0000
  H   H1043     1.0  0.95794  0.53709  0.18423  1.0000
  H   H1044     1.0  0.88819  0.70051  0.19895  1.0000
  H   H1045     1.0  0.86034  0.61915  0.09534  1.0000
  C   C1307     1.0  0.77748  0.61982  0.14217  1.0000
  H   H1046     1.0  0.72462  0.55689  0.10193  1.0000
  P   P43       1.0  0.73989  0.63272  0.12734  1.0000
  Fe  Fe89      1.0  0.98167  0.88563  0.11452  1.0000
  H   H1047     1.0  0.82039  0.80728  0.10208  1.0000
  C   C1308     1.0  0.89875  0.83169  0.01423  1.0000
  C   C1309     1.0  0.83876  0.61798  0.12028  1.0000
  C   C1310     1.0  0.64041  0.81855  0.01512  1.0000
  H   H1048     1.0  0.76226  0.61339  0.21037  1.0000
  H   H1049     1.0  0.84564  0.78993  0.18983  1.0000
  C   C1311     1.0  0.86883  0.80720  0.99209  1.0000
  C   C1312     1.0  0.76554  0.68842  0.11430  1.0000
  C   C1313     1.0  0.84528  0.61504  0.16264  1.0000
  C   C1314     1.0  0.04908  0.90883  0.97982  1.0000
  C   C1315     1.0  0.68425  0.92106  0.00584  1.0000
  C   C1316     1.0  0.90810  0.71962  0.21855  1.0000
  H   H1050     1.0  0.70556  0.65751  0.05796  1.0000
  H   H1051     1.0  0.64054  0.74594  0.18066  1.0000
  H   H1052     1.0  0.73164  0.93647  0.19160  1.0000
  H   H1053     1.0  0.77213  0.84448  0.14321  1.0000
  C   C1317     1.0  0.89736  0.76311  0.99282  1.0000
  H   H1054     1.0  0.70555  0.85670  0.01035  1.0000
  H   H1055     1.0  0.89374  0.51012  0.02991  1.0000
  C   C1318     1.0  0.81736  0.61306  0.19497  1.0000
  H   H1056     1.0  0.95039  0.78079  0.02329  1.0000
  C   C1319     1.0  0.80502  0.77428  0.10502  1.0000
  C   C1320     1.0  0.65172  0.89646  0.04053  1.0000
  H   H1057     1.0  0.89908  0.85795  0.02328  1.0000
  C   C1321     1.0  0.71950  0.61080  0.08275  1.0000
  H   H1058     1.0  0.76782  0.77580  0.19668  1.0000
  C   C1322     1.0  0.77762  0.85727  0.03508  1.0000
  H   H1059     1.0  0.60774  0.76001  0.11816  1.0000
  S   S180      1.0  0.70631  0.81143  0.09242  1.0000
  H   H1060     1.0  0.89785  0.73687  0.98524  1.0000
  H   H1061     1.0  0.99023  0.66289  0.17922  1.0000
  C   C1323     1.0  0.63185  0.78594  0.12767  1.0000
  C   C1324     1.0  0.69084  0.81219  0.17275  1.0000
  P   P44       1.0  0.62795  0.84063  0.05588  1.0000
  C   C1325     1.0  0.71385  0.57215  0.07970  1.0000
  H   H1062     1.0  0.66102  0.55509  0.99695  1.0000
  C   C1326     1.0  0.77218  0.51241  0.18427  1.0000
  C   C1327     1.0  0.72967  0.73656  0.00919  1.0000
  C   C1328     1.0  0.97891  0.63946  0.08130  1.0000
  C   C1329     1.0  0.69064  0.98297  0.02382  1.0000
  C   C1330     1.0  0.68220  0.60861  0.02429  1.0000
  H   H1063     1.0  0.78924  0.75334  0.02260  1.0000
  P   P45       1.0  0.02712  0.61188  0.20227  1.0000
  C   C1331     1.0  0.99512  0.61373  0.08347  1.0000
  C   C1332     1.0  0.65741  0.58580  0.16698  1.0000
  C   C1333     1.0  0.60949  0.78516  0.00163  1.0000
  C   C1334     1.0  0.70312  0.62866  0.05514  1.0000
  C   C1335     1.0  0.70170  0.72032  0.98182  1.0000
  C   C1336     1.0  0.68125  0.83288  0.99832  1.0000
  C   C1337     1.0  0.86779  0.77258  0.98090  1.0000
  Fe  Fe90      1.0  0.92686  0.91886  0.09112  1.0000
  H   H1064     1.0  0.69860  0.71534  0.20093  1.0000
  H   H1065     1.0  0.67113  0.71502  0.98938  1.0000
  H   H1066     1.0  0.70958  0.68988  0.12403  1.0000
  H   H1067     1.0  0.99662  0.60025  0.05653  1.0000
  C   C1338     1.0  0.81959  0.88475  0.02244  1.0000
  H   H1068     1.0  0.80272  0.52521  0.16661  1.0000
  H   H1069     1.0  0.59366  0.55247  0.19639  1.0000
  C   C1339     1.0  0.68745  0.86441  0.11223  1.0000
  H   H1070     1.0  0.57769  0.87101  0.01838  1.0000
  C   C1340     1.0  0.67734  0.57055  0.02091  1.0000
  H   H1071     1.0  0.75917  0.84619  0.01109  1.0000
  C   C1341     1.0  0.95977  0.53143  0.21783  1.0000
  C   C1342     1.0  0.00523  0.49375  0.05738  1.0000
  H   H1072     1.0  0.76564  0.59111  0.98126  1.0000
  C   C1343     1.0  0.73848  0.49561  0.16368  1.0000
  H   H1073     1.0  0.63769  0.50539  0.19041  1.0000
  H   H1074     1.0  0.76849  0.65631  0.98397  1.0000
  H   H1075     1.0  0.84664  0.81558  0.98386  1.0000
  C   C1344     1.0  0.83866  0.77098  0.22144  1.0000
  H   H1076     1.0  0.58320  0.49544  0.14785  1.0000
  C   C1345     1.0  0.05577  0.76705  0.04590  1.0000
  C   C1346     1.0  0.55736  0.84190  0.04058  1.0000
  C   C1347     1.0  0.58253  0.84194  0.39663  1.0000
  C   C1348     1.0  0.84348  0.76478  0.29682  1.0000
  H   H1077     1.0  0.94895  0.71191  0.30762  1.0000
  H   H1078     1.0  0.97319  0.80129  0.46017  1.0000
  C   C1349     1.0  0.01279  0.67448  0.28806  1.0000
  C   C1350     1.0  0.62348  0.53169  0.34549  1.0000
  C   C1351     1.0  0.01223  0.98649  0.37918  1.0000
  H   H1079     1.0  0.72848  0.91501  0.33404  1.0000
  H   H1080     1.0  0.82221  0.61041  0.22796  1.0000
  C   C1352     1.0  0.67113  0.62254  0.23755  1.0000
  C   C1353     1.0  0.66633  0.52555  0.29101  1.0000
  H   H1081     1.0  0.84454  0.50981  0.33209  1.0000
  S   S181      1.0  0.68512  0.92724  0.27248  1.0000
  H   H1082     1.0  0.90251  0.73573  0.34605  1.0000
  C   C1354     1.0  0.76311  0.86921  0.30765  1.0000
  C   C1355     1.0  0.85619  0.52202  0.29808  1.0000
  C   C1356     1.0  0.96008  0.78137  0.36055  1.0000
  C   C1357     1.0  0.91744  0.70174  0.25401  1.0000
  C   C1358     1.0  0.68281  0.88898  0.39088  1.0000
  H   H1083     1.0  0.95133  0.90681  0.28028  1.0000
  C   C1359     1.0  0.95744  0.76891  0.27108  1.0000
  C   C1360     1.0  0.97876  0.80109  0.39284  1.0000
  C   C1361     1.0  0.58471  0.82450  0.43751  1.0000
  H   H1084     1.0  0.90491  0.66873  0.26186  1.0000
  H   H1085     1.0  0.96734  0.59357  0.34639  1.0000
  H   H1086     1.0  0.60403  0.87399  0.38161  1.0000
  C   C1362     1.0  0.76650  0.51172  0.22800  1.0000
  Fe  Fe91      1.0  0.58071  0.78865  0.25434  1.0000
  H   H1087     1.0  0.95561  0.88637  0.37047  1.0000
  S   S182      1.0  0.89842  0.59755  0.31793  1.0000
  C   C1363     1.0  0.56048  0.64301  0.27914  1.0000
  H   H1088     1.0  0.66700  0.71532  0.33203  1.0000
  C   C1364     1.0  0.77679  0.84280  0.32411  1.0000
  C   C1365     1.0  0.67860  0.71202  0.26682  1.0000
  C   C1366     1.0  0.84705  0.89955  0.29923  1.0000
  H   H1089     1.0  0.77753  0.97496  0.36053  1.0000
  C   C1367     1.0  0.75630  0.78057  0.26164  1.0000
  H   H1090     1.0  0.85484  0.95736  0.26711  1.0000
  C   C1368     1.0  0.05530  0.56891  0.37367  1.0000
  C   C1369     1.0  0.99979  0.85236  0.29110  1.0000
  H   H1091     1.0  0.02648  0.93951  0.37074  1.0000
  H   H1092     1.0  0.98728  0.67235  0.30792  1.0000
  C   C1370     1.0  0.91744  0.75401  0.44527  1.0000
  S   S183      1.0  0.64847  0.82153  0.24110  1.0000
  C   C1371     1.0  0.72794  0.76431  0.30000  1.0000
  C   C1372     1.0  0.03797  0.64937  0.23502  1.0000
  C   C1373     1.0  0.70041  0.92721  0.44702  1.0000
  H   H1093     1.0  0.97434  0.62540  0.25911  1.0000
  C   C1374     1.0  0.81923  0.72186  0.30363  1.0000
  H   H1094     1.0  0.86629  0.71067  0.42058  1.0000
  C   C1375     1.0  0.01662  0.93354  0.26843  1.0000
  H   H1095     1.0  0.58399  0.73544  0.43689  1.0000
  C   C1376     1.0  0.59425  0.48994  0.35091  1.0000
  C   C1377     1.0  0.98223  0.61030  0.44623  1.0000
  H   H1096     1.0  0.81172  0.70305  0.33537  1.0000
  H   H1097     1.0  0.68306  0.58130  0.31303  1.0000
  C   C1378     1.0  0.96306  0.58764  0.38104  1.0000
  C   C1379     1.0  0.74845  0.95215  0.38077  1.0000
  S   S184      1.0  0.78502  0.56211  0.32438  1.0000
  H   H1098     1.0  0.60409  0.50574  0.44869  1.0000
  S   S185      1.0  0.74303  0.58519  0.39975  1.0000
  C   C1380     1.0  0.00546  0.64805  0.26003  1.0000
  S   S186      1.0  0.03334  0.71436  0.43881  1.0000
  Fe  Fe92      1.0  0.78152  0.61684  0.33445  1.0000
  H   H1099     1.0  0.70342  0.75352  0.43736  1.0000
  H   H1100     1.0  0.72330  0.49260  0.28551  1.0000
  H   H1101     1.0  0.04965  0.60528  0.41626  1.0000
  H   H1102     1.0  0.73774  0.70850  0.35776  1.0000
  C   C1381     1.0  0.93331  0.54871  0.40521  1.0000
  C   C1382     1.0  0.72080  0.91825  0.36570  1.0000
  C   C1383     1.0  0.74571  0.76290  0.22611  1.0000
  C   C1384     1.0  0.95781  0.78696  0.43516  1.0000
  C   C1385     1.0  0.56033  0.68010  0.27498  1.0000
  C   C1386     1.0  0.62628  0.76912  0.37742  1.0000
  C   C1387     1.0  0.98966  0.56198  0.23541  1.0000
  C   C1388     1.0  0.04872  0.92590  0.26835  1.0000
  C   C1389     1.0  0.64326  0.74388  0.44189  1.0000
  H   H1103     1.0  0.64842  0.68550  0.26896  1.0000
  H   H1104     1.0  0.62589  0.95065  0.39254  1.0000
  C   C1390     1.0  0.96782  0.86044  0.29227  1.0000
  C   C1391     1.0  0.77094  0.70755  0.40856  1.0000
  Fe  Fe93      1.0  0.84161  0.58959  0.35311  1.0000
  H   H1105     1.0  0.01130  0.64848  0.38281  1.0000
  C   C1392     1.0  0.61499  0.74863  0.42044  1.0000
  H   H1106     1.0  0.67221  0.79606  0.32111  1.0000
  C   C1393     1.0  0.97624  0.90089  0.28065  1.0000
  C   C1394     1.0  0.78709  0.78715  0.40875  1.0000
  H   H1107     1.0  0.96363  0.50806  0.33904  1.0000
  C   C1395     1.0  0.79121  0.91039  0.28741  1.0000
  S   S187      1.0  0.76905  0.65026  0.27960  1.0000
  C   C1396     1.0  0.05279  0.70200  0.29207  1.0000
  H   H1108     1.0  0.69401  0.54051  0.26734  1.0000
  H   H1109     1.0  0.94279  0.64982  0.46304  1.0000
  H   H1110     1.0  0.61811  0.55041  0.36423  1.0000
  C   C1397     1.0  0.68926  0.72925  0.30260  1.0000
  C   C1398     1.0  0.81911  0.85834  0.31918  1.0000
  H   H1111     1.0  0.66918  0.51771  0.41195  1.0000
  C   C1399     1.0  0.73834  0.95650  0.42165  1.0000
  C   C1400     1.0  0.65991  0.54917  0.31636  1.0000
  H   H1112     1.0  0.56344  0.63174  0.25095  1.0000
  Fe  Fe94      1.0  0.75120  0.53220  0.39184  1.0000
  C   C1401     1.0  0.03511  0.79936  0.30051  1.0000
  C   C1402     1.0  0.99070  0.55320  0.27936  1.0000
  C   C1403     1.0  0.05161  0.79258  0.33640  1.0000
  H   H1113     1.0  0.82081  0.78573  0.45934  1.0000
  S   S188      1.0  0.80856  0.55520  0.42002  1.0000
  H   H1114     1.0  0.02286  0.96459  0.25823  1.0000
  C   C1404     1.0  0.85303  0.78935  0.25578  1.0000
  C   C1405     1.0  0.88365  0.56426  0.28268  1.0000
  H   H1115     1.0  0.60629  0.58430  0.25934  1.0000
  H   H1116     1.0  0.62670  0.96301  0.22621  1.0000
  H   H1117     1.0  0.79280  0.81764  0.40996  1.0000
  H   H1118     1.0  0.78056  0.93043  0.27387  1.0000
  C   C1406     1.0  0.96210  0.51468  0.30534  1.0000
  C   C1407     1.0  0.66533  0.78322  0.35519  1.0000
  C   C1408     1.0  0.81329  0.72804  0.22858  1.0000
  C   C1409     1.0  0.92787  0.54062  0.45028  1.0000
  C   C1410     1.0  0.94066  0.96532  0.38022  1.0000
  H   H1119     1.0  0.93633  0.83534  0.30139  1.0000
  C   C1411     1.0  0.94237  0.72631  0.27995  1.0000
  H   H1120     1.0  0.66237  0.86260  0.37862  1.0000
  C   C1412     1.0  0.80264  0.76902  0.43712  1.0000
  H   H1121     1.0  0.01399  0.57590  0.29358  1.0000
  H   H1122     1.0  0.91517  0.52532  0.38830  1.0000
  C   C1413     1.0  0.67189  0.89382  0.43143  1.0000
  C   C1414     1.0  0.73285  0.96694  0.24302  1.0000
  H   H1123     1.0  0.69341  0.97663  0.35050  1.0000
  C   C1415     1.0  0.80320  0.70353  0.26986  1.0000
  H   H1124     1.0  0.80636  0.71494  0.45916  1.0000
  P   P46       1.0  0.98801  0.79985  0.30614  1.0000
  H   H1125     1.0  0.69145  0.83819  0.46228  1.0000
  H   H1126     1.0  0.87954  0.91080  0.29434  1.0000
  H   H1127     1.0  0.03466  0.78318  0.36852  1.0000
  C   C1416     1.0  0.84412  0.49558  0.26944  1.0000
  C   C1417     1.0  0.93109  0.49302  0.24397  1.0000
  C   C1418     1.0  0.68266  0.75873  0.42007  1.0000
  H   H1128     1.0  0.00983  0.82709  0.38543  1.0000
  H   H1129     1.0  0.67665  0.63654  0.26512  1.0000
  Fe  Fe95      1.0  0.64631  0.87884  0.23773  1.0000
  C   C1419     1.0  0.75574  0.72577  0.37974  1.0000
  Fe  Fe96      1.0  0.80228  0.60989  0.42384  1.0000
  H   H1130     1.0  0.76475  0.67667  0.40858  1.0000
  C   C1420     1.0  0.89844  0.58024  0.23871  1.0000
  H   H1131     1.0  0.78665  0.80699  0.25894  1.0000
  C   C1421     1.0  0.70681  0.72881  0.22858  1.0000
  S   S189      1.0  0.57830  0.84564  0.25553  1.0000
  P   P47       1.0  0.74109  0.78818  0.34543  1.0000
  C   C1422     1.0  0.83313  0.92563  0.28344  1.0000
  H   H1132     1.0  0.83078  0.83827  0.32882  1.0000
  H   H1133     1.0  0.00168  0.63304  0.46266  1.0000
  C   C1423     1.0  0.89776  0.73587  0.41285  1.0000
  C   C1424     1.0  0.69390  0.77789  0.37616  1.0000
  H   H1134     1.0  0.03134  0.53975  0.39339  1.0000
  H   H1135     1.0  0.73096  0.85813  0.30924  1.0000
  H   H1136     1.0  0.91673  0.97272  0.38195  1.0000
  H   H1137     1.0  0.90082  0.90325  0.37343  1.0000
  C   C1425     1.0  0.88344  0.64312  0.47208  1.0000
  C   C1426     1.0  0.94879  0.78677  0.23472  1.0000
  H   H1138     1.0  0.88208  0.64672  0.43824  1.0000
  C   C1427     1.0  0.63155  0.59297  0.23441  1.0000
  H   H1139     1.0  0.60410  0.77253  0.36083  1.0000
  H   H1140     1.0  0.85451  0.77891  0.32347  1.0000
  C   C1428     1.0  0.04043  0.88549  0.27984  1.0000
  C   C1429     1.0  0.96266  0.91694  0.37327  1.0000
  C   C1430     1.0  0.98749  0.61859  0.40152  1.0000
  S   S190      1.0  0.88030  0.84295  0.24889  1.0000
  C   C1431     1.0  0.91880  0.74970  0.37059  1.0000
  C   C1432     1.0  0.00285  0.94710  0.37418  1.0000
  H   H1141     1.0  0.93532  0.89808  0.46405  1.0000
  C   C1433     1.0  0.79451  0.72919  0.43706  1.0000
  C   C1434     1.0  0.76387  0.76583  0.37949  1.0000
  S   S191      1.0  0.84032  0.64628  0.35912  1.0000
  C   C1435     1.0  0.93174  0.92632  0.37526  1.0000
  P   P48       1.0  0.62419  0.85520  0.46598  1.0000
  H   H1142     1.0  0.91847  0.95150  0.46931  1.0000
  C   C1436     1.0  0.95193  0.57206  0.47052  1.0000
  H   H1143     1.0  0.79261  0.52431  0.24407  1.0000
  S   S192      1.0  0.56028  0.54940  0.44658  1.0000
  H   H1144     1.0  0.56331  0.69751  0.24364  1.0000
  H   H1145     1.0  0.56917  0.88661  0.44935  1.0000
  H   H1146     1.0  0.75982  0.98242  0.43376  1.0000
  H   H1147     1.0  0.91868  0.61301  0.22664  1.0000
  C   C1437     1.0  0.72719  0.49415  0.25127  1.0000
  C   C1438     1.0  0.65007  0.98193  0.39108  1.0000
  H   H1148     1.0  0.96066  0.81955  0.22642  1.0000
  H   H1149     1.0  0.96676  0.97095  0.22567  1.0000
  H   H1150     1.0  0.04583  0.81594  0.23101  1.0000
  C   C1439     1.0  0.85906  0.51176  0.22544  1.0000
  H   H1151     1.0  0.55812  0.96523  0.23851  1.0000
  H   H1152     1.0  0.93858  0.98875  0.28593  1.0000
  C   C1440     1.0  0.83818  0.97809  0.47374  1.0000
