data_image0
_chemical_formula_structural       HCFeCSC2SC2H5C2H3C2PC3HCHC2HCH2C5H2CHCH2CHC2HC2H3C5SH2C2H3CH2S2H2CH2C2SHFeS2H2C2HC2HCHCHCH2C6SCH2CHC3HC2H2C2H4C4H2CH3CHC2HC2PC2H2CHC2H2C3PC2HC2H3C3H3C4FeS2CSH2SFeSFeS2FeS2FeS2FeSFeS3C2HC2H2C6H4CHSC6H5CH2CH2C2SCFeCPHC3HC3HCHC6PC18H11C2H6C10H6C6HPCH6C5H5CHC2H2CHC5H2C6HCH2C4H4CH2C2H4CH3PC3H2C3HC5HCH3CH2CHC3HCHC3HC2H2C4H4CH4C3PCH4CHFeHC3HSFeC3HC3HCH3PH3CHC2FeS2FeS2FeSFeS4FeSCFeSFeHSFeS2HCSC2H2C6H4C2H2C7H4C2SCHCHCHCHSC3HC6HC2FeC2HC9H2CH2C4HCH2C2H9CHC2HCH2CH2CHC2H3C6HPC2SH3CHC2H3CH4C9H2CH2C6HCH2C3H3C4H8CHC3HC3PCHC2HC3HCH2C2H2CFeC4HCHCHPH2C2HCHPC2SH3CHCHCH2PC2HC2HC3H4CH2CH2C4HC2HC2HC3PHCH4CHCHCFeSC2SPS3FeSFeSFeS2FeSCFeSFeS3FeCFeS2CFeS3C6H4C6H4CFeH3CH2C4H4C2H2C3H2C2HC2H3CH2CHFeHC3H3C3HC2PC11HCHC5H2C2H4C2HC2H7CHC3HC2HCSH2SC3HSC2HC3HC3HCH2CHCHCH2C5HC3HPHC2H2C3H2CHC3HCH2CHC3H3CHC2HCH2CH3C2HC4HCPC2H3C2H2CHCHCHCFeCH2CH4C5H3FeSHFeS2HC2H2SHC3H2CH2SC2Fe2SFeS2FeS2FeSFeCS2C4HC3H2PHC6H4C2HCHC2H2C9H3C11H4C2H2CHC3HC2HFeCH4CHC2H5C6HSHCSHC2HC2SCHC2H4C3HCHC2PHC6HCHCPC2H2C2FeHCH4FeCS2HCHC4H4CHC2HCH4CHC5SC2HCH2C4HC2PH2SCHFeHCHCHC2HC3HC3SPCHCH3FeHC2HC2H3CH2CH3C2H5CH3SHFeS3FeSCFeSCSFeHFeS2FeS2FeS2FeSFeS3HSC6H4CHC2H2C6H4C6H4C2H4C4HC5HCH4C6PCHCHCH4CH3C4H3CH2CHCHFeCHC3HPC3HCHC2SC3HC3H5C2H3CH4CHC2HCH2CH3CH3C2H3C5H2C3H2CHCSC2H2CHCH4C2HCHPHC6H2C2HCHCH2CHCH2CH5C3HC2H3PC2H2C2HC2HC2H2CHC2HCHC2HC8FeC2H2C3HSCH4C4FeC4SC2H2CH2C2HC4H4C6HCH2C2HC4H5C2H2C3HPC5HC2H3P2C3HCHCHC2H3C4HC4H2C3HCHSHP2C3SHC3H2CHCHC2HC2HC2H2C2H2CHC6HC2HC4FeHC2HC3H3CSH6C2SCSC5HCH5FeC3HSHCH5CFeCSCHSPFeCSCHSFeS2FeS2FeSFeS3CSCFeS2Fe2HS2H2C2PHCHCHSC6H5C2HSC3HC6H4C8H4CSCHC3HCHC7HCH3C2H2CH3CHCHCFeH2CH2CH5C6HCH2CHC2H5C2H2CH2C2H2CHCHC3HCHPC9PC14HC2H11C2H2C5H2SC3H4FeH2CH2CH2CHC4H4CH5CHC2HC2HCHSHCHCH2C2HSC3H2C3PHCHCH3CHC2HC2HCH3SC2HC8H2C2SC3HCH2CHCHCHCH2CHPHC2HC2H2C2HC3SCHCHC4SC3HFeC2HCH3C3HCHCH3C4SCH2C2HC2HCH2C2H2C3HC5FeCSH2CH2CHC3H4CPFeS2FeS2FeSFeS3FeS2FeH2FeS3CSHCFeSFeHSCHS2CHC6H4C2H3C7H4C6H4CH2CHC2HC4H3CH6C2SHC2HC2H3CHC2HCHFeC3H2CHC2HCHC9HCHSC3HCH2C3HC3H7CHCHC3H3SCHC8PHC6H2C5HCH8CH8CH3CH7C2HC2HC2SC3HC6H4C2H2C6HCHC6H3CH5C6PC8H10C2H3C2H2C3HCHPC2H2C6PH7CSHSHCH2SCHCH2CHC3H2C2HCHPC2FeHCH2C2HC2H2C3HC2HC4HCH2C2H3CHC2H4CH2CHC2H2FeS2FeS2FeSFeS3HFeCSCS2CFeSCFeS2CHFeSHFeHC6H4C4HSHC2HC6H6SCPC6H4C2H2C7HPSH3C4H3SHC2HPHCH2CHCHCHC8H2CH2CH2C2H3CH5C6PC16HCH16C3H2C5PC8SCHC7FeCH10CH4CHCHCHPH2CH2CH2CHC2SC2HCH2SHC4FeHCHC2HC4H6CHCHCH2CHC2HC3HC4H3C3HC3H2C2HC3HSCH3C2HCH2CH3C2H3C4HCH2C2H4CHCHCHC2HSC7H2SCH2CH2C2PC2PC4H2C2HC2HC2H5C2HC2HC3HCHC2SCFeS2FeS2FeSFeS3HC2SCHC5H2CSCSCH2FeCSHCSCH2CH2C7H5C2FeCHC2H2C7H2CHC6H4CHC3PCH3CH2SHC2HSCHC2SFeCH2C4SHPH8FeH3C8H2CPH9CSC3HPC17HCH3CH9C4HC2HCH2C4HCHC3HC3HCH2C2FeHCHC2SC2H2CHSHC2HCHCH2FeH4C3HC2SCHCHC3H3CHC2SHCH2CHC2SHCSCSFeS2FeS2FeSFeHS2FeCS2CSHSCHFeCHCHCHCHC5PH2C6H6CHC7H3CH3CFeC6FeH3C3HCHC2H2CH2CHCH4CHC2HC3H3C2HCH2CH2CHCH2CHSC3H2FeH2CH6CH2SC4FeC4HCPHCH2C3PC9HC9H2SH4C3H7C2HCHC2HCHCHC2H2C2SH2C5HCHFeCH2CHC3PCH3C4HC2HCHPHC2SHC2HC6H2CHCHCHFeS2FeS2FeSFeS4FeSCHSC7H4C6H5CHC2H2C5H2CHCHC4PHCSC2HC5HC8H7SC2HCHC2HCHCHC2PC5H5C2H2C2HCH8CHCFeCH3CH2C3HC2HC2HCH4FeCH2CH3C2SFeSC3HC3H3C2HC2HCHCHSCPCFeS2FeSHFeS2FeS2FeSFeS3CSCFeHC6H4CH4C2HC2HCHC2HC7H4C6PC7PHC8H3CH2CH3CH6SC3HC4HCHC2SC2H2C2H3C3PC16H2CH11SCHCHCH2C2HCHCHC2H4C2H3CHC2H3PHC3H3C2H2FeC2HC5HPHCH3C2H5CHC3FeS2FeSCSCFeCH2FeS2C6H4CHC3HCHCSHC3H2CHCHC2HC2HC2H4C2H2C2HCHCH4CH3CH3PC2H3C8HC3FeH2C2H2C2H3C2SH3C2HC2H3CHC5FeS2FeSFeSHCHSH2CFeS2H2C2HC8H4CHC2HC2H2CHC2H2CH5CH2CHPSC5HC2H2CHC5HC3H2CHSC4HC2HSC2HC2H2C2HCFeH2CHC2H2C3SHCH2C3H4CHC
_chemical_formula_sum              "H1728 C2160 Fe144 S288 P72"
_cell_length_a       79.2297
_cell_length_b       78.9654
_cell_length_c       41.1318
_cell_angle_alpha    91.4929
_cell_angle_beta     91.5939
_cell_angle_gamma    116.952

_space_group_name_H-M_alt    "P 1"
_space_group_IT_number       1

loop_
  _space_group_symop_operation_xyz
  'x, y, z'

loop_
  _atom_site_type_symbol
  _atom_site_label
  _atom_site_symmetry_multiplicity
  _atom_site_fract_x
  _atom_site_fract_y
  _atom_site_fract_z
  _atom_site_occupancy
  H   H1        1.0  0.05293  0.38680  0.03343  1.0000
  C   C1        1.0  0.07628  0.47269  0.25009  1.0000
  Fe  Fe1       1.0  0.99377  0.44429  0.32289  1.0000
  C   C2        1.0  0.05990  0.42256  0.23091  1.0000
  S   S1        1.0  0.01722  0.46113  0.28730  1.0000
  C   C3        1.0  0.00754  0.39876  0.39324  1.0000
  C   C4        1.0  0.07267  0.41712  0.28143  1.0000
  S   S2        1.0  0.99131  0.45610  0.37197  1.0000
  C   C5        1.0  0.00329  0.35677  0.24330  1.0000
  C   C6        1.0  0.99790  0.37844  0.34414  1.0000
  H   H2        1.0  0.09928  0.43587  0.07998  1.0000
  H   H3        1.0  0.06218  0.42928  0.20769  1.0000
  H   H4        1.0  0.08972  0.43443  0.24368  1.0000
  H   H5        1.0  0.98383  0.37083  0.38954  1.0000
  H   H6        1.0  0.01614  0.42471  0.26370  1.0000
  C   C7        1.0  0.04014  0.46548  0.27389  1.0000
  C   C8        1.0  0.04679  0.47547  0.24529  1.0000
  H   H7        1.0  0.19060  0.47118  0.01890  1.0000
  H   H8        1.0  0.99432  0.33191  0.21124  1.0000
  H   H9        1.0  0.15788  0.46311  0.03393  1.0000
  C   C9        1.0  0.05184  0.45939  0.29076  1.0000
  C   C10       1.0  0.07030  0.40858  0.00148  1.0000
  P   P1        1.0  0.01486  0.38893  0.28465  1.0000
  C   C11       1.0  0.01420  0.35415  0.29770  1.0000
  C   C12       1.0  0.01074  0.33549  0.28973  1.0000
  C   C13       1.0  0.02205  0.41294  0.37673  1.0000
  H   H10       1.0  0.07859  0.45822  0.29242  1.0000
  C   C14       1.0  0.99545  0.38154  0.37694  1.0000
  H   H11       1.0  0.15214  0.47586  0.08582  1.0000
  C   C15       1.0  0.06513  0.40056  0.03182  1.0000
  C   C16       1.0  0.01014  0.36478  0.27471  1.0000
  H   H12       1.0  0.02009  0.36026  0.32173  1.0000
  C   C17       1.0  0.02456  0.40987  0.34395  1.0000
  H   H13       1.0  0.08480  0.41939  0.29708  1.0000
  H   H14       1.0  0.04720  0.45207  0.31305  1.0000
  C   C18       1.0  0.08607  0.42646  0.99922  1.0000
  C   C19       1.0  0.05428  0.40616  0.29160  1.0000
  C   C20       1.0  0.98377  0.48336  0.17094  1.0000
  C   C21       1.0  0.01268  0.39249  0.32755  1.0000
  C   C22       1.0  0.09654  0.43604  0.02782  1.0000
  H   H15       1.0  0.10868  0.44984  0.02688  1.0000
  H   H16       1.0  0.06932  0.48635  0.21109  1.0000
  C   C23       1.0  0.00207  0.41336  0.25791  1.0000
  H   H17       1.0  0.03100  0.42650  0.38916  1.0000
  C   C24       1.0  0.16651  0.47960  0.07908  1.0000
  H   H18       1.0  0.08546  0.46118  0.00992  1.0000
  H   H19       1.0  0.03545  0.42122  0.33130  1.0000
  C   C25       1.0  0.99981  0.33810  0.23542  1.0000
  H   H20       1.0  0.12286  0.43131  0.99524  1.0000
  C   C26       1.0  0.03854  0.40371  0.27179  1.0000
  C   C27       1.0  0.99744  0.39453  0.26511  1.0000
  H   H21       1.0  0.02966  0.40916  0.22448  1.0000
  C   C28       1.0  0.07557  0.41032  0.06011  1.0000
  C   C29       1.0  0.07548  0.42544  0.25121  1.0000
  H   H22       1.0  0.05235  0.39969  0.31499  1.0000
  H   H23       1.0  0.01374  0.32728  0.30763  1.0000
  H   H24       1.0  0.00074  0.31296  0.25253  1.0000
  C   C30       1.0  0.09126  0.42808  0.05808  1.0000
  C   C31       1.0  0.06973  0.46301  0.27901  1.0000
  C   C32       1.0  0.04149  0.41147  0.24087  1.0000
  C   C33       1.0  0.00346  0.32743  0.25866  1.0000
  C   C34       1.0  0.99303  0.48247  0.23670  1.0000
  S   S3        1.0  0.98681  0.42437  0.44049  1.0000
  H   H25       1.0  0.00063  0.36495  0.22490  1.0000
  H   H26       1.0  0.07147  0.40420  0.08363  1.0000
  C   C35       1.0  0.06464  0.47897  0.23339  1.0000
  C   C36       1.0  0.18838  0.47734  0.04117  1.0000
  H   H27       1.0  0.01022  0.47391  0.47276  1.0000
  H   H28       1.0  0.99206  0.43243  0.23870  1.0000
  H   H29       1.0  0.00531  0.40133  0.41842  1.0000
  C   C37       1.0  0.16980  0.47246  0.04978  1.0000
  H   H30       1.0  0.98799  0.36529  0.33158  1.0000
  H   H31       1.0  0.02974  0.47469  0.42642  1.0000
  S   S4        1.0  0.09871  0.47598  0.23563  1.0000
  S   S5        1.0  0.12024  0.48348  0.07051  1.0000
  H   H32       1.0  0.03799  0.48037  0.23201  1.0000
  H   H33       1.0  0.99622  0.48153  0.26204  1.0000
  C   C38       1.0  0.98838  0.41782  0.24388  1.0000
  H   H34       1.0  0.22606  0.45845  0.03926  1.0000
  H   H35       1.0  0.12750  0.47842  0.00375  1.0000
  C   C39       1.0  0.97998  0.46587  0.21981  1.0000
  C   C40       1.0  0.01601  0.48631  0.45797  1.0000
  S   S6        1.0  0.98019  0.41404  0.33931  1.0000
  H   H36       1.0  0.98018  0.48368  0.14545  1.0000
  Fe  Fe2       1.0  0.98886  0.43493  0.70091  1.0000
  S   S7        1.0  0.08056  0.47343  0.83366  1.0000
  S   S8        1.0  0.02123  0.44755  0.71086  1.0000
  H   H37       1.0  0.06189  0.40079  0.98002  1.0000
  H   H38       1.0  0.99283  0.42899  0.56073  1.0000
  C   C41       1.0  0.08573  0.40911  0.91185  1.0000
  C   C42       1.0  0.98260  0.37790  0.62226  1.0000
  H   H39       1.0  0.16987  0.45809  0.93390  1.0000
  C   C43       1.0  0.07251  0.43041  0.74444  1.0000
  C   C44       1.0  0.03588  0.40369  0.72249  1.0000
  H   H40       1.0  0.06104  0.42745  0.79195  1.0000
  C   C45       1.0  0.00598  0.41096  0.62649  1.0000
  H   H41       1.0  0.02290  0.33439  0.65510  1.0000
  C   C46       1.0  0.99512  0.40050  0.75038  1.0000
  H   H42       1.0  0.08652  0.44104  0.75289  1.0000
  C   C47       1.0  0.12866  0.43949  0.97410  1.0000
  H   H43       1.0  0.00667  0.41428  0.74619  1.0000
  H   H44       1.0  0.02912  0.40332  0.77332  1.0000
  C   C48       1.0  0.03736  0.45571  0.74563  1.0000
  C   C49       1.0  0.03131  0.45326  0.77758  1.0000
  C   C50       1.0  0.04471  0.45909  0.80416  1.0000
  C   C51       1.0  0.06435  0.46791  0.79932  1.0000
  C   C52       1.0  0.07039  0.47073  0.76738  1.0000
  C   C53       1.0  0.05699  0.46447  0.74080  1.0000
  S   S9        1.0  0.98147  0.44919  0.66002  1.0000
  C   C54       1.0  0.04990  0.40534  0.89335  1.0000
  H   H45       1.0  0.05477  0.42653  0.93109  1.0000
  H   H46       1.0  0.07996  0.43048  0.69450  1.0000
  C   C55       1.0  0.98302  0.42543  0.53996  1.0000
  H   H47       1.0  0.09955  0.41033  0.91871  1.0000
  C   C56       1.0  0.11749  0.44460  0.95325  1.0000
  C   C57       1.0  0.99077  0.39598  0.60957  1.0000
  C   C58       1.0  0.07498  0.39624  0.88648  1.0000
  H   H48       1.0  0.01972  0.36405  0.65585  1.0000
  C   C59       1.0  0.06059  0.41818  0.91877  1.0000
  C   C60       1.0  0.08486  0.46623  0.98601  1.0000
  H   H49       1.0  0.11696  0.45743  0.90764  1.0000
  H   H50       1.0  0.02901  0.47784  0.66961  1.0000
  C   C61       1.0  0.12539  0.45414  0.92497  1.0000
  C   C62       1.0  0.98981  0.42753  0.50804  1.0000
  H   H51       1.0  0.08057  0.38776  0.87394  1.0000
  H   H52       1.0  0.06192  0.46603  0.71629  1.0000
  H   H53       1.0  0.01193  0.42510  0.61712  1.0000
  H   H54       1.0  0.03982  0.45662  0.82870  1.0000
  C   C63       1.0  0.01302  0.40787  0.65615  1.0000
  C   C64       1.0  0.01834  0.35670  0.67823  1.0000
  C   C65       1.0  0.14418  0.45898  0.91810  1.0000
  C   C66       1.0  0.99450  0.38398  0.73567  1.0000
  H   H55       1.0  0.02043  0.31742  0.70603  1.0000
  H   H56       1.0  0.08863  0.45845  0.90510  1.0000
  C   C67       1.0  0.02028  0.33994  0.67775  1.0000
  H   H57       1.0  0.03606  0.40395  0.88610  1.0000
  H   H58       1.0  0.02430  0.41981  0.66944  1.0000
  H   H59       1.0  0.01163  0.36004  0.75924  1.0000
  C   C68       1.0  0.99856  0.46921  0.58363  1.0000
  H   H60       1.0  0.98493  0.39844  0.58706  1.0000
  C   C69       1.0  0.08151  0.48210  0.98378  1.0000
  C   C70       1.0  0.01385  0.35444  0.73631  1.0000
  H   H61       1.0  0.01489  0.33036  0.75803  1.0000
  C   C71       1.0  0.03993  0.40927  0.75568  1.0000
  C   C72       1.0  0.98958  0.37477  0.65191  1.0000
  P   P2        1.0  0.01265  0.38567  0.70848  1.0000
  C   C73       1.0  0.05711  0.39441  0.87715  1.0000
  C   C74       1.0  0.01477  0.36387  0.70744  1.0000
  H   H62       1.0  0.04886  0.38453  0.85735  1.0000
  H   H63       1.0  0.15009  0.46626  0.89603  1.0000
  C   C75       1.0  0.01578  0.33768  0.73574  1.0000
  H   H64       1.0  0.01630  0.44650  0.78183  1.0000
  C   C76       1.0  0.08781  0.45759  0.95786  1.0000
  C   C77       1.0  0.05057  0.41111  0.70064  1.0000
  H   H65       1.0  0.04796  0.40651  0.67517  1.0000
  H   H66       1.0  0.08540  0.47715  0.76310  1.0000
  C   C78       1.0  0.07869  0.42032  0.92795  1.0000
  C   C79       1.0  0.15530  0.45431  0.93938  1.0000
  C   C80       1.0  0.08692  0.46496  0.92744  1.0000
  P   P3        1.0  0.09268  0.43728  0.96023  1.0000
  C   C81       1.0  0.05812  0.42272  0.76650  1.0000
  C   C82       1.0  0.06876  0.42456  0.71155  1.0000
  H   H67       1.0  0.99932  0.45768  0.59623  1.0000
  C   C83       1.0  0.01892  0.33040  0.70645  1.0000
  C   C84       1.0  0.00497  0.38969  0.66896  1.0000
  H   H68       1.0  0.00997  0.48263  0.74111  1.0000
  H   H69       1.0  0.20548  0.48628  0.87185  1.0000
  H   H70       1.0  0.98114  0.41221  0.78127  1.0000
  C   C85       1.0  0.98091  0.46761  0.57340  1.0000
  C   C86       1.0  0.08349  0.48078  0.92533  1.0000
  C   C87       1.0  0.01509  0.48548  0.57742  1.0000
  H   H71       1.0  0.98267  0.36080  0.66188  1.0000
  H   H72       1.0  0.15603  0.44045  0.98337  1.0000
  H   H73       1.0  0.00481  0.43268  0.50483  1.0000
  C   C88       1.0  0.14752  0.44448  0.96729  1.0000
  C   C89       1.0  0.98067  0.39938  0.77028  1.0000
  C   C90       1.0  0.97961  0.48231  0.55679  1.0000
  C   C91       1.0  0.13294  0.68213  0.01659  1.0000
  Fe  Fe3       1.0  0.00239  0.60043  0.28729  1.0000
  S   S10       1.0  0.03426  0.61620  0.27617  1.0000
  S   S11       1.0  0.99741  0.57592  0.31890  1.0000
  C   C92       1.0  0.04703  0.52070  0.20351  1.0000
  S   S12       1.0  0.14652  0.52753  0.12790  1.0000
  H   H74       1.0  0.03977  0.55978  0.33912  1.0000
  H   H75       1.0  0.12713  0.68300  0.03970  1.0000
  S   S13       1.0  0.13927  0.52419  0.20577  1.0000
  Fe  Fe4       1.0  0.12644  0.53079  0.16155  1.0000
  S   S14       1.0  0.11520  0.55234  0.15854  1.0000
  Fe  Fe5       1.0  0.15776  0.51796  0.17096  1.0000
  S   S15       1.0  0.19028  0.53106  0.16820  1.0000
  S   S16       1.0  0.10345  0.50103  0.15146  1.0000
  Fe  Fe6       1.0  0.15185  0.67734  0.10320  1.0000
  S   S17       1.0  0.17664  0.68437  0.13810  1.0000
  S   S18       1.0  0.16005  0.67580  0.05116  1.0000
  Fe  Fe7       1.0  0.12452  0.67104  0.15854  1.0000
  S   S19       1.0  0.14782  0.67842  0.19712  1.0000
  S   S20       1.0  0.09239  0.65987  0.16537  1.0000
  Fe  Fe8       1.0  0.16653  0.70254  0.16574  1.0000
  S   S21       1.0  0.18957  0.73013  0.19071  1.0000
  Fe  Fe9       1.0  0.15660  0.66010  0.16632  1.0000
  S   S22       1.0  0.16748  0.64037  0.18683  1.0000
  S   S23       1.0  0.14239  0.69683  0.12924  1.0000
  S   S24       1.0  0.13256  0.65140  0.12925  1.0000
  C   C93       1.0  0.20852  0.75071  0.17496  1.0000
  C   C94       1.0  0.01207  0.50161  0.46448  1.0000
  H   H76       1.0  0.09971  0.69182  0.29211  1.0000
  C   C95       1.0  0.20792  0.75622  0.14304  1.0000
  C   C96       1.0  0.08301  0.62191  0.07185  1.0000
  H   H77       1.0  0.13729  0.56151  0.06956  1.0000
  H   H78       1.0  0.19581  0.74769  0.12694  1.0000
  C   C97       1.0  0.13056  0.57676  0.16478  1.0000
  C   C98       1.0  0.12296  0.58959  0.16191  1.0000
  C   C99       1.0  0.13436  0.60912  0.16783  1.0000
  C   C100      1.0  0.15338  0.61595  0.17762  1.0000
  C   C101      1.0  0.16108  0.60315  0.18083  1.0000
  C   C102      1.0  0.14973  0.58355  0.17399  1.0000
  H   H79       1.0  0.10813  0.58437  0.15524  1.0000
  H   H80       1.0  0.12832  0.61885  0.16561  1.0000
  H   H81       1.0  0.17581  0.60839  0.18859  1.0000
  H   H82       1.0  0.15567  0.57370  0.17656  1.0000
  C   C103      1.0  0.20762  0.52286  0.17563  1.0000
  H   H83       1.0  0.19762  0.60019  0.00834  1.0000
  S   S25       1.0  0.98796  0.58664  0.40616  1.0000
  C   C104      1.0  0.05004  0.62809  0.24468  1.0000
  C   C105      1.0  0.04368  0.62942  0.21320  1.0000
  C   C106      1.0  0.05684  0.63901  0.18935  1.0000
  C   C107      1.0  0.07655  0.64722  0.19632  1.0000
  C   C108      1.0  0.08290  0.64571  0.22772  1.0000
  C   C109      1.0  0.06973  0.63639  0.25170  1.0000
  H   H84       1.0  0.02864  0.62326  0.20725  1.0000
  H   H85       1.0  0.05170  0.64018  0.16529  1.0000
  H   H86       1.0  0.09796  0.65217  0.23375  1.0000
  H   H87       1.0  0.07485  0.63579  0.27604  1.0000
  H   H88       1.0  0.99119  0.62182  0.22074  1.0000
  C   C110      1.0  0.00053  0.52868  0.33139  1.0000
  H   H89       1.0  0.10331  0.65086  0.06424  1.0000
  H   H90       1.0  0.07295  0.58424  0.01938  1.0000
  C   C111      1.0  0.16866  0.59584  0.00974  1.0000
  H   H91       1.0  0.00273  0.54060  0.28476  1.0000
  H   H92       1.0  0.00550  0.58959  0.47005  1.0000
  C   C112      1.0  0.04077  0.64662  0.33979  1.0000
  C   C113      1.0  0.18843  0.55507  0.09315  1.0000
  S   S26       1.0  0.98556  0.61030  0.31993  1.0000
  C   C114      1.0  0.20479  0.50832  0.19683  1.0000
  Fe  Fe10      1.0  0.11672  0.49400  0.19450  1.0000
  C   C115      1.0  0.14920  0.67944  0.01577  1.0000
  P   P4        1.0  0.16906  0.59800  0.05369  1.0000
  H   H93       1.0  0.02113  0.64189  0.25156  1.0000
  C   C116      1.0  0.01971  0.56331  0.40427  1.0000
  C   C117      1.0  0.99702  0.49995  0.18767  1.0000
  C   C118      1.0  0.12646  0.51680  0.04097  1.0000
  H   H94       1.0  0.19142  0.50119  0.20844  1.0000
  C   C119      1.0  0.01486  0.64192  0.38774  1.0000
  C   C120      1.0  0.06986  0.68287  0.29724  1.0000
  C   C121      1.0  0.18436  0.62223  0.06810  1.0000
  H   H95       1.0  0.03566  0.74236  0.34509  1.0000
  C   C122      1.0  0.06516  0.52274  0.19759  1.0000
  H   H96       1.0  0.04017  0.58380  0.30094  1.0000
  C   C123      1.0  0.13010  0.56490  0.24590  1.0000
  C   C124      1.0  0.14350  0.57075  0.27184  1.0000
  C   C125      1.0  0.14470  0.58490  0.29423  1.0000
  C   C126      1.0  0.13251  0.59321  0.29056  1.0000
  C   C127      1.0  0.11913  0.58755  0.26424  1.0000
  C   C128      1.0  0.11797  0.57324  0.24206  1.0000
  P   P5        1.0  0.10319  0.59816  0.26069  1.0000
  C   C129      1.0  0.08377  0.58688  0.28738  1.0000
  C   C130      1.0  0.11718  0.62320  0.27084  1.0000
  C   C131      1.0  0.11064  0.63310  0.29168  1.0000
  C   C132      1.0  0.12157  0.65266  0.29817  1.0000
  C   C133      1.0  0.13918  0.66236  0.28430  1.0000
  C   C134      1.0  0.14589  0.65249  0.26403  1.0000
  C   C135      1.0  0.13490  0.63304  0.25713  1.0000
  C   C136      1.0  0.06809  0.59063  0.28477  1.0000
  C   C137      1.0  0.05234  0.58100  0.30356  1.0000
  C   C138      1.0  0.05213  0.56752  0.32508  1.0000
  C   C139      1.0  0.06781  0.56396  0.32835  1.0000
  C   C140      1.0  0.08356  0.57352  0.30950  1.0000
  C   C141      1.0  0.09265  0.59533  0.22001  1.0000
  C   C142      1.0  0.08000  0.57712  0.20732  1.0000
  C   C143      1.0  0.07080  0.57476  0.17680  1.0000
  C   C144      1.0  0.07400  0.59062  0.15881  1.0000
  C   C145      1.0  0.08652  0.60881  0.17123  1.0000
  C   C146      1.0  0.09578  0.61119  0.20170  1.0000
  H   H97       1.0  0.12933  0.55416  0.22819  1.0000
  H   H98       1.0  0.15305  0.56440  0.27433  1.0000
  H   H99       1.0  0.15520  0.58954  0.31423  1.0000
  H   H100      1.0  0.13363  0.60417  0.30812  1.0000
  H   H101      1.0  0.10810  0.56865  0.22133  1.0000
  H   H102      1.0  0.09709  0.62588  0.30267  1.0000
  H   H103      1.0  0.11634  0.66035  0.31372  1.0000
  H   H104      1.0  0.14759  0.67755  0.28896  1.0000
  H   H105      1.0  0.15949  0.65995  0.25300  1.0000
  H   H106      1.0  0.14017  0.62573  0.24073  1.0000
  H   H107      1.0  0.06786  0.60076  0.26772  1.0000
  C   C147      1.0  0.03004  0.65668  0.33834  1.0000
  C   C148      1.0  0.19785  0.72761  0.02880  1.0000
  H   H108      1.0  0.09534  0.57017  0.31189  1.0000
  H   H109      1.0  0.07713  0.56472  0.22115  1.0000
  H   H110      1.0  0.06116  0.56062  0.16722  1.0000
  H   H111      1.0  0.06680  0.58887  0.13530  1.0000
  H   H112      1.0  0.08906  0.62118  0.15738  1.0000
  H   H113      1.0  0.10531  0.62549  0.21061  1.0000
  C   C149      1.0  0.18301  0.51367  0.00289  1.0000
  C   C150      1.0  0.19431  0.64684  0.11137  1.0000
  C   C151      1.0  0.18359  0.62789  0.10048  1.0000
  C   C152      1.0  0.14542  0.59160  0.06682  1.0000
  C   C153      1.0  0.13287  0.57257  0.07216  1.0000
  C   C154      1.0  0.11450  0.56766  0.08181  1.0000
  C   C155      1.0  0.10855  0.58170  0.08641  1.0000
  C   C156      1.0  0.12096  0.60068  0.08123  1.0000
  C   C157      1.0  0.13930  0.60562  0.07139  1.0000
  C   C158      1.0  0.22524  0.53201  0.16100  1.0000
  H   H114      1.0  0.19339  0.65116  0.13623  1.0000
  H   H115      1.0  0.17424  0.61781  0.11715  1.0000
  H   H116      1.0  0.10514  0.55304  0.08705  1.0000
  H   H117      1.0  0.09454  0.57792  0.09495  1.0000
  H   H118      1.0  0.11656  0.61167  0.08554  1.0000
  H   H119      1.0  0.14874  0.62046  0.06789  1.0000
  C   C159      1.0  0.08619  0.68798  0.27957  1.0000
  C   C160      1.0  0.20675  0.65489  0.05788  1.0000
  C   C161      1.0  0.07869  0.52760  0.22318  1.0000
  C   C162      1.0  0.07424  0.53079  0.25464  1.0000
  C   C163      1.0  0.05620  0.52899  0.26059  1.0000
  C   C164      1.0  0.04229  0.52353  0.23518  1.0000
  H   H120      1.0  0.07884  0.62545  0.09497  1.0000
  P   P6        1.0  0.01893  0.52134  0.24225  1.0000
  C   C165      1.0  0.01749  0.54185  0.22678  1.0000
  H   H121      1.0  0.09260  0.52880  0.21852  1.0000
  H   H122      1.0  0.21542  0.66548  0.04127  1.0000
  H   H123      1.0  0.00802  0.66119  0.36120  1.0000
  H   H124      1.0  0.99782  0.51275  0.37426  1.0000
  H   H125      1.0  0.17791  0.50989  0.02713  1.0000
  H   H126      1.0  0.98947  0.55650  0.44590  1.0000
  C   C166      1.0  0.00003  0.54059  0.21568  1.0000
  C   C167      1.0  0.99872  0.55685  0.20624  1.0000
  C   C168      1.0  0.01484  0.57448  0.20770  1.0000
  C   C169      1.0  0.03227  0.57585  0.21866  1.0000
  C   C170      1.0  0.03352  0.55962  0.22854  1.0000
  H   H127      1.0  0.05032  0.64763  0.32084  1.0000
  H   H128      1.0  0.21012  0.73788  0.07707  1.0000
  H   H129      1.0  0.08479  0.53451  0.27442  1.0000
  H   H130      1.0  0.05317  0.53172  0.28503  1.0000
  H   H131      1.0  0.04598  0.72466  0.38319  1.0000
  C   C171      1.0  0.21964  0.50359  0.20427  1.0000
  H   H132      1.0  0.03676  0.51682  0.18335  1.0000
  C   C172      1.0  0.17314  0.56473  0.05094  1.0000
  C   C173      1.0  0.01431  0.52036  0.28525  1.0000
  H   H133      1.0  0.04649  0.62622  0.36534  1.0000
  H   H134      1.0  0.01374  0.58715  0.20113  1.0000
  C   C174      1.0  0.99284  0.65828  0.28738  1.0000
  H   H135      1.0  0.04467  0.58960  0.22027  1.0000
  C   C175      1.0  0.20004  0.52993  0.99852  1.0000
  C   C176      1.0  0.17878  0.55160  0.06288  1.0000
  C   C177      1.0  0.17699  0.58147  0.06928  1.0000
  C   C178      1.0  0.20578  0.66036  0.09007  1.0000
  C   C179      1.0  0.00325  0.51554  0.35005  1.0000
  H   H136      1.0  0.06878  0.52041  0.17321  1.0000
  H   H137      1.0  0.20718  0.56868  0.00372  1.0000
  C   C180      1.0  0.05221  0.67742  0.28100  1.0000
  C   C181      1.0  0.08509  0.68807  0.24562  1.0000
  C   C182      1.0  0.06774  0.68336  0.22936  1.0000
  C   C183      1.0  0.05140  0.67830  0.24693  1.0000
  C   C184      1.0  0.01220  0.50540  0.33686  1.0000
  C   C185      1.0  0.22227  0.75954  0.04202  1.0000
  H   H138      1.0  0.04683  0.56096  0.23848  1.0000
  C   C186      1.0  0.00956  0.65722  0.28000  1.0000
  H   H139      1.0  0.98503  0.55584  0.19895  1.0000
  H   H140      1.0  0.04426  0.69378  0.36572  1.0000
  C   C187      1.0  0.09431  0.61303  0.01228  1.0000
  C   C188      1.0  0.04053  0.71873  0.35887  1.0000
  C   C189      1.0  0.01796  0.50800  0.30482  1.0000
  C   C190      1.0  0.00871  0.64371  0.25632  1.0000
  H   H141      1.0  0.02363  0.62219  0.40818  1.0000
  H   H142      1.0  0.09764  0.69166  0.23177  1.0000
  H   H143      1.0  0.06697  0.68340  0.20299  1.0000
  H   H144      1.0  0.03822  0.67508  0.23377  1.0000
  C   C191      1.0  0.19614  0.63591  0.04691  1.0000
  H   H145      1.0  0.06760  0.55348  0.34506  1.0000
  H   H146      1.0  0.18846  0.71346  0.03634  1.0000
  C   C192      1.0  0.98014  0.58806  0.44649  1.0000
  C   C193      1.0  0.12550  0.49870  0.03747  1.0000
  H   H147      1.0  0.20939  0.50025  0.99134  1.0000
  H   H148      1.0  0.10285  0.58067  0.02056  1.0000
  H   H149      1.0  0.11266  0.64326  0.01126  1.0000
  H   H150      1.0  0.21696  0.59126  0.05136  1.0000
  C   C194      1.0  0.22262  0.77330  0.13240  1.0000
  H   H151      1.0  0.05325  0.56170  0.45605  1.0000
  H   H152      1.0  0.16811  0.64434  0.01632  1.0000
  H   H153      1.0  0.19676  0.63225  0.02166  1.0000
  P   P7        1.0  0.01257  0.53640  0.45243  1.0000
  C   C195      1.0  0.03125  0.57997  0.38881  1.0000
  C   C196      1.0  0.01875  0.51727  0.44447  1.0000
  C   C197      1.0  0.13927  0.62899  0.99773  1.0000
  H   H154      1.0  0.02364  0.72904  0.28912  1.0000
  H   H155      1.0  0.07352  0.59042  0.42732  1.0000
  C   C198      1.0  0.99184  0.58913  0.47383  1.0000
  C   C199      1.0  0.02734  0.55674  0.42936  1.0000
  C   C200      1.0  0.02680  0.70363  0.29589  1.0000
  H   H156      1.0  0.02510  0.58545  0.37063  1.0000
  C   C201      1.0  0.05061  0.58970  0.39701  1.0000
  C   C202      1.0  0.05848  0.58288  0.42097  1.0000
  C   C203      1.0  0.04690  0.56656  0.43722  1.0000
  C   C204      1.0  0.01696  0.65414  0.36243  1.0000
  C   C205      1.0  0.03474  0.72872  0.33740  1.0000
  H   H157      1.0  0.19891  0.57372  0.13586  1.0000
  C   C206      1.0  0.03941  0.70116  0.34894  1.0000
  H   H158      1.0  0.10200  0.54916  0.01347  1.0000
  H   H159      1.0  0.21186  0.50467  0.10878  1.0000
  H   H160      1.0  0.21365  0.67512  0.09848  1.0000
  C   C207      1.0  0.18639  0.58468  0.10000  1.0000
  H   H161      1.0  0.99315  0.53620  0.34126  1.0000
  H   H162      1.0  0.17917  0.49641  0.12329  1.0000
  C   C208      1.0  0.07444  0.60317  0.05902  1.0000
  H   H163      1.0  0.05949  0.60251  0.38472  1.0000
  C   C209      1.0  0.00166  0.49974  0.22086  1.0000
  C   C210      1.0  0.12808  0.49228  0.00675  1.0000
  C   C211      1.0  0.03000  0.51769  0.41840  1.0000
  H   H164      1.0  0.98725  0.52720  0.21562  1.0000
  C   C212      1.0  0.10220  0.63190  0.02465  1.0000
  H   H165      1.0  0.13381  0.62752  0.02178  1.0000
  C   C213      1.0  0.09681  0.63627  0.05454  1.0000
  C   C214      1.0  0.15889  0.63825  0.99476  1.0000
  C   C215      1.0  0.19212  0.57152  0.11179  1.0000
  H   H166      1.0  0.03524  0.52947  0.40235  1.0000
  C   C216      1.0  0.20028  0.49611  0.09165  1.0000
  C   C217      1.0  0.12968  0.52819  0.01382  1.0000
  H   H167      1.0  0.07099  0.68310  0.32355  1.0000
  H   H168      1.0  0.19239  0.54465  0.10281  1.0000
  C   C218      1.0  0.02567  0.63204  0.38903  1.0000
  C   C219      1.0  0.21010  0.74134  0.05173  1.0000
  C   C220      1.0  0.00595  0.53105  0.29909  1.0000
  C   C221      1.0  0.07996  0.59874  0.02921  1.0000
  H   H169      1.0  0.00362  0.51296  0.17467  1.0000
  H   H170      1.0  0.04260  0.50268  0.39180  1.0000
  H   H171      1.0  0.13027  0.54210  0.01659  1.0000
  H   H172      1.0  0.02172  0.69808  0.27126  1.0000
  C   C222      1.0  0.19732  0.73225  0.99633  1.0000
  H   H173      1.0  0.00485  0.55594  0.39675  1.0000
  H   H174      1.0  0.12435  0.52187  0.06443  1.0000
  H   H175      1.0  0.18903  0.59706  0.11523  1.0000
  H   H176      1.0  0.17509  0.53843  0.04912  1.0000
  C   C223      1.0  0.99170  0.63220  0.23899  1.0000
  C   C224      1.0  0.22422  0.76241  0.19573  1.0000
  C   C225      1.0  0.22752  0.58906  0.03827  1.0000
  P   P8        1.0  0.03120  0.67099  0.30410  1.0000
  C   C226      1.0  0.03419  0.50250  0.41225  1.0000
  H   H177      1.0  0.16540  0.56152  0.02763  1.0000
  H   H178      1.0  0.99286  0.66783  0.30674  1.0000
  H   H179      1.0  0.00441  0.63958  0.40583  1.0000
  H   H180      1.0  0.06340  0.59212  0.07206  1.0000
  C   C227      1.0  0.03226  0.69337  0.31752  1.0000
  H   H181      1.0  0.07982  0.48897  0.00574  1.0000
  Fe  Fe11      1.0  0.12482  0.49725  0.12128  1.0000
  H   H182      1.0  0.20817  0.53831  0.01973  1.0000
  C   C228      1.0  0.18174  0.49127  0.10014  1.0000
  C   C229      1.0  0.03859  0.63436  0.36503  1.0000
  C   C230      1.0  0.02794  0.72120  0.30589  1.0000
  H   H183      1.0  0.02449  0.49969  0.29482  1.0000
  S   S27       1.0  0.13636  0.48717  0.16315  1.0000
  Fe  Fe12      1.0  0.97990  0.58508  0.35076  1.0000
  C   C231      1.0  0.98742  0.52829  0.44360  1.0000
  C   C232      1.0  0.22203  0.57613  0.01149  1.0000
  C   C233      1.0  0.10047  0.57406  0.99647  1.0000
  H   H184      1.0  0.22176  0.52981  0.06680  1.0000
  C   C234      1.0  0.22172  0.76428  0.00962  1.0000
  C   C235      1.0  0.98013  0.54149  0.44251  1.0000
  C   C236      1.0  0.18477  0.59718  0.99422  1.0000
  H   H185      1.0  0.01398  0.49490  0.35091  1.0000
  C   C237      1.0  0.20383  0.48989  0.06145  1.0000
  H   H186      1.0  0.22480  0.75846  0.22057  1.0000
  H   H187      1.0  0.22766  0.54330  0.14461  1.0000
  H   H188      1.0  0.21746  0.49279  0.22160  1.0000
  P   P9        1.0  0.22799  0.49616  0.05140  1.0000
  H   H189      1.0  0.22158  0.77774  0.10814  1.0000
  H   H190      1.0  0.00331  0.50100  0.48447  1.0000
  H   H191      1.0  0.13951  0.59052  0.00215  1.0000
  C   C238      1.0  0.10024  0.55632  0.99249  1.0000
  H   H192      1.0  0.97968  0.49810  0.43839  1.0000
  C   C239      1.0  0.15211  0.59170  0.99090  1.0000
  C   C240      1.0  0.02704  0.48675  0.43182  1.0000
  Fe  Fe13      1.0  0.15804  0.70055  0.82114  1.0000
  S   S28       1.0  0.12682  0.69140  0.82746  1.0000
  S   S29       1.0  0.17674  0.73214  0.81215  1.0000
  Fe  Fe14      1.0  0.15358  0.66131  0.83863  1.0000
  S   S30       1.0  0.12265  0.64969  0.84754  1.0000
  S   S31       1.0  0.16973  0.64457  0.84957  1.0000
  Fe  Fe15      1.0  0.12084  0.66364  0.80123  1.0000
  S   S32       1.0  0.09923  0.64509  0.76043  1.0000
  Fe  Fe16      1.0  0.13093  0.67810  0.87290  1.0000
  S   S33       1.0  0.11882  0.68157  0.92051  1.0000
  S   S34       1.0  0.15185  0.67384  0.79104  1.0000
  S   S35       1.0  0.16209  0.68866  0.86784  1.0000
  S   S36       1.0  0.13556  0.50854  0.80822  1.0000
  Fe  Fe17      1.0  0.13560  0.52472  0.89849  1.0000
  S   S37       1.0  0.16095  0.53943  0.86809  1.0000
  C   C241      1.0  0.07405  0.58699  0.68967  1.0000
  Fe  Fe18      1.0  0.13969  0.53712  0.82853  1.0000
  S   S38       1.0  0.13976  0.55952  0.79508  1.0000
  Fe  Fe19      1.0  0.15517  0.50994  0.85073  1.0000
  H   H193      1.0  0.05208  0.53744  0.77729  1.0000
  S   S39       1.0  0.11492  0.52502  0.86053  1.0000
  Fe  Fe20      1.0  0.99655  0.60451  0.66720  1.0000
  S   S40       1.0  0.01737  0.62951  0.70066  1.0000
  S   S41       1.0  0.00080  0.59363  0.61830  1.0000
  H   H194      1.0  0.06914  0.59271  0.64025  1.0000
  C   C242      1.0  0.19486  0.68462  0.76253  1.0000
  S   S42       1.0  0.98465  0.57616  0.68953  1.0000
  C   C243      1.0  0.14358  0.73069  0.91215  1.0000
  C   C244      1.0  0.05499  0.53264  0.68286  1.0000
  H   H195      1.0  0.99533  0.59033  0.52656  1.0000
  H   H196      1.0  0.20654  0.88463  0.74881  1.0000
  C   C245      1.0  0.15986  0.62051  0.83586  1.0000
  C   C246      1.0  0.16550  0.60822  0.85162  1.0000
  C   C247      1.0  0.15879  0.58926  0.84006  1.0000
  C   C248      1.0  0.14684  0.58264  0.81204  1.0000
  C   C249      1.0  0.14112  0.59491  0.79637  1.0000
  C   C250      1.0  0.14737  0.61371  0.80852  1.0000
  H   H197      1.0  0.17526  0.61348  0.87262  1.0000
  H   H198      1.0  0.16337  0.57994  0.85209  1.0000
  H   H199      1.0  0.13195  0.58992  0.77466  1.0000
  H   H200      1.0  0.14306  0.62314  0.79612  1.0000
  C   C251      1.0  0.13105  0.68152  0.95706  1.0000
  C   C252      1.0  0.21130  0.52476  0.82963  1.0000
  H   H201      1.0  0.07827  0.50165  0.95175  1.0000
  H   H202      1.0  0.15327  0.67810  0.93354  1.0000
  C   C253      1.0  0.04309  0.57896  0.66515  1.0000
  C   C254      1.0  0.07640  0.64116  0.74475  1.0000
  C   C255      1.0  0.06815  0.62843  0.71770  1.0000
  C   C256      1.0  0.05009  0.62451  0.70428  1.0000
  C   C257      1.0  0.03999  0.63348  0.71752  1.0000
  C   C258      1.0  0.04826  0.64635  0.74448  1.0000
  C   C259      1.0  0.06629  0.65010  0.75816  1.0000
  H   H203      1.0  0.07595  0.62172  0.70681  1.0000
  H   H204      1.0  0.04409  0.61483  0.68331  1.0000
  H   H205      1.0  0.04069  0.65350  0.75487  1.0000
  H   H206      1.0  0.07237  0.65998  0.77889  1.0000
  C   C260      1.0  0.20178  0.74636  0.81642  1.0000
  C   C261      1.0  0.13111  0.50360  0.97958  1.0000
  S   S43       1.0  0.17739  0.49875  0.85583  1.0000
  C   C262      1.0  0.21246  0.49900  0.85827  1.0000
  H   H207      1.0  0.00648  0.56544  0.55725  1.0000
  C   C263      1.0  0.20924  0.76630  0.81920  1.0000
  H   H208      1.0  0.20890  0.72320  0.81350  1.0000
  C   C264      1.0  0.12103  0.56810  0.70596  1.0000
  H   H209      1.0  0.19965  0.77260  0.82032  1.0000
  C   C265      1.0  0.20204  0.50844  0.84747  1.0000
  H   H210      1.0  0.20071  0.52675  0.91564  1.0000
  S   S44       1.0  0.13044  0.49535  0.88319  1.0000
  C   C266      1.0  0.09862  0.56065  0.66007  1.0000
  C   C267      1.0  0.15444  0.63303  0.93635  1.0000
  C   C268      1.0  0.08543  0.54102  0.81894  1.0000
  H   H211      1.0  0.06422  0.56505  0.86901  1.0000
  C   C269      1.0  0.03213  0.50921  0.76100  1.0000
  C   C270      1.0  0.12703  0.62197  0.96994  1.0000
  C   C271      1.0  0.13479  0.62388  0.93919  1.0000
  C   C272      1.0  0.98610  0.58953  0.50608  1.0000
  C   C273      1.0  0.09869  0.58361  0.96934  1.0000
  C   C274      1.0  0.02717  0.50395  0.66442  1.0000
  H   H212      1.0  0.20782  0.70425  0.87927  1.0000
  C   C275      1.0  0.01580  0.56824  0.76547  1.0000
  C   C276      1.0  0.12313  0.50784  0.71804  1.0000
  Fe  Fe21      1.0  0.98678  0.56515  0.64016  1.0000
  C   C277      1.0  0.22568  0.56837  0.92652  1.0000
  C   C278      1.0  0.99635  0.49857  0.55028  1.0000
  H   H213      1.0  0.98017  0.66174  0.74830  1.0000
  C   C279      1.0  0.15164  0.58881  0.95714  1.0000
  C   C280      1.0  0.09696  0.55762  0.93407  1.0000
  C   C281      1.0  0.09704  0.57530  0.93802  1.0000
  C   C282      1.0  0.08797  0.61203  0.94301  1.0000
  C   C283      1.0  0.06940  0.59810  0.93487  1.0000
  C   C284      1.0  0.05821  0.60156  0.91166  1.0000
  C   C285      1.0  0.06546  0.61897  0.89657  1.0000
  C   C286      1.0  0.08384  0.63295  0.90488  1.0000
  C   C287      1.0  0.09504  0.62959  0.92818  1.0000
  H   H214      1.0  0.16034  0.63451  0.91260  1.0000
  H   H215      1.0  0.12556  0.56426  0.72855  1.0000
  C   C288      1.0  0.98407  0.55985  0.78332  1.0000
  H   H216      1.0  0.19742  0.68903  0.57117  1.0000
  H   H217      1.0  0.17786  0.63363  0.72516  1.0000
  C   C289      1.0  0.18176  0.69628  0.60621  1.0000
  C   C290      1.0  0.06574  0.57967  0.71897  1.0000
  C   C291      1.0  0.10355  0.55584  0.69029  1.0000
  C   C292      1.0  0.02710  0.53715  0.75414  1.0000
  H   H218      1.0  0.99582  0.51006  0.53724  1.0000
  C   C293      1.0  0.12749  0.59047  0.66327  1.0000
  H   H219      1.0  0.19248  0.57716  0.88601  1.0000
  H   H220      1.0  0.20359  0.53221  0.82104  1.0000
  C   C294      1.0  0.10057  0.51916  0.70077  1.0000
  C   C295      1.0  0.20801  0.56766  0.91843  1.0000
  H   H221      1.0  0.06351  0.58466  0.94672  1.0000
  H   H222      1.0  0.04389  0.59082  0.90541  1.0000
  H   H223      1.0  0.05685  0.62173  0.87858  1.0000
  H   H224      1.0  0.08933  0.64657  0.89354  1.0000
  H   H225      1.0  0.10908  0.64083  0.93483  1.0000
  H   H226      1.0  0.05125  0.54921  0.55518  1.0000
  H   H227      1.0  0.03427  0.57890  0.64448  1.0000
  H   H228      1.0  0.09686  0.56721  0.75167  1.0000
  H   H229      1.0  0.13315  0.50753  0.73619  1.0000
  C   C296      1.0  0.00857  0.55216  0.51205  1.0000
  H   H230      1.0  0.99691  0.54112  0.78479  1.0000
  C   C297      1.0  0.01474  0.49781  0.74480  1.0000
  C   C298      1.0  0.98387  0.52367  0.64864  1.0000
  H   H231      1.0  0.06182  0.54783  0.68718  1.0000
  C   C299      1.0  0.03839  0.52882  0.76539  1.0000
  H   H232      1.0  0.08762  0.61714  0.81814  1.0000
  H   H233      1.0  0.08806  0.59897  0.86614  1.0000
  C   C300      1.0  0.19592  0.52333  0.94017  1.0000
  H   H234      1.0  0.11635  0.52657  0.74734  1.0000
  H   H235      1.0  0.09656  0.58281  0.91663  1.0000
  C   C301      1.0  0.22618  0.85059  0.71712  1.0000
  H   H236      1.0  0.19858  0.69846  0.77380  1.0000
  C   C302      1.0  0.06463  0.52200  0.69044  1.0000
  C   C303      1.0  0.99884  0.55507  0.77850  1.0000
  H   H237      1.0  0.18168  0.64759  0.96167  1.0000
  H   H238      1.0  0.16715  0.58760  0.91579  1.0000
  H   H239      1.0  0.04080  0.54923  0.82340  1.0000
  C   C304      1.0  0.09154  0.55689  0.79971  1.0000
  C   C305      1.0  0.09206  0.55472  0.76596  1.0000
  C   C306      1.0  0.04604  0.57217  0.72170  1.0000
  C   C307      1.0  0.19472  0.67023  0.78179  1.0000
  C   C308      1.0  0.16649  0.64025  0.96406  1.0000
  C   C309      1.0  0.07778  0.59195  0.84617  1.0000
  H   H240      1.0  0.09632  0.57096  0.81097  1.0000
  P   P10       1.0  0.03518  0.56255  0.75936  1.0000
  C   C310      1.0  0.01821  0.58660  0.75950  1.0000
  C   C311      1.0  0.06441  0.57287  0.84766  1.0000
  S   S45       1.0  0.13579  0.53628  0.94959  1.0000
  H   H241      1.0  0.00543  0.60555  0.75949  1.0000
  H   H242      1.0  0.99033  0.49716  0.71978  1.0000
  H   H243      1.0  0.18702  0.85781  0.70987  1.0000
  C   C312      1.0  0.02923  0.55777  0.55991  1.0000
  H   H244      1.0  0.19678  0.59555  0.94860  1.0000
  C   C313      1.0  0.22432  0.72417  0.72913  1.0000
  C   C314      1.0  0.20813  0.84779  0.70655  1.0000
  H   H245      1.0  0.12764  0.48948  0.68356  1.0000
  H   H246      1.0  0.01949  0.56569  0.69574  1.0000
  H   H247      1.0  0.03311  0.56283  0.58508  1.0000
  C   C315      1.0  0.07762  0.60221  0.81915  1.0000
  H   H248      1.0  0.17075  0.49836  0.92377  1.0000
  H   H249      1.0  0.99228  0.63775  0.74726  1.0000
  H   H250      1.0  0.10658  0.58172  0.62360  1.0000
  H   H251      1.0  0.19264  0.71908  0.91329  1.0000
  C   C316      1.0  0.06272  0.58669  0.66278  1.0000
  C   C317      1.0  0.18291  0.64797  0.73534  1.0000
  C   C318      1.0  0.16770  0.59015  0.94190  1.0000
  C   C319      1.0  0.05491  0.50210  0.68641  1.0000
  C   C320      1.0  0.21619  0.71853  0.88967  1.0000
  C   C321      1.0  0.12386  0.68312  0.98723  1.0000
  C   C322      1.0  0.18310  0.66237  0.71596  1.0000
  C   C323      1.0  0.20615  0.57791  0.89249  1.0000
  C   C324      1.0  0.16443  0.69687  0.71292  1.0000
  H   H252      1.0  0.12574  0.61819  0.91737  1.0000
  H   H253      1.0  0.17161  0.74541  0.98126  1.0000
  C   C325      1.0  0.01846  0.54405  0.49497  1.0000
  H   H254      1.0  0.07475  0.57996  0.73942  1.0000
  H   H255      1.0  0.06447  0.60174  0.77281  1.0000
  C   C326      1.0  0.21959  0.75673  0.71966  1.0000
  C   C327      1.0  0.14828  0.68113  0.69940  1.0000
  C   C328      1.0  0.13015  0.67841  0.70702  1.0000
  C   C329      1.0  0.12799  0.69128  0.72836  1.0000
  C   C330      1.0  0.14398  0.70690  0.74205  1.0000
  C   C331      1.0  0.16212  0.70961  0.73456  1.0000
  H   H256      1.0  0.13794  0.72983  0.96307  1.0000
  C   C332      1.0  0.15752  0.73607  0.88914  1.0000
  H   H257      1.0  0.08578  0.55100  0.64652  1.0000
  H   H258      1.0  0.13668  0.60392  0.65302  1.0000
  C   C333      1.0  0.18432  0.59449  0.96042  1.0000
  C   C334      1.0  0.17924  0.69864  0.63925  1.0000
  C   C335      1.0  0.21710  0.78234  0.93992  1.0000
  H   H259      1.0  0.01269  0.49686  0.65464  1.0000
  H   H260      1.0  0.19179  0.73774  0.69992  1.0000
  H   H261      1.0  0.19562  0.55916  0.93193  1.0000
  C   C336      1.0  0.00357  0.59145  0.76494  1.0000
  C   C337      1.0  0.05127  0.56390  0.82163  1.0000
  C   C338      1.0  0.14762  0.67943  0.95647  1.0000
  C   C339      1.0  0.07977  0.52296  0.80441  1.0000
  H   H262      1.0  0.17794  0.65891  0.69084  1.0000
  H   H263      1.0  0.14969  0.67067  0.68371  1.0000
  H   H264      1.0  0.11769  0.66595  0.69743  1.0000
  H   H265      1.0  0.11393  0.68876  0.73508  1.0000
  H   H266      1.0  0.14239  0.71658  0.75945  1.0000
  H   H267      1.0  0.17424  0.72125  0.74670  1.0000
  H   H268      1.0  0.04073  0.50273  0.76992  1.0000
  H   H269      1.0  0.08930  0.59324  0.68809  1.0000
  C   C340      1.0  0.20100  0.85997  0.71813  1.0000
  H   H270      1.0  0.02897  0.53198  0.66379  1.0000
  C   C341      1.0  0.20758  0.72705  0.90878  1.0000
  C   C342      1.0  0.17897  0.50707  0.94469  1.0000
  C   C343      1.0  0.19540  0.69073  0.59678  1.0000
  H   H271      1.0  0.21737  0.68359  0.61310  1.0000
  C   C344      1.0  0.05168  0.57390  0.79366  1.0000
  C   C345      1.0  0.03395  0.54310  0.51083  1.0000
  C   C346      1.0  0.21436  0.73845  0.81521  1.0000
  P   P11       1.0  0.10190  0.60766  0.97398  1.0000
  C   C347      1.0  0.03932  0.54999  0.54309  1.0000
  H   H272      1.0  0.13874  0.58526  0.94276  1.0000
  C   C348      1.0  0.00993  0.52565  0.73678  1.0000
  C   C349      1.0  0.10759  0.49858  0.66449  1.0000
  H   H273      1.0  0.08541  0.54275  0.84512  1.0000
  C   C350      1.0  0.03475  0.57164  0.69443  1.0000
  C   C351      1.0  0.21810  0.74578  0.92146  1.0000
  C   C352      1.0  0.06448  0.59334  0.79324  1.0000
  H   H274      1.0  0.03135  0.59719  0.75043  1.0000
  C   C353      1.0  0.00368  0.50604  0.73267  1.0000
  H   H275      1.0  0.00136  0.53178  0.72626  1.0000
  H   H276      1.0  0.09635  0.55150  0.90990  1.0000
  C   C354      1.0  0.09802  0.50942  0.67054  1.0000
  C   C355      1.0  0.03639  0.52369  0.66959  1.0000
  H   H277      1.0  0.17325  0.69894  0.58789  1.0000
  H   H278      1.0  0.13279  0.49837  0.95597  1.0000
  C   C356      1.0  0.11050  0.57799  0.64678  1.0000
  Fe  Fe22      1.0  0.11143  0.49657  0.84217  1.0000
  C   C357      1.0  0.20662  0.68763  0.62041  1.0000
  C   C358      1.0  0.08054  0.52082  0.77073  1.0000
  C   C359      1.0  0.20647  0.53503  0.96704  1.0000
  C   C360      1.0  0.11348  0.51858  0.72429  1.0000
  H   H279      1.0  0.07525  0.51062  0.81927  1.0000
  C   C361      1.0  0.22187  0.58900  0.87466  1.0000
  H   H280      1.0  0.21774  0.76935  0.71633  1.0000
  C   C362      1.0  0.13280  0.58546  0.69275  1.0000
  H   H281      1.0  0.14611  0.59492  0.70542  1.0000
  P   P12       1.0  0.08859  0.53356  0.70809  1.0000
  H   H282      1.0  0.18812  0.64068  0.78353  1.0000
  H   H283      1.0  0.16960  0.67709  0.98490  1.0000
  C   C363      1.0  0.08694  0.53668  0.75131  1.0000
  C   C364      1.0  0.17669  0.74440  0.89922  1.0000
  H   H284      1.0  0.15344  0.73349  0.86344  1.0000
  C   C365      1.0  0.22682  0.79027  0.91175  1.0000
  H   H285      1.0  0.99327  0.50661  0.62009  1.0000
  P   P13       1.0  0.18769  0.69903  0.70567  1.0000
  C   C366      1.0  0.20685  0.72229  0.71655  1.0000
  C   C367      1.0  0.16795  0.74270  0.95547  1.0000
  S   S46       1.0  0.99868  0.54476  0.63066  1.0000
  H   H286      1.0  0.18730  0.74828  0.88105  1.0000
  H   H287      1.0  0.99674  0.55343  0.50084  1.0000
  H   H288      1.0  0.07635  0.50682  0.75982  1.0000
  C   C368      1.0  0.18873  0.65191  0.76823  1.0000
  H   H289      1.0  0.19970  0.83623  0.68922  1.0000
  C   C369      1.0  0.98411  0.50671  0.63900  1.0000
  H   H290      1.0  0.12872  0.72362  0.90432  1.0000
  C   C370      1.0  0.17258  0.50217  0.97598  1.0000
  H   H291      1.0  0.02684  0.51263  0.55580  1.0000
  H   H292      1.0  0.09921  0.53481  0.95821  1.0000
  P   P14       1.0  0.20677  0.75697  0.94523  1.0000
  C   C371      1.0  0.01403  0.55904  0.54427  1.0000
  C   C372      1.0  0.20484  0.73876  0.71080  1.0000
  H   H293      1.0  0.21486  0.49741  0.93318  1.0000
  C   C373      1.0  0.14880  0.73414  0.94528  1.0000
  C   C374      1.0  0.18202  0.74722  0.93250  1.0000
  H   H294      1.0  0.21315  0.68787  0.67152  1.0000
  C   C375      1.0  0.20413  0.68999  0.65346  1.0000
  C   C376      1.0  0.18943  0.68091  0.72932  1.0000
  C   C377      1.0  0.01399  0.50012  0.56068  1.0000
  H   H295      1.0  0.04200  0.53716  0.49824  1.0000
  H   H296      1.0  0.16889  0.70335  0.64610  1.0000
  H   H297      1.0  0.20677  0.78851  0.98468  1.0000
  H   H298      1.0  0.06150  0.49338  0.69380  1.0000
  C   C378      1.0  0.19023  0.69523  0.66309  1.0000
  H   H299      1.0  0.19853  0.67307  0.80758  1.0000
  H   H300      1.0  0.08866  0.51022  0.65162  1.0000
  C   C379      1.0  0.98639  0.57799  0.77634  1.0000
  H   H301      1.0  0.22656  0.71180  0.73265  1.0000
  H   H302      1.0  0.11107  0.68483  0.98788  1.0000
  C   C380      1.0  0.21197  0.87506  0.74011  1.0000
  C   C381      1.0  0.21503  0.79434  0.96357  1.0000
  C   C382      1.0  0.22333  0.49478  0.95162  1.0000
  C   C383      1.0  0.09858  0.54816  0.96130  1.0000
  H   H303      1.0  0.18750  0.72145  0.97901  1.0000
  C   C384      1.0  0.13194  0.52161  0.98304  1.0000
  C   C385      1.0  0.03639  0.49318  0.67292  1.0000
  H   H304      1.0  0.22029  0.59665  0.85423  1.0000
  C   C386      1.0  0.12009  0.49775  0.68828  1.0000
  C   C387      1.0  0.08082  0.48936  0.95347  1.0000
  H   H305      1.0  0.15948  0.48948  0.97931  1.0000
  C   C388      1.0  0.22022  0.49632  0.98463  1.0000
  C   C389      1.0  0.15677  0.67868  0.98568  1.0000
  C   C390      1.0  0.20879  0.75083  0.98672  1.0000
  P   P15       1.0  0.22844  0.55585  0.96077  1.0000
  H   H306      1.0  0.22268  0.82330  0.97914  1.0000
  C   C391      1.0  0.22391  0.81406  0.96041  1.0000
  H   H307      1.0  0.08298  0.48641  0.90177  1.0000
  H   H308      1.0  0.10544  0.49095  0.64125  1.0000
  H   H309      1.0  0.22758  0.78133  0.89202  1.0000
  H   H310      1.0  0.02873  0.48668  0.58550  1.0000
  C   C392      1.0  0.42982  0.05054  0.44903  1.0000
  H   H311      1.0  0.45717  0.22723  0.16722  1.0000
  C   C393      1.0  0.45232  0.09453  0.17882  1.0000
  H   H312      1.0  0.46528  0.47641  0.16510  1.0000
  C   C394      1.0  0.38652  0.00863  0.47845  1.0000
  Fe  Fe23      1.0  0.46247  0.34913  0.10449  1.0000
  S   S47       1.0  0.44266  0.35010  0.06468  1.0000
  C   C395      1.0  0.47587  0.02112  0.41250  1.0000
  C   C396      1.0  0.41075  0.05370  0.07130  1.0000
  S   S48       1.0  0.45012  0.33377  0.15009  1.0000
  P   P16       1.0  0.47584  0.03416  0.20649  1.0000
  S   S49       1.0  0.40467  0.00273  0.35708  1.0000
  S   S50       1.0  0.45378  0.17363  0.15544  1.0000
  S   S51       1.0  0.47268  0.14455  0.15270  1.0000
  Fe  Fe24      1.0  0.46447  0.16042  0.11673  1.0000
  S   S52       1.0  0.44952  0.14258  0.07098  1.0000
  Fe  Fe25      1.0  0.46472  0.15923  0.19175  1.0000
  S   S53       1.0  0.45491  0.14326  0.23889  1.0000
  Fe  Fe26      1.0  0.39804  0.43487  0.37705  1.0000
  S   S54       1.0  0.37966  0.41602  0.33434  1.0000
  S   S55       1.0  0.40115  0.42552  0.42892  1.0000
  Fe  Fe27      1.0  0.41834  0.46725  0.33247  1.0000
  S   S56       1.0  0.40265  0.45109  0.28695  1.0000
  C   C397      1.0  0.43159  0.08733  0.06736  1.0000
  Fe  Fe28      1.0  0.37714  0.44193  0.31700  1.0000
  S   S57       1.0  0.35043  0.44248  0.29482  1.0000
  Fe  Fe29      1.0  0.40649  0.42649  0.30630  1.0000
  S   S58       1.0  0.41060  0.40671  0.26833  1.0000
  S   S59       1.0  0.39276  0.45941  0.36212  1.0000
  S   S60       1.0  0.42485  0.44390  0.34946  1.0000
  Fe  Fe30      1.0  0.38773  0.01819  0.36931  1.0000
  C   C398      1.0  0.23690  0.45200  0.08302  1.0000
  Fe  Fe31      1.0  0.39628  0.03839  0.30327  1.0000
  S   S61       1.0  0.41344  0.02376  0.28752  1.0000
  S   S62       1.0  0.39320  0.05846  0.26691  1.0000
  C   C399      1.0  0.46638  0.24163  0.16078  1.0000
  Fe  Fe32      1.0  0.42552  0.03068  0.33874  1.0000
  S   S63       1.0  0.45687  0.04430  0.34993  1.0000
  S   S64       1.0  0.37223  0.01102  0.31955  1.0000
  S   S65       1.0  0.40967  0.04672  0.35377  1.0000
  C   C400      1.0  0.43823  0.11921  0.24501  1.0000
  C   C401      1.0  0.44091  0.10990  0.27195  1.0000
  C   C402      1.0  0.42744  0.09126  0.27874  1.0000
  C   C403      1.0  0.41088  0.08181  0.25902  1.0000
  C   C404      1.0  0.40808  0.09123  0.23238  1.0000
  C   C405      1.0  0.42172  0.10971  0.22525  1.0000
  H   H313      1.0  0.45330  0.11724  0.28806  1.0000
  H   H314      1.0  0.42961  0.08438  0.29972  1.0000
  H   H315      1.0  0.39513  0.08430  0.21745  1.0000
  H   H316      1.0  0.41913  0.11694  0.20531  1.0000
  C   C406      1.0  0.45246  0.38399  0.23527  1.0000
  C   C407      1.0  0.43665  0.38126  0.21558  1.0000
  C   C408      1.0  0.42405  0.38823  0.22622  1.0000
  C   C409      1.0  0.42715  0.39831  0.25642  1.0000
  C   C410      1.0  0.44319  0.40140  0.27577  1.0000
  C   C411      1.0  0.45567  0.39422  0.26531  1.0000
  H   H317      1.0  0.43391  0.37345  0.19244  1.0000
  H   H318      1.0  0.41175  0.38575  0.21092  1.0000
  H   H319      1.0  0.44584  0.40912  0.29898  1.0000
  H   H320      1.0  0.39840  0.41147  0.20682  1.0000
  C   C412      1.0  0.43378  0.04497  0.47912  1.0000
  Fe  Fe33      1.0  0.39045  0.99691  0.30667  1.0000
  H   H321      1.0  0.39944  0.98683  0.42630  1.0000
  H   H322      1.0  0.23523  0.43842  0.07331  1.0000
  H   H323      1.0  0.41545  0.13203  0.13915  1.0000
  C   C413      1.0  0.44898  0.08906  0.14563  1.0000
  H   H324      1.0  0.43615  0.09771  0.01893  1.0000
  H   H325      1.0  0.44060  0.09074  0.19474  1.0000
  C   C414      1.0  0.36596  0.47713  0.26374  1.0000
  C   C415      1.0  0.34966  0.46052  0.27025  1.0000
  C   C416      1.0  0.33208  0.45808  0.25688  1.0000
  C   C417      1.0  0.33075  0.47206  0.23765  1.0000
  H   H326      1.0  0.32973  0.99890  0.38724  1.0000
  H   H327      1.0  0.37961  0.47926  0.27366  1.0000
  H   H328      1.0  0.31939  0.44525  0.26146  1.0000
  H   H329      1.0  0.31715  0.46984  0.22746  1.0000
  C   C418      1.0  0.46591  0.02978  0.33291  1.0000
  C   C419      1.0  0.45354  0.01176  0.31960  1.0000
  H   H330      1.0  0.43844  0.00707  0.31854  1.0000
  H   H331      1.0  0.45738  0.47773  0.34977  1.0000
  C   C420      1.0  0.46662  0.32948  0.24850  1.0000
  C   C421      1.0  0.40077  0.43328  0.47014  1.0000
  C   C422      1.0  0.34112  0.40201  0.48011  1.0000
  H   H332      1.0  0.38725  0.45089  0.45965  1.0000
  H   H333      1.0  0.43438  0.11489  0.13134  1.0000
  C   C423      1.0  0.46833  0.17327  0.03312  1.0000
  C   C424      1.0  0.45598  0.15389  0.03362  1.0000
  H   H334      1.0  0.44831  0.04948  0.20208  1.0000
  C   C425      1.0  0.46967  0.03551  0.16434  1.0000
  C   C426      1.0  0.44518  0.35074  0.02202  1.0000
  H   H335      1.0  0.47312  0.10971  0.21724  1.0000
  H   H336      1.0  0.42470  0.23941  0.99765  1.0000
  H   H337      1.0  0.46098  0.08396  0.29013  1.0000
  C   C427      1.0  0.23475  0.48142  0.07584  1.0000
  H   H338      1.0  0.44965  0.00711  0.09597  1.0000
  H   H339      1.0  0.47253  0.35108  0.02120  1.0000
  C   C428      1.0  0.46034  0.01888  0.14441  1.0000
  H   H340      1.0  0.25157  0.48007  0.15236  1.0000
  Fe  Fe34      1.0  0.47246  0.32337  0.14771  1.0000
  H   H341      1.0  0.43542  0.46225  0.43543  1.0000
  C   C429      1.0  0.41622  0.02143  0.15624  1.0000
  C   C430      1.0  0.40689  0.01905  0.18537  1.0000
  C   C431      1.0  0.40313  0.03352  0.19794  1.0000
  H   H342      1.0  0.41926  0.01025  0.14670  1.0000
  H   H343      1.0  0.40262  0.00605  0.19840  1.0000
  H   H344      1.0  0.39612  0.03180  0.22079  1.0000
  C   C432      1.0  0.44321  0.48453  0.47274  1.0000
  C   C433      1.0  0.47195  0.05433  0.11733  1.0000
  C   C434      1.0  0.45482  0.47676  0.14799  1.0000
  H   H345      1.0  0.44970  0.30133  0.22723  1.0000
  C   C435      1.0  0.24629  0.47554  0.12748  1.0000
  C   C436      1.0  0.41552  0.16031  0.02769  1.0000
  P   P17       1.0  0.44066  0.21867  0.03717  1.0000
  C   C437      1.0  0.46531  0.23031  0.05073  1.0000
  C   C438      1.0  0.42715  0.22817  0.05910  1.0000
  C   C439      1.0  0.43554  0.24213  0.08436  1.0000
  C   C440      1.0  0.42474  0.24933  0.10065  1.0000
  C   C441      1.0  0.40548  0.24243  0.09235  1.0000
  C   C442      1.0  0.39691  0.22817  0.06789  1.0000
  C   C443      1.0  0.40767  0.22096  0.05146  1.0000
  C   C444      1.0  0.47281  0.29157  0.99628  1.0000
  C   C445      1.0  0.43008  0.39294  0.12382  1.0000
  C   C446      1.0  0.44423  0.05892  0.42719  1.0000
  C   C447      1.0  0.38960  0.10675  0.14722  1.0000
  H   H346      1.0  0.43496  0.27526  0.04507  1.0000
  C   C448      1.0  0.42993  0.19368  0.04549  1.0000
  H   H347      1.0  0.39901  0.01015  0.46636  1.0000
  C   C449      1.0  0.40840  0.05024  0.18121  1.0000
  C   C450      1.0  0.41379  0.15510  0.06008  1.0000
  C   C451      1.0  0.41989  0.16908  0.08521  1.0000
  C   C452      1.0  0.42791  0.18829  0.07800  1.0000
  C   C453      1.0  0.40846  0.05174  0.03732  1.0000
  H   H348      1.0  0.40816  0.14024  0.06570  1.0000
  H   H349      1.0  0.46241  0.09028  0.09988  1.0000
  C   C454      1.0  0.46262  0.06196  0.43557  1.0000
  C   C455      1.0  0.44960  0.28174  0.03819  1.0000
  H   H350      1.0  0.45034  0.24751  0.09179  1.0000
  H   H351      1.0  0.43131  0.26030  0.11983  1.0000
  H   H352      1.0  0.39721  0.24808  0.10511  1.0000
  H   H353      1.0  0.38192  0.22266  0.06173  1.0000
  C   C456      1.0  0.42345  0.17951  0.02034  1.0000
  C   C457      1.0  0.43040  0.35099  0.00296  1.0000
  H   H354      1.0  0.35754  0.43104  0.22946  1.0000
  C   C458      1.0  0.45388  0.28243  0.00537  1.0000
  C   C459      1.0  0.41122  0.08707  0.13880  1.0000
  H   H355      1.0  0.46037  0.40949  0.12824  1.0000
  H   H356      1.0  0.43067  0.38069  0.11227  1.0000
  H   H357      1.0  0.24810  0.44923  0.12988  1.0000
  H   H358      1.0  0.34413  0.00840  0.46282  1.0000
  H   H359      1.0  0.41872  0.16502  0.11031  1.0000
  H   H360      1.0  0.43284  0.19899  0.09780  1.0000
  H   H361      1.0  0.44137  0.07021  0.23931  1.0000
  C   C460      1.0  0.42953  0.98777  0.23673  1.0000
  H   H362      1.0  0.36618  0.07924  0.15380  1.0000
  C   C461      1.0  0.42281  0.07142  0.08658  1.0000
  C   C462      1.0  0.46445  0.09438  0.12547  1.0000
  C   C463      1.0  0.41181  0.40813  0.14505  1.0000
  H   H363      1.0  0.40568  0.06137  0.19190  1.0000
  C   C464      1.0  0.46631  0.44813  0.24980  1.0000
  C   C465      1.0  0.35454  0.39830  0.46431  1.0000
  H   H364      1.0  0.45582  0.00501  0.15434  1.0000
  C   C466      1.0  0.47214  0.05115  0.23173  1.0000
  S   S66       1.0  0.46840  0.37463  0.22415  1.0000
  H   H365      1.0  0.47487  0.02353  0.48205  1.0000
  H   H366      1.0  0.37420  0.38655  0.46816  1.0000
  S   S67       1.0  0.46244  0.29150  0.15700  1.0000
  C   C467      1.0  0.44012  0.22270  0.99413  1.0000
  C   C468      1.0  0.41783  0.06752  0.01839  1.0000
  C   C469      1.0  0.46432  0.07515  0.27352  1.0000
  H   H367      1.0  0.45919  0.43741  0.15476  1.0000
  S   S68       1.0  0.37236  0.01426  0.41753  1.0000
  C   C470      1.0  0.46464  0.45202  0.42908  1.0000
  C   C471      1.0  0.44922  0.47006  0.22752  1.0000
  H   H368      1.0  0.46926  0.25799  0.03731  1.0000
  C   C472      1.0  0.46098  0.35112  0.00662  1.0000
  C   C473      1.0  0.41258  0.39250  0.12960  1.0000
  C   C474      1.0  0.23194  0.46351  0.06369  1.0000
  H   H369      1.0  0.42949  0.48044  0.39272  1.0000
  C   C475      1.0  0.46416  0.28980  0.06221  1.0000
  C   C476      1.0  0.47142  0.46606  0.26432  1.0000
  C   C477      1.0  0.39955  0.45430  0.19284  1.0000
  H   H370      1.0  0.37781  0.46213  0.20664  1.0000
  C   C478      1.0  0.43730  0.47645  0.44128  1.0000
  H   H371      1.0  0.47257  0.43940  0.25896  1.0000
  H   H372      1.0  0.35799  0.40252  0.43949  1.0000
  C   C479      1.0  0.46659  0.05627  0.46557  1.0000
  H   H373      1.0  0.47370  0.06852  0.41845  1.0000
  C   C480      1.0  0.46278  0.03773  0.09762  1.0000
  H   H374      1.0  0.44933  0.99641  0.41664  1.0000
  C   C481      1.0  0.42931  0.08532  0.03344  1.0000
  H   H375      1.0  0.36812  0.40590  0.23001  1.0000
  H   H376      1.0  0.43137  0.00790  0.47901  1.0000
  C   C482      1.0  0.36373  0.38929  0.48057  1.0000
  C   C483      1.0  0.38220  0.45098  0.20573  1.0000
  C   C484      1.0  0.47416  0.22002  0.06388  1.0000
  C   C485      1.0  0.47123  0.98878  0.40229  1.0000
  C   C486      1.0  0.46068  0.99949  0.30845  1.0000
  H   H377      1.0  0.32329  0.99864  0.32778  1.0000
  C   C487      1.0  0.45683  0.02000  0.11122  1.0000
  C   C488      1.0  0.47598  0.24991  0.04725  1.0000
  C   C489      1.0  0.47822  0.30623  0.23935  1.0000
  H   H378      1.0  0.44630  0.43321  0.46383  1.0000
  P   P18       1.0  0.42491  0.07454  0.13045  1.0000
  H   H379      1.0  0.44868  0.42706  0.21377  1.0000
  C   C490      1.0  0.42852  0.47772  0.10221  1.0000
  C   C491      1.0  0.42157  0.03819  0.13949  1.0000
  H   H380      1.0  0.40808  0.45253  0.12380  1.0000
  H   H381      1.0  0.29651  0.47956  0.25648  1.0000
  C   C492      1.0  0.40535  0.43989  0.19207  1.0000
  C   C493      1.0  0.46407  0.00155  0.41104  1.0000
  C   C494      1.0  0.37072  0.43343  0.21860  1.0000
  H   H382      1.0  0.44121  0.06314  0.40373  1.0000
  H   H383      1.0  0.38134  0.11439  0.15099  1.0000
  C   C495      1.0  0.45885  0.44650  0.46050  1.0000
  H   H384      1.0  0.41555  0.04830  0.44257  1.0000
  C   C496      1.0  0.37661  0.41923  0.21873  1.0000
  C   C497      1.0  0.46048  0.01061  0.21976  1.0000
  C   C498      1.0  0.44207  0.00626  0.22894  1.0000
  H   H385      1.0  0.41819  0.35073  0.01453  1.0000
  C   C499      1.0  0.39385  0.42246  0.20561  1.0000
  H   H386      1.0  0.41585  0.06606  0.99209  1.0000
  H   H387      1.0  0.39908  0.03806  0.02567  1.0000
  C   C500      1.0  0.46346  0.31132  0.23777  1.0000
  H   H388      1.0  0.44245  0.47856  0.21965  1.0000
  C   C501      1.0  0.47156  0.27454  0.15411  1.0000
  C   C502      1.0  0.38109  0.08696  0.14888  1.0000
  C   C503      1.0  0.40880  0.11670  0.14068  1.0000
  H   H389      1.0  0.46782  0.39647  0.28080  1.0000
  H   H390      1.0  0.44555  0.25163  0.16917  1.0000
  H   H391      1.0  0.43731  0.01709  0.23032  1.0000
  C   C504      1.0  0.46274  0.47694  0.25339  1.0000
  H   H392      1.0  0.28805  0.48594  0.99861  1.0000
  C   C505      1.0  0.45279  0.44121  0.22394  1.0000
  C   C506      1.0  0.46599  0.99601  0.21810  1.0000
  H   H393      1.0  0.47000  0.03087  0.41736  1.0000
  C   C507      1.0  0.39177  0.07710  0.14421  1.0000
  H   H394      1.0  0.43866  0.12854  0.00421  1.0000
  H   H395      1.0  0.40849  0.46822  0.18414  1.0000
  C   C508      1.0  0.32565  0.98733  0.33797  1.0000
  H   H396      1.0  0.39810  0.40752  0.14876  1.0000
  H   H397      1.0  0.39961  0.37992  0.12234  1.0000
  H   H398      1.0  0.42911  0.03998  0.11732  1.0000
  C   C509      1.0  0.44610  0.42487  0.14814  1.0000
  C   C510      1.0  0.42860  0.42421  0.15551  1.0000
  H   H399      1.0  0.46029  0.03860  0.07181  1.0000
  C   C511      1.0  0.44837  0.14352  0.00404  1.0000
  C   C512      1.0  0.41957  0.10692  0.13658  1.0000
  C   C513      1.0  0.47243  0.18245  0.00352  1.0000
  C   C514      1.0  0.43572  0.46309  0.14830  1.0000
  H   H400      1.0  0.44000  0.10140  0.07856  1.0000
  C   C515      1.0  0.44683  0.40919  0.13285  1.0000
  P   P19       1.0  0.42816  0.44436  0.17688  1.0000
  C   C516      1.0  0.47512  0.05326  0.15067  1.0000
  C   C517      1.0  0.37181  0.00983  0.46019  1.0000
  H   H401      1.0  0.46080  0.28954  0.08761  1.0000
  H   H402      1.0  0.40082  0.20982  0.03265  1.0000
  H   H403      1.0  0.45531  0.33361  0.24651  1.0000
  C   C518      1.0  0.45728  0.05562  0.22382  1.0000
  C   C519      1.0  0.41720  0.05252  0.15135  1.0000
  H   H404      1.0  0.45661  0.44297  0.40820  1.0000
  H   H405      1.0  0.38482  0.06174  0.14477  1.0000
  C   C520      1.0  0.44450  0.45233  0.21200  1.0000
  H   H406      1.0  0.40264  0.04150  0.08547  1.0000
  C   C521      1.0  0.45331  0.06743  0.24481  1.0000
  H   H407      1.0  0.41833  0.47799  0.08436  1.0000
  C   C522      1.0  0.45982  0.25557  0.16188  1.0000
  H   H408      1.0  0.41110  0.14947  0.00822  1.0000
  C   C523      1.0  0.42273  0.46337  0.12469  1.0000
  Fe  Fe35      1.0  0.47186  0.36014  0.17713  1.0000
  C   C524      1.0  0.47080  0.10518  0.19172  1.0000
  H   H409      1.0  0.47542  0.29226  0.22998  1.0000
  H   H410      1.0  0.46625  0.20497  0.06736  1.0000
  C   C525      1.0  0.24414  0.45805  0.11489  1.0000
  H   H411      1.0  0.33395  0.40889  0.46732  1.0000
  H   H412      1.0  0.47444  0.18126  0.05563  1.0000
  H   H413      1.0  0.47680  0.06803  0.10663  1.0000
  H   H414      1.0  0.42455  0.18302  0.99504  1.0000
  C   C526      1.0  0.35564  0.00758  0.47634  1.0000
  C   C527      1.0  0.39280  0.44532  0.47862  1.0000
  C   C528      1.0  0.32920  0.98745  0.37145  1.0000
  C   C529      1.0  0.46901  0.45826  0.48742  1.0000
  C   C530      1.0  0.45202  0.04719  0.48714  1.0000
  H   H415      1.0  0.32596  0.10555  0.67074  1.0000
  H   H416      1.0  0.36447  0.04159  0.79695  1.0000
  H   H417      1.0  0.37285  0.46417  0.77496  1.0000
  Fe  Fe36      1.0  0.37891  0.99808  0.62042  1.0000
  S   S69       1.0  0.37049  0.00783  0.66681  1.0000
  H   H418      1.0  0.37096  0.35827  0.65413  1.0000
  Fe  Fe37      1.0  0.40178  0.02439  0.68017  1.0000
  S   S70       1.0  0.42041  0.05644  0.69261  1.0000
  S   S71       1.0  0.40984  0.01565  0.63259  1.0000
  H   H419      1.0  0.35049  0.44701  0.59765  1.0000
  C   C531      1.0  0.35427  0.05399  0.59167  1.0000
  C   C532      1.0  0.37537  0.05165  0.64541  1.0000
  H   H420      1.0  0.44625  0.39236  0.96799  1.0000
  H   H421      1.0  0.42334  0.05713  0.60991  1.0000
  S   S72       1.0  0.44874  0.32945  0.82686  1.0000
  H   H422      1.0  0.39653  0.00523  0.52668  1.0000
  C   C533      1.0  0.34688  0.38869  0.52938  1.0000
  C   C534      1.0  0.39748  0.09524  0.68805  1.0000
  C   C535      1.0  0.44661  0.35158  0.95341  1.0000
  H   H423      1.0  0.42617  0.40707  0.98629  1.0000
  H   H424      1.0  0.46699  0.99935  0.59254  1.0000
  C   C536      1.0  0.32792  0.39467  0.62325  1.0000
  H   H425      1.0  0.45641  0.31524  0.95942  1.0000
  H   H426      1.0  0.36561  0.09557  0.74182  1.0000
  S   S73       1.0  0.44953  0.17254  0.84471  1.0000
  C   C537      1.0  0.33710  0.39700  0.51239  1.0000
  C   C538      1.0  0.32599  0.40851  0.64249  1.0000
  Fe  Fe38      1.0  0.47024  0.35421  0.80067  1.0000
  Fe  Fe39      1.0  0.45322  0.14751  0.82320  1.0000
  S   S74       1.0  0.42905  0.11862  0.80441  1.0000
  Fe  Fe40      1.0  0.39867  0.44002  0.63171  1.0000
  S   S75       1.0  0.40181  0.46424  0.66553  1.0000
  S   S76       1.0  0.39451  0.44695  0.57847  1.0000
  Fe  Fe41      1.0  0.39977  0.41697  0.69112  1.0000
  S   S77       1.0  0.40171  0.43945  0.72793  1.0000
  S   S78       1.0  0.39936  0.38982  0.71078  1.0000
  Fe  Fe42      1.0  0.38002  0.44325  0.69653  1.0000
  S   S79       1.0  0.35597  0.45095  0.70853  1.0000
  Fe  Fe43      1.0  0.42296  0.45884  0.69424  1.0000
  C   C539      1.0  0.43112  0.35142  0.96905  1.0000
  S   S80       1.0  0.37578  0.41871  0.66185  1.0000
  S   S81       1.0  0.42225  0.43655  0.65859  1.0000
  C   C540      1.0  0.39794  0.44201  0.53701  1.0000
  C   C541      1.0  0.36104  0.38103  0.59259  1.0000
  C   C542      1.0  0.40674  0.43074  0.52847  1.0000
  C   C543      1.0  0.41152  0.12316  0.72459  1.0000
  H   H427      1.0  0.41233  0.42516  0.54732  1.0000
  C   C544      1.0  0.45287  0.15261  0.97419  1.0000
  C   C545      1.0  0.34131  0.48153  0.79308  1.0000
  C   C546      1.0  0.38017  0.08899  0.70340  1.0000
  H   H428      1.0  0.35403  0.09968  0.67172  1.0000
  H   H429      1.0  0.44900  0.08998  0.61795  1.0000
  P   P20       1.0  0.35976  0.06707  0.69002  1.0000
  H   H430      1.0  0.42645  0.11685  0.68708  1.0000
  C   C547      1.0  0.44847  0.37798  0.74915  1.0000
  C   C548      1.0  0.45241  0.39556  0.73560  1.0000
  C   C549      1.0  0.43765  0.39959  0.72419  1.0000
  C   C550      1.0  0.41869  0.38594  0.72571  1.0000
  C   C551      1.0  0.41480  0.36836  0.73902  1.0000
  C   C552      1.0  0.42953  0.36446  0.75092  1.0000
  H   H431      1.0  0.46698  0.40611  0.73381  1.0000
  H   H432      1.0  0.44094  0.41312  0.71384  1.0000
  H   H433      1.0  0.40024  0.35762  0.74012  1.0000
  H   H434      1.0  0.42622  0.35079  0.76072  1.0000
  C   C553      1.0  0.45636  0.01364  0.64755  1.0000
  C   C554      1.0  0.35229  0.06070  0.62247  1.0000
  H   H435      1.0  0.34223  0.02548  0.68112  1.0000
  C   C555      1.0  0.42014  0.35735  0.83276  1.0000
  H   H436      1.0  0.31996  0.04356  0.70643  1.0000
  C   C556      1.0  0.41557  0.39000  0.82372  1.0000
  C   C557      1.0  0.34381  0.43235  0.60446  1.0000
  H   H437      1.0  0.46823  0.46767  0.67046  1.0000
  H   H438      1.0  0.34133  0.00259  0.52148  1.0000
  C   C558      1.0  0.30257  0.35792  0.57068  1.0000
  C   C559      1.0  0.46219  0.09341  0.81515  1.0000
  C   C560      1.0  0.35638  0.47678  0.79702  1.0000
  C   C561      1.0  0.36148  0.46799  0.77127  1.0000
  C   C562      1.0  0.35132  0.46346  0.74125  1.0000
  C   C563      1.0  0.33639  0.46839  0.73720  1.0000
  C   C564      1.0  0.43946  0.01448  0.53037  1.0000
  C   C565      1.0  0.43113  0.23628  0.94840  1.0000
  C   C566      1.0  0.37331  0.36800  0.63467  1.0000
  H   H439      1.0  0.38213  0.40531  0.56963  1.0000
  H   H440      1.0  0.40927  0.40483  0.59984  1.0000
  H   H441      1.0  0.41325  0.40237  0.82082  1.0000
  C   C567      1.0  0.46251  0.23506  0.82583  1.0000
  C   C568      1.0  0.36871  0.00345  0.52843  1.0000
  C   C569      1.0  0.44127  0.99712  0.74324  1.0000
  C   C570      1.0  0.47520  0.02680  0.64357  1.0000
  C   C571      1.0  0.46968  0.06885  0.67641  1.0000
  C   C572      1.0  0.42355  0.07280  0.72595  1.0000
  C   C573      1.0  0.41031  0.06867  0.75006  1.0000
  C   C574      1.0  0.41240  0.08272  0.77409  1.0000
  C   C575      1.0  0.42799  0.10099  0.77495  1.0000
  C   C576      1.0  0.44171  0.10484  0.75168  1.0000
  C   C577      1.0  0.43941  0.09091  0.72723  1.0000
  H   H442      1.0  0.39825  0.05476  0.74967  1.0000
  H   H443      1.0  0.40175  0.07948  0.79201  1.0000
  H   H444      1.0  0.45377  0.11875  0.75198  1.0000
  H   H445      1.0  0.44985  0.09430  0.70891  1.0000
  C   C578      1.0  0.45332  0.46524  0.79969  1.0000
  C   C579      1.0  0.45196  0.99524  0.65658  1.0000
  H   H446      1.0  0.36894  0.06721  0.76025  1.0000
  H   H447      1.0  0.38355  0.05054  0.66606  1.0000
  C   C580      1.0  0.41302  0.11232  0.69850  1.0000
  H   H448      1.0  0.38832  0.37105  0.80123  1.0000
  C   C581      1.0  0.32076  0.35920  0.56854  1.0000
  C   C582      1.0  0.35980  0.38431  0.51288  1.0000
  C   C583      1.0  0.43471  0.37518  0.84271  1.0000
  H   H449      1.0  0.41622  0.42482  0.94757  1.0000
  C   C584      1.0  0.38509  0.00573  0.51258  1.0000
  C   C585      1.0  0.44885  0.21860  0.93933  1.0000
  H   H450      1.0  0.31893  0.40486  0.66532  1.0000
  Fe  Fe44      1.0  0.46826  0.17243  0.88690  1.0000
  C   C586      1.0  0.45723  0.46716  0.83333  1.0000
  H   H451      1.0  0.44741  0.37601  0.85470  1.0000
  H   H452      1.0  0.30071  0.37060  0.57417  1.0000
  H   H453      1.0  0.34937  0.00792  0.77604  1.0000
  H   H454      1.0  0.39349  0.12523  0.76092  1.0000
  C   C587      1.0  0.37961  0.39449  0.58698  1.0000
  H   H455      1.0  0.27255  0.33924  0.56974  1.0000
  C   C588      1.0  0.33917  0.07127  0.68956  1.0000
  C   C589      1.0  0.37874  0.10011  0.72940  1.0000
  H   H456      1.0  0.42176  0.34468  0.83690  1.0000
  H   H457      1.0  0.45363  0.22078  0.83324  1.0000
  H   H458      1.0  0.29213  0.04968  0.70519  1.0000
  H   H459      1.0  0.43964  0.23109  0.90127  1.0000
  H   H460      1.0  0.43356  0.46124  0.59665  1.0000
  C   C590      1.0  0.34581  0.41857  0.58524  1.0000
  C   C591      1.0  0.44847  0.40264  0.91951  1.0000
  C   C592      1.0  0.45006  0.43380  0.83442  1.0000
  C   C593      1.0  0.46171  0.35161  0.97221  1.0000
  C   C594      1.0  0.45004  0.07389  0.81363  1.0000
  C   C595      1.0  0.43982  0.22887  0.92716  1.0000
  H   H461      1.0  0.42796  0.48261  0.56035  1.0000
  S   S82       1.0  0.44603  0.35215  0.91042  1.0000
  H   H462      1.0  0.44361  0.24612  0.84216  1.0000
  C   C596      1.0  0.40343  0.35584  0.81782  1.0000
  S   S83       1.0  0.40228  0.00001  0.70670  1.0000
  H   H463      1.0  0.39229  0.34202  0.80968  1.0000
  C   C597      1.0  0.46805  0.26819  0.82113  1.0000
  C   C598      1.0  0.34710  0.02925  0.70636  1.0000
  H   H464      1.0  0.42412  0.24426  0.93896  1.0000
  C   C599      1.0  0.36271  0.05939  0.64967  1.0000
  C   C600      1.0  0.32154  0.05719  0.69874  1.0000
  S   S84       1.0  0.45949  0.28544  0.82675  1.0000
  C   C601      1.0  0.43135  0.23332  0.98177  1.0000
  H   H465      1.0  0.39925  0.08695  0.66836  1.0000
  C   C602      1.0  0.39440  0.11704  0.74008  1.0000
  C   C603      1.0  0.44248  0.40071  0.95145  1.0000
  H   H466      1.0  0.45690  0.02168  0.71571  1.0000
  H   H467      1.0  0.33820  0.00004  0.71838  1.0000
  H   H468      1.0  0.43603  0.06868  0.82320  1.0000
  H   H469      1.0  0.45769  0.10323  0.82622  1.0000
  C   C604      1.0  0.44339  0.41314  0.89768  1.0000
  C   C605      1.0  0.46470  0.17219  0.97396  1.0000
  C   C606      1.0  0.30727  0.07801  0.68798  1.0000
  H   H470      1.0  0.38671  0.03855  0.61160  1.0000
  C   C607      1.0  0.33385  0.42732  0.63300  1.0000
  H   H471      1.0  0.44424  0.99503  0.82546  1.0000
  C   C608      1.0  0.39497  0.39434  0.60428  1.0000
  C   C609      1.0  0.43151  0.42092  0.90785  1.0000
  P   P21       1.0  0.45001  0.41413  0.85591  1.0000
  H   H472      1.0  0.44488  0.01574  0.58239  1.0000
  C   C610      1.0  0.45765  0.29235  0.93121  1.0000
  C   C611      1.0  0.44828  0.27822  0.90654  1.0000
  C   C612      1.0  0.43197  0.27688  0.89020  1.0000
  C   C613      1.0  0.42471  0.28945  0.89855  1.0000
  C   C614      1.0  0.43355  0.30316  0.92366  1.0000
  C   C615      1.0  0.44995  0.30465  0.93985  1.0000
  H   H473      1.0  0.42379  0.13601  0.73356  1.0000
  C   C616      1.0  0.44526  0.47178  0.58402  1.0000
  H   H474      1.0  0.47384  0.35206  0.96021  1.0000
  C   C617      1.0  0.43764  0.04908  0.57325  1.0000
  P   P22       1.0  0.47842  0.29410  0.95376  1.0000
  C   C618      1.0  0.35946  0.03813  0.77172  1.0000
  C   C619      1.0  0.37730  0.04498  0.61461  1.0000
  H   H475      1.0  0.44671  0.14464  0.95150  1.0000
  H   H476      1.0  0.35429  0.42296  0.56401  1.0000
  C   C620      1.0  0.47357  0.06805  0.78537  1.0000
  C   C621      1.0  0.45581  0.45155  0.85061  1.0000
  Fe  Fe45      1.0  0.47034  0.31796  0.82928  1.0000
  H   H477      1.0  0.46568  0.46365  0.60441  1.0000
  C   C622      1.0  0.47230  0.98968  0.58411  1.0000
  H   H478      1.0  0.45341  0.26823  0.89934  1.0000
  H   H479      1.0  0.42534  0.26645  0.87026  1.0000
  H   H480      1.0  0.41233  0.28868  0.88539  1.0000
  H   H481      1.0  0.34602  0.05474  0.57080  1.0000
  Fe  Fe46      1.0  0.47680  0.19131  0.82134  1.0000
  C   C623      1.0  0.32473  0.09205  0.67860  1.0000
  S   S85       1.0  0.46764  0.37305  0.76094  1.0000
  S   S86       1.0  0.46966  0.14623  0.86787  1.0000
  H   H482      1.0  0.33271  0.43809  0.64835  1.0000
  C   C624      1.0  0.35093  0.01919  0.76002  1.0000
  H   H483      1.0  0.42642  0.42801  0.89090  1.0000
  C   C625      1.0  0.35613  0.04838  0.71769  1.0000
  C   C626      1.0  0.42554  0.41896  0.93986  1.0000
  C   C627      1.0  0.44826  0.44780  0.78324  1.0000
  C   C628      1.0  0.36199  0.05267  0.75070  1.0000
  H   H484      1.0  0.26070  0.48479  0.95884  1.0000
  H   H485      1.0  0.30825  0.31211  0.55516  1.0000
  H   H486      1.0  0.44571  0.04626  0.79695  1.0000
  H   H487      1.0  0.44331  0.41890  0.78713  1.0000
  C   C629      1.0  0.46337  0.47313  0.58835  1.0000
  H   H488      1.0  0.38458  0.45837  0.51790  1.0000
  C   C630      1.0  0.45427  0.01616  0.73984  1.0000
  C   C631      1.0  0.36667  0.04602  0.58780  1.0000
  H   H489      1.0  0.32233  0.38030  0.63152  1.0000
  C   C632      1.0  0.34462  0.01475  0.72744  1.0000
  H   H490      1.0  0.36699  0.37723  0.52490  1.0000
  H   H491      1.0  0.31965  0.48063  0.75938  1.0000
  H   H492      1.0  0.44536  0.44637  0.75709  1.0000
  H   H493      1.0  0.45660  0.39546  0.91162  1.0000
  C   C633      1.0  0.34062  0.08870  0.67930  1.0000
  H   H494      1.0  0.44525  0.01754  0.64225  1.0000
  C   C634      1.0  0.44708  0.00095  0.80161  1.0000
  C   C635      1.0  0.30568  0.06059  0.69800  1.0000
  C   C636      1.0  0.35793  0.36801  0.61711  1.0000
  C   C637      1.0  0.43596  0.06170  0.59592  1.0000
  C   C638      1.0  0.33760  0.39956  0.59418  1.0000
  S   S87       1.0  0.46937  0.18480  0.93785  1.0000
  C   C639      1.0  0.42923  0.00263  0.50335  1.0000
  C   C640      1.0  0.39130  0.44952  0.51179  1.0000
  H   H495      1.0  0.29497  0.08063  0.68743  1.0000
  C   C641      1.0  0.44928  0.21579  0.97271  1.0000
  H   H496      1.0  0.45778  0.06989  0.66478  1.0000
  H   H497      1.0  0.41946  0.35150  0.95483  1.0000
  C   C642      1.0  0.43255  0.39165  0.83821  1.0000
  C   C643      1.0  0.45688  0.24951  0.83093  1.0000
  C   C644      1.0  0.44687  0.43220  0.80043  1.0000
  C   C645      1.0  0.32269  0.34260  0.56245  1.0000
  H   H498      1.0  0.45933  0.45337  0.87651  1.0000
  C   C646      1.0  0.46019  0.01997  0.79834  1.0000
  C   C647      1.0  0.46365  0.02778  0.76748  1.0000
  P   P23       1.0  0.45637  0.03894  0.52548  1.0000
  H   H499      1.0  0.42587  0.03503  0.56927  1.0000
  H   H500      1.0  0.47774  0.10077  0.58536  1.0000
  S   S88       1.0  0.36515  0.99935  0.57100  1.0000
  C   C648      1.0  0.43108  0.40892  0.96168  1.0000
  H   H501      1.0  0.36790  0.04038  0.56412  1.0000
  Fe  Fe47      1.0  0.46337  0.34612  0.87319  1.0000
  H   H502      1.0  0.34245  0.06662  0.62486  1.0000
  C   C649      1.0  0.45565  0.06122  0.79877  1.0000
  H   H503      1.0  0.45565  0.21287  0.92287  1.0000
  C   C650      1.0  0.39182  0.38103  0.62803  1.0000
  H   H504      1.0  0.45465  0.05717  0.71941  1.0000
  C   C651      1.0  0.40119  0.37218  0.81316  1.0000
  C   C652      1.0  0.45418  0.05479  0.55570  1.0000
  H   H505      1.0  0.38119  0.47762  0.59601  1.0000
  C   C653      1.0  0.28861  0.32365  0.56258  1.0000
  C   C654      1.0  0.43754  0.98955  0.77403  1.0000
  C   C655      1.0  0.46848  0.07362  0.55984  1.0000
  H   H506      1.0  0.32652  0.39980  0.52418  1.0000
  C   C656      1.0  0.35406  0.00432  0.50982  1.0000
  C   C657      1.0  0.43678  0.00698  0.56140  1.0000
  C   C658      1.0  0.46786  0.06144  0.70731  1.0000
  S   S89       1.0  0.44960  0.48225  0.71689  1.0000
  P   P24       1.0  0.34143  0.38202  0.57093  1.0000
  C   C659      1.0  0.42321  0.98828  0.56571  1.0000
  H   H507      1.0  0.32832  0.46489  0.71424  1.0000
  C   C660      1.0  0.28656  0.34017  0.56794  1.0000
  H   H508      1.0  0.33659  0.34338  0.55965  1.0000
  H   H509      1.0  0.35775  0.47580  0.63660  1.0000
  H   H510      1.0  0.34369  0.35818  0.62325  1.0000
  Fe  Fe48      1.0  0.40775  0.99015  0.65836  1.0000
  H   H511      1.0  0.46139  0.48076  0.84595  1.0000
  C   C661      1.0  0.46657  0.99041  0.66385  1.0000
  C   C662      1.0  0.33147  0.47742  0.76278  1.0000
  H   H512      1.0  0.40367  0.38117  0.64208  1.0000
  C   C663      1.0  0.30667  0.32488  0.55972  1.0000
  C   C664      1.0  0.45045  0.08025  0.60047  1.0000
  H   H513      1.0  0.42051  0.47825  0.75746  1.0000
  H   H514      1.0  0.27619  0.30992  0.56035  1.0000
  H   H515      1.0  0.45655  0.20796  0.98171  1.0000
  C   C665      1.0  0.40788  0.42622  0.49537  1.0000
  H   H516      1.0  0.36397  0.47962  0.82037  1.0000
  H   H517      1.0  0.46922  0.40377  0.80538  1.0000
  C   C666      1.0  0.44216  0.48403  0.56348  1.0000
  H   H518      1.0  0.46754  0.02866  0.81988  1.0000
  H   H519      1.0  0.45432  0.47727  0.78623  1.0000
  H   H520      1.0  0.43392  0.98817  0.72197  1.0000
  C   C667      1.0  0.46665  0.08627  0.58226  1.0000
  C   C668      1.0  0.47384  0.41701  0.85367  1.0000
  H   H521      1.0  0.41354  0.48424  0.81349  1.0000
  H   H522      1.0  0.42258  0.03883  0.49611  1.0000
  H   H523      1.0  0.42778  0.31278  0.93038  1.0000
  H   H524      1.0  0.44587  0.47636  0.49103  1.0000
  H   H525      1.0  0.46438  0.45399  0.51174  1.0000
  C   C669      1.0  0.37246  0.48626  0.64006  1.0000
  H   H526      1.0  0.44234  0.27626  0.98720  1.0000
  H   H527      1.0  0.47837  0.04050  0.63426  1.0000
  H   H528      1.0  0.41401  0.41685  0.48927  1.0000
  S   S90       1.0  0.44478  0.66787  0.14077  1.0000
  H   H529      1.0  0.47532  0.50160  0.12537  1.0000
  Fe  Fe49      1.0  0.44326  0.64869  0.18123  1.0000
  S   S91       1.0  0.41859  0.62815  0.20911  1.0000
  S   S92       1.0  0.45342  0.81871  0.10211  1.0000
  S   S93       1.0  0.44532  0.82815  0.17592  1.0000
  Fe  Fe50      1.0  0.44185  0.83692  0.12581  1.0000
  S   S94       1.0  0.41650  0.83881  0.10208  1.0000
  C   C670      1.0  0.34388  0.50713  0.04603  1.0000
  Fe  Fe51      1.0  0.30122  0.50911  0.11767  1.0000
  S   S95       1.0  0.29145  0.53052  0.13274  1.0000
  C   C671      1.0  0.29981  0.53732  0.35978  1.0000
  S   S96       1.0  0.31378  0.53424  0.20334  1.0000
  Fe  Fe52      1.0  0.28470  0.51569  0.17966  1.0000
  H   H530      1.0  0.30112  0.90382  0.36911  1.0000
  Fe  Fe53      1.0  0.32097  0.54720  0.15466  1.0000
  S   S97       1.0  0.33664  0.57846  0.14491  1.0000
  S   S98       1.0  0.33128  0.52691  0.13575  1.0000
  Fe  Fe54      1.0  0.31891  0.85500  0.10566  1.0000
  S   S99       1.0  0.31058  0.82633  0.12574  1.0000
  S   S100      1.0  0.32981  0.85758  0.05475  1.0000
  Fe  Fe55      1.0  0.31463  0.87203  0.17136  1.0000
  S   S101      1.0  0.30523  0.84393  0.19556  1.0000
  S   S102      1.0  0.31629  0.89874  0.19843  1.0000
  Fe  Fe56      1.0  0.32922  0.84260  0.16896  1.0000
  S   S103      1.0  0.35131  0.83530  0.19169  1.0000
  Fe  Fe57      1.0  0.28707  0.82986  0.14974  1.0000
  S   S104      1.0  0.25667  0.80610  0.13751  1.0000
  S   S105      1.0  0.33937  0.87113  0.14747  1.0000
  S   S106      1.0  0.29471  0.85816  0.12713  1.0000
  H   H531      1.0  0.36926  0.86970  0.04747  1.0000
  S   S107      1.0  0.38349  0.96818  0.28016  1.0000
  C   C672      1.0  0.33556  0.91851  0.21930  1.0000
  C   C673      1.0  0.35375  0.91980  0.22295  1.0000
  C   C674      1.0  0.36824  0.93524  0.24118  1.0000
  C   C675      1.0  0.36490  0.94977  0.25566  1.0000
  C   C676      1.0  0.34692  0.94880  0.25114  1.0000
  C   C677      1.0  0.33235  0.93322  0.23335  1.0000
  H   H532      1.0  0.35651  0.90868  0.21228  1.0000
  H   H533      1.0  0.38209  0.93582  0.24430  1.0000
  H   H534      1.0  0.34418  0.95995  0.26160  1.0000
  H   H535      1.0  0.31841  0.93248  0.23055  1.0000
  C   C678      1.0  0.31814  0.57240  0.39426  1.0000
  H   H536      1.0  0.34423  0.82842  0.05818  1.0000
  C   C679      1.0  0.23986  0.52684  0.16760  1.0000
  C   C680      1.0  0.24276  0.73456  0.10266  1.0000
  H   H537      1.0  0.44623  0.88977  0.99551  1.0000
  H   H538      1.0  0.25334  0.53416  0.15635  1.0000
  C   C681      1.0  0.39975  0.84024  0.12799  1.0000
  C   C682      1.0  0.38502  0.84354  0.11482  1.0000
  C   C683      1.0  0.37034  0.84263  0.13435  1.0000
  C   C684      1.0  0.37041  0.83853  0.16725  1.0000
  C   C685      1.0  0.38566  0.83626  0.18075  1.0000
  C   C686      1.0  0.40031  0.83715  0.16120  1.0000
  H   H539      1.0  0.38464  0.84629  0.08929  1.0000
  H   H540      1.0  0.35872  0.84459  0.12376  1.0000
  H   H541      1.0  0.38587  0.83334  0.20624  1.0000
  H   H542      1.0  0.41174  0.83487  0.17156  1.0000
  C   C687      1.0  0.39705  0.61338  0.18779  1.0000
  C   C688      1.0  0.38570  0.59512  0.19870  1.0000
  C   C689      1.0  0.36746  0.58388  0.18458  1.0000
  C   C690      1.0  0.36031  0.59109  0.16004  1.0000
  C   C691      1.0  0.37185  0.60916  0.14856  1.0000
  C   C692      1.0  0.39029  0.62017  0.16204  1.0000
  H   H543      1.0  0.39090  0.58975  0.21850  1.0000
  H   H544      1.0  0.35869  0.56995  0.19356  1.0000
  H   H545      1.0  0.36636  0.61482  0.12968  1.0000
  H   H546      1.0  0.39894  0.63426  0.15365  1.0000
  C   C693      1.0  0.45383  0.73091  0.16098  1.0000
  C   C694      1.0  0.44618  0.74395  0.15966  1.0000
  H   H547      1.0  0.44455  0.71579  0.16117  1.0000
  H   H548      1.0  0.43096  0.73870  0.15886  1.0000
  H   H549      1.0  0.35935  0.88847  0.01095  1.0000
  H   H550      1.0  0.24800  0.73511  0.05204  1.0000
  C   C695      1.0  0.38229  0.88255  0.05307  1.0000
  C   C696      1.0  0.37188  0.79163  0.16043  1.0000
  C   C697      1.0  0.34340  0.80321  0.07876  1.0000
  C   C698      1.0  0.31204  0.52899  0.03858  1.0000
  H   H551      1.0  0.31553  0.53542  0.06296  1.0000
  C   C699      1.0  0.41239  0.90735  0.03735  1.0000
  C   C700      1.0  0.27340  0.77089  0.10824  1.0000
  C   C701      1.0  0.31604  0.85597  0.01926  1.0000
  C   C702      1.0  0.30190  0.86195  0.01909  1.0000
  C   C703      1.0  0.24816  0.74430  0.13295  1.0000
  H   H552      1.0  0.29846  0.86682  0.04162  1.0000
  C   C704      1.0  0.40200  0.90765  0.09219  1.0000
  H   H553      1.0  0.39296  0.79384  0.30645  1.0000
  H   H554      1.0  0.29401  0.52504  0.40684  1.0000
  H   H555      1.0  0.40430  0.91418  0.11647  1.0000
  H   H556      1.0  0.42861  0.92843  0.07508  1.0000
  C   C705      1.0  0.41296  0.58308  0.14825  1.0000
  C   C706      1.0  0.39426  0.56937  0.14157  1.0000
  C   C707      1.0  0.38678  0.55262  0.15862  1.0000
  C   C708      1.0  0.39774  0.54986  0.18315  1.0000
  C   C709      1.0  0.41617  0.56411  0.19138  1.0000
  C   C710      1.0  0.42402  0.58030  0.17259  1.0000
  P   P25       1.0  0.42989  0.56128  0.22480  1.0000
  C   C711      1.0  0.41560  0.91570  0.06884  1.0000
  H   H557      1.0  0.31034  0.55614  0.43746  1.0000
  C   C712      1.0  0.44183  0.59946  0.24355  1.0000
  H   H558      1.0  0.24388  0.56331  0.08006  1.0000
  C   C713      1.0  0.43523  0.97343  0.23573  1.0000
  H   H559      1.0  0.41867  0.59620  0.13541  1.0000
  H   H560      1.0  0.38544  0.57199  0.12381  1.0000
  H   H561      1.0  0.37226  0.54196  0.15363  1.0000
  H   H562      1.0  0.39154  0.53683  0.19626  1.0000
  C   C714      1.0  0.44525  0.50281  0.48032  1.0000
  H   H563      1.0  0.42848  0.59787  0.23302  1.0000
  H   H564      1.0  0.27520  0.60452  0.03856  1.0000
  H   H565      1.0  0.43121  0.51186  0.40621  1.0000
  C   C715      1.0  0.24376  0.52090  0.06136  1.0000
  C   C716      1.0  0.26342  0.52722  0.06158  1.0000
  C   C717      1.0  0.27592  0.54642  0.06811  1.0000
  C   C718      1.0  0.26890  0.55940  0.07498  1.0000
  H   H566      1.0  0.36508  0.78427  0.33997  1.0000
  H   H567      1.0  0.43581  0.50371  0.19143  1.0000
  H   H568      1.0  0.47600  0.50080  0.41410  1.0000
  C   C719      1.0  0.34383  0.75522  0.27312  1.0000
  H   H569      1.0  0.29109  0.55112  0.06850  1.0000
  H   H570      1.0  0.27866  0.57418  0.08084  1.0000
  C   C720      1.0  0.47841  0.97947  0.14113  1.0000
  H   H571      1.0  0.23201  0.77005  0.05978  1.0000
  C   C721      1.0  0.30089  0.50934  0.03399  1.0000
  H   H572      1.0  0.33355  0.75971  0.31887  1.0000
  Fe  Fe58      1.0  0.46262  0.65605  0.11701  1.0000
  C   C722      1.0  0.44882  0.88946  0.07812  1.0000
  H   H573      1.0  0.44370  0.76969  0.99342  1.0000
  C   C723      1.0  0.36143  0.81533  0.99727  1.0000
  C   C724      1.0  0.34685  0.57541  0.30248  1.0000
  C   C725      1.0  0.39753  0.78594  0.14134  1.0000
  H   H574      1.0  0.41340  0.77949  0.17745  1.0000
  P   P26       1.0  0.39770  0.78160  0.24040  1.0000
  C   C726      1.0  0.36461  0.49112  0.24456  1.0000
  C   C727      1.0  0.38548  0.89093  0.08441  1.0000
  C   C728      1.0  0.46104  0.50358  0.32803  1.0000
  H   H575      1.0  0.38115  0.82094  0.03826  1.0000
  C   C729      1.0  0.34487  0.51334  0.01434  1.0000
  H   H576      1.0  0.29145  0.87860  0.32584  1.0000
  C   C730      1.0  0.39082  0.97217  0.41799  1.0000
  C   C731      1.0  0.42970  0.80558  0.27924  1.0000
  S   S108      1.0  0.25611  0.50760  0.20281  1.0000
  C   C732      1.0  0.35959  0.76059  0.25391  1.0000
  C   C733      1.0  0.32984  0.57118  0.28486  1.0000
  C   C734      1.0  0.29163  0.75277  0.99740  1.0000
  H   H577      1.0  0.29801  0.93404  0.39330  1.0000
  C   C735      1.0  0.30548  0.78496  0.05547  1.0000
  C   C736      1.0  0.26033  0.59648  0.03117  1.0000
  C   C737      1.0  0.39067  0.52560  0.30398  1.0000
  H   H578      1.0  0.41191  0.51625  0.31389  1.0000
  H   H579      1.0  0.35793  0.81029  0.08816  1.0000
  H   H580      1.0  0.37794  0.61034  0.25661  1.0000
  H   H581      1.0  0.34822  0.60245  0.22443  1.0000
  H   H582      1.0  0.31117  0.81261  0.03730  1.0000
  C   C738      1.0  0.40324  0.80851  0.99337  1.0000
  C   C739      1.0  0.45802  0.76372  0.15984  1.0000
  H   H583      1.0  0.43845  0.59117  0.17749  1.0000
  H   H584      1.0  0.24366  0.50083  0.11830  1.0000
  H   H585      1.0  0.33532  0.97347  0.41064  1.0000
  C   C740      1.0  0.40162  0.78261  0.17311  1.0000
  H   H586      1.0  0.36840  0.79088  0.21186  1.0000
  H   H587      1.0  0.43662  0.55160  0.06744  1.0000
  H   H588      1.0  0.45548  0.82397  0.30673  1.0000
  H   H589      1.0  0.33005  0.74451  0.26389  1.0000
  C   C741      1.0  0.46177  0.52916  0.18519  1.0000
  H   H590      1.0  0.41183  0.92396  0.48450  1.0000
  C   C742      1.0  0.43836  0.59530  0.07593  1.0000
  C   C743      1.0  0.33224  0.78398  0.08416  1.0000
  H   H591      1.0  0.34683  0.56779  0.32400  1.0000
  C   C744      1.0  0.34580  0.76378  0.30410  1.0000
  H   H592      1.0  0.46603  0.70810  0.09464  1.0000
  H   H593      1.0  0.45634  0.69029  0.98998  1.0000
  C   C745      1.0  0.40798  0.52537  0.29954  1.0000
  H   H594      1.0  0.43468  0.78368  0.22626  1.0000
  H   H595      1.0  0.37494  0.88447  0.10248  1.0000
  H   H596      1.0  0.39359  0.55765  0.24808  1.0000
  C   C746      1.0  0.44976  0.89516  0.02053  1.0000
  H   H597      1.0  0.43346  0.53615  0.27318  1.0000
  H   H598      1.0  0.33815  0.77625  0.09789  1.0000
  H   H599      1.0  0.33500  0.50404  0.99539  1.0000
  C   C747      1.0  0.47765  0.77027  0.16093  1.0000
  C   C748      1.0  0.33287  0.95863  0.36424  1.0000
  H   H600      1.0  0.36080  0.79585  0.15574  1.0000
  H   H601      1.0  0.40688  0.54502  0.03685  1.0000
  H   H602      1.0  0.35575  0.93328  0.32673  1.0000
  C   C749      1.0  0.30367  0.93109  0.41554  1.0000
  C   C750      1.0  0.47620  0.60437  0.27239  1.0000
  C   C751      1.0  0.46140  0.91451  0.02734  1.0000
  C   C752      1.0  0.42547  0.76939  0.23347  1.0000
  C   C753      1.0  0.37744  0.77470  0.26547  1.0000
  H   H603      1.0  0.26839  0.79818  0.07709  1.0000
  H   H604      1.0  0.39964  0.60801  0.01009  1.0000
  C   C754      1.0  0.44643  0.83977  0.27492  1.0000
  C   C755      1.0  0.23680  0.53413  0.06742  1.0000
  C   C756      1.0  0.25808  0.56431  0.26053  1.0000
  H   H605      1.0  0.29253  0.52359  0.34693  1.0000
  H   H606      1.0  0.28775  0.54695  0.23472  1.0000
  C   C757      1.0  0.44607  0.58401  0.24402  1.0000
  H   H607      1.0  0.45190  0.50270  0.08519  1.0000
  C   C758      1.0  0.39776  0.54864  0.26215  1.0000
  S   S109      1.0  0.45422  0.64628  0.06396  1.0000
  C   C759      1.0  0.37897  0.85486  0.99135  1.0000
  C   C760      1.0  0.33635  0.90655  0.30353  1.0000
  H   H608      1.0  0.32320  0.97298  0.29153  1.0000
  H   H609      1.0  0.46633  0.49063  0.26525  1.0000
  C   C761      1.0  0.40973  0.57341  0.04503  1.0000
  H   H610      1.0  0.43781  0.98298  0.36556  1.0000
  C   C762      1.0  0.46809  0.65939  0.03204  1.0000
  H   H611      1.0  0.25285  0.54628  0.00370  1.0000
  H   H612      1.0  0.38002  0.79378  0.11056  1.0000
  H   H613      1.0  0.40630  0.78554  0.12185  1.0000
  H   H614      1.0  0.35982  0.91976  0.38812  1.0000
  C   C763      1.0  0.29657  0.50115  0.00223  1.0000
  C   C764      1.0  0.32055  0.84992  0.98988  1.0000
  H   H615      1.0  0.42647  0.72715  0.24252  1.0000
  C   C765      1.0  0.47630  0.85800  0.03000  1.0000
  H   H616      1.0  0.47606  0.93636  0.06436  1.0000
  P   P27       1.0  0.44589  0.71269  0.03698  1.0000
  H   H617      1.0  0.44719  0.60936  0.08685  1.0000
  C   C766      1.0  0.43023  0.69685  0.06579  1.0000
  C   C767      1.0  0.42665  0.67771  0.06454  1.0000
  C   C768      1.0  0.41350  0.66472  0.08477  1.0000
  C   C769      1.0  0.40421  0.67083  0.10707  1.0000
  C   C770      1.0  0.40785  0.68990  0.10874  1.0000
  C   C771      1.0  0.42065  0.70285  0.08796  1.0000
  H   H618      1.0  0.44705  0.76024  0.22765  1.0000
  H   H619      1.0  0.24724  0.74926  0.00090  1.0000
  C   C772      1.0  0.29266  0.92625  0.44298  1.0000
  C   C773      1.0  0.42143  0.59164  0.05897  1.0000
  H   H620      1.0  0.47504  0.53836  0.46698  1.0000
  C   C774      1.0  0.27404  0.79473  0.99570  1.0000
  H   H621      1.0  0.26169  0.55311  0.21448  1.0000
  C   C775      1.0  0.27352  0.79044  0.02877  1.0000
  H   H622      1.0  0.27352  0.51832  0.27577  1.0000
  H   H623      1.0  0.45742  0.74129  0.09055  1.0000
  C   C776      1.0  0.32902  0.92869  0.44619  1.0000
  H   H624      1.0  0.26775  0.77005  0.15918  1.0000
  C   C777      1.0  0.44441  0.74479  0.01223  1.0000
  H   H625      1.0  0.31378  0.88040  0.28337  1.0000
  H   H626      1.0  0.28507  0.78509  0.11104  1.0000
  C   C778      1.0  0.47474  0.94155  0.41787  1.0000
  H   H627      1.0  0.43407  0.67278  0.04796  1.0000
  H   H628      1.0  0.41108  0.65004  0.08398  1.0000
  H   H629      1.0  0.39445  0.66084  0.12341  1.0000
  H   H630      1.0  0.40080  0.69468  0.12629  1.0000
  H   H631      1.0  0.42291  0.71742  0.08940  1.0000
  C   C779      1.0  0.43127  0.94095  0.44901  1.0000
  C   C780      1.0  0.35799  0.53180  0.00728  1.0000
  C   C781      1.0  0.24665  0.59916  0.04822  1.0000
  H   H632      1.0  0.45400  0.78822  0.04617  1.0000
  C   C782      1.0  0.27680  0.75614  0.00871  1.0000
  C   C783      1.0  0.41147  0.92941  0.34036  1.0000
  H   H633      1.0  0.38056  0.74093  0.25613  1.0000
  H   H634      1.0  0.45784  0.86531  0.00070  1.0000
  H   H635      1.0  0.44085  0.52610  0.46223  1.0000
  P   P28       1.0  0.38756  0.56815  0.02345  1.0000
  C   C784      1.0  0.39829  0.95921  0.41854  1.0000
  C   C785      1.0  0.24612  0.48928  0.99909  1.0000
  H   H636      1.0  0.47864  0.72570  0.99598  1.0000
  H   H637      1.0  0.33315  0.49308  0.05167  1.0000
  C   C786      1.0  0.41626  0.80444  0.25512  1.0000
  C   C787      1.0  0.46092  0.55886  0.19821  1.0000
  H   H638      1.0  0.34600  0.90725  0.28494  1.0000
  C   C788      1.0  0.36411  0.58951  0.29237  1.0000
  C   C789      1.0  0.36454  0.59948  0.26460  1.0000
  H   H639      1.0  0.37721  0.59267  0.30589  1.0000
  C   C790      1.0  0.36356  0.77763  0.31597  1.0000
  C   C791      1.0  0.46025  0.90895  0.08528  1.0000
  H   H640      1.0  0.39282  0.93028  0.40790  1.0000
  H   H641      1.0  0.41278  0.96385  0.42724  1.0000
  C   C792      1.0  0.46665  0.92142  0.05961  1.0000
  H   H642      1.0  0.38799  0.63089  0.02692  1.0000
  C   C793      1.0  0.46914  0.95031  0.39346  1.0000
  C   C794      1.0  0.32195  0.93236  0.41693  1.0000
  H   H643      1.0  0.32521  0.58599  0.40762  1.0000
  C   C795      1.0  0.36334  0.57922  0.05623  1.0000
  H   H644      1.0  0.46952  0.52158  0.17738  1.0000
  C   C796      1.0  0.41539  0.96143  0.33664  1.0000
  C   C797      1.0  0.44380  0.58088  0.07913  1.0000
  H   H645      1.0  0.46921  0.53062  0.30642  1.0000
  C   C798      1.0  0.31742  0.57169  0.36021  1.0000
  C   C799      1.0  0.44221  0.54883  0.20804  1.0000
  C   C800      1.0  0.33570  0.81336  0.06175  1.0000
  C   C801      1.0  0.31908  0.54029  0.01157  1.0000
  C   C802      1.0  0.42673  0.93589  0.36327  1.0000
  C   C803      1.0  0.44284  0.51910  0.19332  1.0000
  C   C804      1.0  0.31683  0.80428  0.04991  1.0000
  C   C805      1.0  0.37623  0.78874  0.19236  1.0000
  Fe  Fe59      1.0  0.32254  0.51250  0.18351  1.0000
  C   C806      1.0  0.26784  0.76145  0.07747  1.0000
  C   C807      1.0  0.28314  0.49758  0.26515  1.0000
  H   H646      1.0  0.43427  0.85160  0.24043  1.0000
  H   H647      1.0  0.35609  0.56489  0.06460  1.0000
  C   C808      1.0  0.42343  0.88182  0.19864  1.0000
  C   C809      1.0  0.45219  0.77376  0.04428  1.0000
  C   C810      1.0  0.42010  0.53657  0.27615  1.0000
  H   H648      1.0  0.35785  0.75385  0.22992  1.0000
  S   S110      1.0  0.45904  0.63517  0.15589  1.0000
  C   C811      1.0  0.39551  0.89087  0.02901  1.0000
  H   H649      1.0  0.47165  0.94271  0.44304  1.0000
  H   H650      1.0  0.42558  0.95924  0.24271  1.0000
  H   H651      1.0  0.40422  0.91452  0.33250  1.0000
  H   H652      1.0  0.43116  0.92580  0.37278  1.0000
  C   C812      1.0  0.46303  0.58642  0.25982  1.0000
  C   C813      1.0  0.39108  0.78404  0.19894  1.0000
  C   C814      1.0  0.23915  0.77926  0.18482  1.0000
  C   C815      1.0  0.43564  0.70071  0.99811  1.0000
  Fe  Fe60      1.0  0.45914  0.81161  0.15246  1.0000
  C   C816      1.0  0.41481  0.54786  0.25657  1.0000
  C   C817      1.0  0.38562  0.53735  0.28546  1.0000
  C   C818      1.0  0.38268  0.79047  0.13498  1.0000
  C   C819      1.0  0.44267  0.88875  0.20721  1.0000
  S   S111      1.0  0.44753  0.77950  0.15946  1.0000
  C   C820      1.0  0.42094  0.73746  0.24248  1.0000
  C   C821      1.0  0.38707  0.94035  0.40760  1.0000
  H   H653      1.0  0.45204  0.62944  0.25417  1.0000
  H   H654      1.0  0.32387  0.58484  0.34751  1.0000
  C   C822      1.0  0.45509  0.61741  0.25595  1.0000
  H   H655      1.0  0.39709  0.85551  0.03233  1.0000
  H   H656      1.0  0.41761  0.60311  0.05723  1.0000
  C   C823      1.0  0.26316  0.81820  0.00820  1.0000
  C   C824      1.0  0.43257  0.75610  0.23418  1.0000
  H   H657      1.0  0.42879  0.79285  0.29005  1.0000
  C   C825      1.0  0.26456  0.56886  0.29306  1.0000
  C   C826      1.0  0.37936  0.78304  0.29681  1.0000
  C   C827      1.0  0.31935  0.52566  0.28486  1.0000
  C   C828      1.0  0.40221  0.73212  0.25041  1.0000
  H   H658      1.0  0.44707  0.88579  0.23066  1.0000
  H   H659      1.0  0.32792  0.55543  0.01528  1.0000
  H   H660      1.0  0.41279  0.87346  0.21541  1.0000
  H   H661      1.0  0.25088  0.60917  0.06898  1.0000
  C   C829      1.0  0.26364  0.76234  0.13577  1.0000
  C   C830      1.0  0.32934  0.95866  0.33057  1.0000
  C   C831      1.0  0.34186  0.92114  0.32752  1.0000
  C   C832      1.0  0.37225  0.96640  0.40607  1.0000
  C   C833      1.0  0.31333  0.77488  0.07263  1.0000
  C   C834      1.0  0.32933  0.92031  0.35167  1.0000
  H   H662      1.0  0.41127  0.97145  0.32592  1.0000
  C   C835      1.0  0.31818  0.89131  0.30280  1.0000
  H   H663      1.0  0.36687  0.97673  0.40578  1.0000
  H   H664      1.0  0.31783  0.57783  0.24182  1.0000
  C   C836      1.0  0.45351  0.97759  0.22661  1.0000
  C   C837      1.0  0.47223  0.94168  0.13191  1.0000
  H   H665      1.0  0.45817  0.96663  0.22676  1.0000
  C   C838      1.0  0.47075  0.54903  0.18736  1.0000
  C   C839      1.0  0.37900  0.58479  0.03650  1.0000
  C   C840      1.0  0.45638  0.89927  0.18534  1.0000
  C   C841      1.0  0.43305  0.52888  0.20456  1.0000
  H   H666      1.0  0.45849  0.85336  0.28146  1.0000
  H   H667      1.0  0.38107  0.51647  0.32144  1.0000
  H   H668      1.0  0.30471  0.76006  0.07758  1.0000
  H   H669      1.0  0.37910  0.54684  0.08293  1.0000
  H   H670      1.0  0.45682  0.58375  0.09266  1.0000
  C   C842      1.0  0.36094  0.94759  0.39459  1.0000
  C   C843      1.0  0.30560  0.89038  0.32665  1.0000
  H   H671      1.0  0.25787  0.57480  0.30925  1.0000
  H   H672      1.0  0.34311  0.92977  0.44813  1.0000
  C   C844      1.0  0.26301  0.81432  0.04114  1.0000
  C   C845      1.0  0.34777  0.59513  0.24659  1.0000
  C   C846      1.0  0.46065  0.65465  0.99983  1.0000
  H   H673      1.0  0.40005  0.80467  0.01838  1.0000
  P   P29       1.0  0.30750  0.55330  0.29871  1.0000
  C   C847      1.0  0.37645  0.82701  0.01881  1.0000
  C   C848      1.0  0.30839  0.55412  0.34271  1.0000
  C   C849      1.0  0.41764  0.82125  0.24211  1.0000
  C   C850      1.0  0.31116  0.90477  0.35112  1.0000
  C   C851      1.0  0.25259  0.74302  0.07503  1.0000
  H   H674      1.0  0.39405  0.93735  0.30916  1.0000
  C   C852      1.0  0.26827  0.80060  0.05140  1.0000
  C   C853      1.0  0.36552  0.61082  0.05476  1.0000
  H   H675      1.0  0.25920  0.82222  0.05900  1.0000
  H   H676      1.0  0.44386  0.93428  0.14737  1.0000
  H   H677      1.0  0.25106  0.78803  0.20115  1.0000
  P   P30       1.0  0.28078  0.77302  0.04219  1.0000
  P   P31       1.0  0.45612  0.96342  0.40287  1.0000
  C   C854      1.0  0.33050  0.58102  0.25656  1.0000
  C   C855      1.0  0.44765  0.73633  0.03980  1.0000
  C   C856      1.0  0.30975  0.55560  0.41107  1.0000
  H   H678      1.0  0.23133  0.77843  0.00271  1.0000
  C   C857      1.0  0.31660  0.50750  0.27488  1.0000
  H   H679      1.0  0.46087  0.77398  0.09431  1.0000
  C   C858      1.0  0.28810  0.55761  0.28397  1.0000
  H   H680      1.0  0.28427  0.56923  0.33002  1.0000
  C   C859      1.0  0.36841  0.93450  0.39597  1.0000
  C   C860      1.0  0.43632  0.95524  0.37335  1.0000
  H   H681      1.0  0.39321  0.71763  0.25681  1.0000
  H   H682      1.0  0.40295  0.87960  0.16117  1.0000
  H   H683      1.0  0.33352  0.53630  0.29204  1.0000
  C   C861      1.0  0.43158  0.89574  0.14610  1.0000
  C   C862      1.0  0.27957  0.56562  0.30475  1.0000
  C   C863      1.0  0.30056  0.53808  0.39383  1.0000
  C   C864      1.0  0.30397  0.52995  0.28500  1.0000
  H   H684      1.0  0.42702  0.89798  0.12237  1.0000
  C   C865      1.0  0.41790  0.88532  0.16806  1.0000
  C   C866      1.0  0.28155  0.55324  0.25127  1.0000
  C   C867      1.0  0.26668  0.55664  0.23966  1.0000
  C   C868      1.0  0.42424  0.93717  0.48025  1.0000
  H   H685      1.0  0.36032  0.62083  0.06203  1.0000
  H   H686      1.0  0.33158  0.84547  0.98984  1.0000
  C   C869      1.0  0.29983  0.92272  0.47204  1.0000
  C   C870      1.0  0.40576  0.94220  0.32712  1.0000
  C   C871      1.0  0.41554  0.55911  0.04773  1.0000
  H   H687      1.0  0.42421  0.93046  0.42943  1.0000
  C   C872      1.0  0.28576  0.51563  0.27558  1.0000
  H   H688      1.0  0.42310  0.91382  0.01982  1.0000
  S   S112      1.0  0.34616  0.50758  0.20922  1.0000
  H   H689      1.0  0.46809  0.57427  0.19952  1.0000
  P   P32       1.0  0.33639  0.93963  0.38182  1.0000
  P   P33       1.0  0.46859  0.91742  0.12668  1.0000
  C   C873      1.0  0.47575  0.71309  0.07502  1.0000
  C   C874      1.0  0.45636  0.97119  0.46962  1.0000
  C   C875      1.0  0.36965  0.53763  0.06357  1.0000
  S   S113      1.0  0.29243  0.49469  0.06743  1.0000
  H   H690      1.0  0.35556  0.51437  0.09517  1.0000
  C   C876      1.0  0.44019  0.51234  0.45651  1.0000
  C   C877      1.0  0.44479  0.82319  0.28893  1.0000
  C   C878      1.0  0.35639  0.51921  0.07058  1.0000
  H   H691      1.0  0.24019  0.73803  0.15420  1.0000
  H   H692      1.0  0.43458  0.86758  0.04082  1.0000
  C   C879      1.0  0.43056  0.96795  0.35953  1.0000
  H   H693      1.0  0.34436  0.58772  0.07994  1.0000
  C   C880      1.0  0.38108  0.61647  0.03508  1.0000
  H   H694      1.0  0.41843  0.52087  0.21112  1.0000
  C   C881      1.0  0.44333  0.88267  0.04594  1.0000
  C   C882      1.0  0.45602  0.76569  0.07152  1.0000
  H   H695      1.0  0.24633  0.56660  0.25145  1.0000
  C   C883      1.0  0.38769  0.60347  0.02570  1.0000
  C   C884      1.0  0.43275  0.83880  0.25179  1.0000
  H   H696      1.0  0.42634  0.83595  0.00687  1.0000
  C   C885      1.0  0.23734  0.51292  0.19003  1.0000
  C   C886      1.0  0.44721  0.95815  0.44331  1.0000
  H   H697      1.0  0.26914  0.51728  0.05692  1.0000
  H   H698      1.0  0.41133  0.70626  0.00065  1.0000
  C   C887      1.0  0.34700  0.48883  0.23168  1.0000
  C   C888      1.0  0.23843  0.78489  0.15302  1.0000
  H   H699      1.0  0.40744  0.82082  0.22376  1.0000
  H   H700      1.0  0.27864  0.92547  0.44181  1.0000
  C   C889      1.0  0.46975  0.71601  0.04420  1.0000
  H   H701      1.0  0.37209  0.53734  0.28856  1.0000
  C   C890      1.0  0.35657  0.59218  0.06503  1.0000
  C   C891      1.0  0.32570  0.97293  0.31756  1.0000
  C   C892      1.0  0.43460  0.50432  0.42494  1.0000
  C   C893      1.0  0.43242  0.56280  0.06494  1.0000
  C   C894      1.0  0.39508  0.74543  0.24992  1.0000
  C   C895      1.0  0.31799  0.92392  0.47362  1.0000
  H   H702      1.0  0.32932  0.94774  0.31417  1.0000
  C   C896      1.0  0.45395  0.74713  0.06929  1.0000
  C   C897      1.0  0.45098  0.90296  0.15462  1.0000
  H   H703      1.0  0.44437  0.87939  0.09731  1.0000
  C   C898      1.0  0.47238  0.61992  0.26995  1.0000
  C   C899      1.0  0.24934  0.55327  0.07461  1.0000
  C   C900      1.0  0.29264  0.86222  0.98948  1.0000
  C   C901      1.0  0.33262  0.97309  0.38459  1.0000
  Fe  Fe61      1.0  0.47217  0.68942  0.16507  1.0000
  H   H704      1.0  0.26574  0.58185  0.99132  1.0000
  C   C902      1.0  0.40667  0.76420  0.24138  1.0000
  C   C903      1.0  0.37049  0.54415  0.03191  1.0000
  H   H705      1.0  0.28191  0.86711  0.98938  1.0000
  C   C904      1.0  0.47008  0.86275  0.00094  1.0000
  C   C905      1.0  0.44641  0.76331  0.01463  1.0000
  C   C906      1.0  0.23127  0.49313  0.00865  1.0000
  H   H706      1.0  0.44941  0.96740  0.15535  1.0000
  H   H707      1.0  0.25944  0.82911  0.00039  1.0000
  H   H708      1.0  0.46866  0.52452  0.38842  1.0000
  C   C907      1.0  0.45761  0.94564  0.14237  1.0000
  S   S114      1.0  0.46905  0.67129  0.20820  1.0000
  H   H709      1.0  0.46632  0.57458  0.26188  1.0000
  H   H710      1.0  0.37733  0.50388  0.23986  1.0000
  H   H711      1.0  0.27739  0.53594  0.99260  1.0000
  H   H712      1.0  0.47112  0.90421  0.19251  1.0000
  H   H713      1.0  0.45105  0.98535  0.29905  1.0000
  H   H714      1.0  0.30581  0.76030  0.00829  1.0000
  C   C908      1.0  0.47397  0.52067  0.31540  1.0000
  C   C909      1.0  0.38539  0.84668  0.01556  1.0000
  S   S115      1.0  0.46978  0.86311  0.12899  1.0000
  C   C910      1.0  0.29854  0.49351  0.26480  1.0000
  S   S116      1.0  0.43726  0.49852  0.32940  1.0000
  C   C911      1.0  0.46070  0.96448  0.14691  1.0000
  C   C912      1.0  0.46720  0.49072  0.33945  1.0000
  C   C913      1.0  0.46059  0.49103  0.12536  1.0000
  C   C914      1.0  0.23562  0.57275  0.99510  1.0000
  C   C915      1.0  0.44742  0.49161  0.10266  1.0000
  H   H715      1.0  0.46883  0.85699  0.05206  1.0000
  C   C916      1.0  0.25487  0.58345  0.00454  1.0000
  H   H716      1.0  0.44628  0.64365  0.99510  1.0000
  H   H717      1.0  0.35440  0.80009  0.99988  1.0000
  H   H718      1.0  0.46905  0.98430  0.46642  1.0000
  H   H719      1.0  0.32856  0.50435  0.27436  1.0000
  H   H720      1.0  0.46671  0.92403  0.00748  1.0000
  Fe  Fe62      1.0  0.47427  0.85388  0.17844  1.0000
  C   C917      1.0  0.25875  0.74655  0.99311  1.0000
  C   C918      1.0  0.47380  0.94888  0.36117  1.0000
  C   C919      1.0  0.47350  0.73751  0.16272  1.0000
  H   H721      1.0  0.41544  0.98462  0.24407  1.0000
  S   S117      1.0  0.29293  0.49285  0.16365  1.0000
  H   H722      1.0  0.47000  0.95591  0.34204  1.0000
  C   C920      1.0  0.24175  0.48727  0.10803  1.0000
  H   H723      1.0  0.23067  0.72058  0.10058  1.0000
  H   H724      1.0  0.45293  0.81903  0.98906  1.0000
  H   H725      1.0  0.40721  0.97503  0.48713  1.0000
  H   H726      1.0  0.26915  0.48685  0.25680  1.0000
  H   H727      1.0  0.25556  0.48777  0.01709  1.0000
  C   C921      1.0  0.43347  0.48652  0.41726  1.0000
  Fe  Fe63      1.0  0.45300  0.66650  0.86054  1.0000
  C   C922      1.0  0.43315  0.95045  0.50604  1.0000
  S   S118      1.0  0.42275  0.65022  0.87601  1.0000
  C   C923      1.0  0.23539  0.72862  0.88319  1.0000
  H   H728      1.0  0.26958  0.81213  0.96012  1.0000
  S   S119      1.0  0.46985  0.69445  0.88814  1.0000
  P   P34       1.0  0.45336  0.51374  0.52058  1.0000
  Fe  Fe64      1.0  0.45054  0.85412  0.82436  1.0000
  C   C924      1.0  0.23590  0.81000  0.90887  1.0000
  S   S120      1.0  0.42407  0.85303  0.80021  1.0000
  C   C925      1.0  0.46289  0.60261  0.88153  1.0000
  H   H729      1.0  0.41540  0.74607  0.95393  1.0000
  S   S121      1.0  0.45159  0.83741  0.86660  1.0000
  Fe  Fe65      1.0  0.28641  0.81549  0.82796  1.0000
  S   S122      1.0  0.28251  0.84207  0.82835  1.0000
  S   S123      1.0  0.26627  0.78443  0.81216  1.0000
  Fe  Fe66      1.0  0.32696  0.83713  0.85872  1.0000
  S   S124      1.0  0.32587  0.86503  0.86221  1.0000
  S   S125      1.0  0.35143  0.83374  0.88222  1.0000
  Fe  Fe67      1.0  0.29640  0.84767  0.87886  1.0000
  S   S126      1.0  0.28547  0.85651  0.92312  1.0000
  Fe  Fe68      1.0  0.31268  0.85777  0.81145  1.0000
  S   S127      1.0  0.32440  0.87828  0.76926  1.0000
  S   S128      1.0  0.29841  0.82035  0.87932  1.0000
  S   S129      1.0  0.31543  0.83042  0.80702  1.0000
  C   C926      1.0  0.39041  0.57039  0.98013  1.0000
  S   S130      1.0  0.35073  0.96468  0.72871  1.0000
  C   C927      1.0  0.45113  0.50107  0.66120  1.0000
  Fe  Fe69      1.0  0.33500  0.55391  0.82874  1.0000
  S   S131      1.0  0.34286  0.53744  0.86400  1.0000
  S   S132      1.0  0.35855  0.57692  0.80156  1.0000
  Fe  Fe70      1.0  0.29202  0.52788  0.83510  1.0000
  Fe  Fe71      1.0  0.31928  0.53648  0.89385  1.0000
  H   H730      1.0  0.46272  0.96580  0.80664  1.0000
  S   S133      1.0  0.31310  0.55528  0.86060  1.0000
  S   S134      1.0  0.31380  0.52801  0.79990  1.0000
  H   H731      1.0  0.39442  0.57330  0.88615  1.0000
  H   H732      1.0  0.29210  0.86365  0.72837  1.0000
  C   C928      1.0  0.37106  0.52121  0.73607  1.0000
  C   C929      1.0  0.24153  0.77028  0.81703  1.0000
  P   P35       1.0  0.44134  0.58552  0.82393  1.0000
  H   H733      1.0  0.42851  0.54894  0.58994  1.0000
  C   C930      1.0  0.45726  0.49788  0.54728  1.0000
  H   H734      1.0  0.23721  0.54332  0.80699  1.0000
  C   C931      1.0  0.26941  0.53807  0.97265  1.0000
  H   H735      1.0  0.31520  0.84572  0.93794  1.0000
  S   S135      1.0  0.26447  0.52927  0.81889  1.0000
  C   C932      1.0  0.33301  0.90285  0.75984  1.0000
  C   C933      1.0  0.33233  0.91653  0.78148  1.0000
  C   C934      1.0  0.33821  0.93541  0.77187  1.0000
  C   C935      1.0  0.34539  0.94116  0.74088  1.0000
  C   C936      1.0  0.34665  0.92764  0.71967  1.0000
  C   C937      1.0  0.34032  0.90865  0.72897  1.0000
  H   H736      1.0  0.32709  0.91255  0.80549  1.0000
  H   H737      1.0  0.33711  0.94564  0.78855  1.0000
  H   H738      1.0  0.35198  0.93167  0.69570  1.0000
  H   H739      1.0  0.34104  0.89833  0.71198  1.0000
  H   H740      1.0  0.36653  0.57326  0.91198  1.0000
  C   C938      1.0  0.45850  0.51721  0.64240  1.0000
  C   C939      1.0  0.25321  0.87199  0.85107  1.0000
  H   H741      1.0  0.45414  0.51607  0.61695  1.0000
  S   S136      1.0  0.32512  0.54674  0.94697  1.0000
  C   C940      1.0  0.27652  0.88931  0.73013  1.0000
  C   C941      1.0  0.24077  0.52141  0.83195  1.0000
  C   C942      1.0  0.23002  0.87789  0.75073  1.0000
  H   H742      1.0  0.24036  0.48944  0.91678  1.0000
  C   C943      1.0  0.40452  0.84902  0.82399  1.0000
  C   C944      1.0  0.40476  0.84574  0.85721  1.0000
  C   C945      1.0  0.38848  0.84129  0.87505  1.0000
  C   C946      1.0  0.37196  0.84033  0.85980  1.0000
  C   C947      1.0  0.37189  0.84407  0.82679  1.0000
  C   C948      1.0  0.38810  0.84834  0.80894  1.0000
  H   H743      1.0  0.41743  0.84642  0.86887  1.0000
  H   H744      1.0  0.38867  0.83856  0.90064  1.0000
  H   H745      1.0  0.35928  0.84345  0.81486  1.0000
  H   H746      1.0  0.38787  0.85094  0.78327  1.0000
  C   C949      1.0  0.45568  0.55972  0.80858  1.0000
  C   C950      1.0  0.40552  0.51777  0.77521  1.0000
  C   C951      1.0  0.40562  0.62938  0.85535  1.0000
  C   C952      1.0  0.38963  0.61710  0.87179  1.0000
  C   C953      1.0  0.37530  0.60076  0.85571  1.0000
  C   C954      1.0  0.37681  0.59666  0.82299  1.0000
  C   C955      1.0  0.39289  0.60887  0.80659  1.0000
  C   C956      1.0  0.40726  0.62519  0.82273  1.0000
  H   H747      1.0  0.38821  0.62031  0.89700  1.0000
  H   H748      1.0  0.36281  0.59160  0.86832  1.0000
  H   H749      1.0  0.39411  0.60582  0.78121  1.0000
  H   H750      1.0  0.41935  0.63481  0.80981  1.0000
  C   C957      1.0  0.29727  0.85624  0.96006  1.0000
  S   S137      1.0  0.29755  0.50892  0.86990  1.0000
  C   C958      1.0  0.27120  0.81696  0.74518  1.0000
  H   H751      1.0  0.35918  0.84898  0.95013  1.0000
  C   C959      1.0  0.35535  0.82337  0.97256  1.0000
  C   C960      1.0  0.30363  0.51246  0.97519  1.0000
  C   C961      1.0  0.23758  0.75550  0.91608  1.0000
  H   H752      1.0  0.42724  0.97483  0.77637  1.0000
  C   C962      1.0  0.41192  0.81846  0.92899  1.0000
  H   H753      1.0  0.43411  0.84473  0.94980  1.0000
  C   C963      1.0  0.39000  0.55262  0.71635  1.0000
  C   C964      1.0  0.40214  0.56313  0.81389  1.0000
  C   C965      1.0  0.23407  0.75035  0.81503  1.0000
  C   C966      1.0  0.29764  0.92303  0.72626  1.0000
  C   C967      1.0  0.42895  0.55733  0.67367  1.0000
  C   C968      1.0  0.27186  0.88136  0.86391  1.0000
  C   C969      1.0  0.45278  0.74214  0.75937  1.0000
  H   H754      1.0  0.46322  0.97615  0.67083  1.0000
  C   C970      1.0  0.47174  0.66398  0.97364  1.0000
  H   H755      1.0  0.37841  0.57249  0.72288  1.0000
  H   H756      1.0  0.43073  0.59334  0.70782  1.0000
  H   H757      1.0  0.24361  0.74405  0.81276  1.0000
  C   C971      1.0  0.41711  0.69989  0.65757  1.0000
  C   C972      1.0  0.37632  0.57177  0.96055  1.0000
  H   H758      1.0  0.39496  0.52869  0.57140  1.0000
  H   H759      1.0  0.23744  0.82972  0.76743  1.0000
  C   C973      1.0  0.23958  0.59019  0.88316  1.0000
  H   H760      1.0  0.36391  0.57164  0.97126  1.0000
  H   H761      1.0  0.44678  0.96466  0.59403  1.0000
  H   H762      1.0  0.41795  0.70525  0.70923  1.0000
  C   C974      1.0  0.34756  0.89505  0.96877  1.0000
  H   H763      1.0  0.39597  0.68837  0.94908  1.0000
  C   C975      1.0  0.25535  0.73317  0.96768  1.0000
  H   H764      1.0  0.30142  0.89400  0.85312  1.0000
  C   C976      1.0  0.25556  0.54398  0.97878  1.0000
  Fe  Fe72      1.0  0.32107  0.51129  0.83643  1.0000
  H   H765      1.0  0.24203  0.83721  0.93135  1.0000
  H   H766      1.0  0.44331  0.54394  0.74301  1.0000
  C   C977      1.0  0.44430  0.61813  0.79384  1.0000
  H   H767      1.0  0.41670  0.55339  0.65725  1.0000
  H   H768      1.0  0.46407  0.97503  0.74913  1.0000
  C   C978      1.0  0.41823  0.69952  0.98675  1.0000
  H   H769      1.0  0.36154  0.89495  0.89138  1.0000
  H   H770      1.0  0.42768  0.94760  0.53024  1.0000
  H   H771      1.0  0.44558  0.78432  0.90261  1.0000
  H   H772      1.0  0.33767  0.90006  0.92245  1.0000
  H   H773      1.0  0.41076  0.67165  0.91803  1.0000
  C   C979      1.0  0.44787  0.88883  0.52172  1.0000
  C   C980      1.0  0.41890  0.56522  0.82997  1.0000
  C   C981      1.0  0.28471  0.83440  0.73469  1.0000
  C   C982      1.0  0.46232  0.57736  0.68668  1.0000
  C   C983      1.0  0.27011  0.72975  0.95676  1.0000
  C   C984      1.0  0.46106  0.56725  0.71461  1.0000
  H   H774      1.0  0.24618  0.76970  0.92656  1.0000
  C   C985      1.0  0.44679  0.59926  0.86193  1.0000
  H   H775      1.0  0.41996  0.57165  0.92048  1.0000
  H   H776      1.0  0.25544  0.58141  0.91574  1.0000
  C   C986      1.0  0.43601  0.91222  0.93459  1.0000
  H   H777      1.0  0.46366  0.87872  0.55225  1.0000
  C   C987      1.0  0.43378  0.60525  0.87349  1.0000
  C   C988      1.0  0.28107  0.85014  0.73532  1.0000
  H   H778      1.0  0.37830  0.75072  0.85844  1.0000
  H   H779      1.0  0.34366  0.81451  0.95588  1.0000
  H   H780      1.0  0.40221  0.57336  0.79680  1.0000
  H   H781      1.0  0.43558  0.90300  0.49246  1.0000
  H   H782      1.0  0.47552  0.72989  0.93194  1.0000
  C   C989      1.0  0.41593  0.50704  0.52709  1.0000
  C   C990      1.0  0.39740  0.80044  0.93532  1.0000
  H   H783      1.0  0.26089  0.75507  0.89093  1.0000
  H   H784      1.0  0.42118  0.60265  0.85888  1.0000
  C   C991      1.0  0.28512  0.90791  0.74402  1.0000
  H   H785      1.0  0.29520  0.88793  0.79374  1.0000
  H   H786      1.0  0.24048  0.54423  0.90028  1.0000
  C   C992      1.0  0.28826  0.73961  0.97151  1.0000
  C   C993      1.0  0.45280  0.61767  0.92358  1.0000
  H   H787      1.0  0.46115  0.93523  0.50702  1.0000
  H   H788      1.0  0.45517  0.62489  0.94727  1.0000
  C   C994      1.0  0.22900  0.77820  0.82003  1.0000
  H   H789      1.0  0.27466  0.88353  0.89004  1.0000
  C   C995      1.0  0.47000  0.52008  0.70805  1.0000
  H   H790      1.0  0.41665  0.91716  0.96419  1.0000
  C   C996      1.0  0.43950  0.59875  0.79007  1.0000
  C   C997      1.0  0.24551  0.54709  0.95286  1.0000
  C   C998      1.0  0.25397  0.81522  0.75611  1.0000
  H   H791      1.0  0.45882  0.94243  0.57471  1.0000
  C   C999      1.0  0.24864  0.54293  0.92080  1.0000
  H   H792      1.0  0.43413  0.86915  0.91711  1.0000
  P   P36       1.0  0.45447  0.70958  0.73466  1.0000
  C   C1000     1.0  0.23773  0.49033  0.94234  1.0000
  C   C1001     1.0  0.44629  0.57237  0.66616  1.0000
  C   C1002     1.0  0.26476  0.87498  0.79631  1.0000
  C   C1003     1.0  0.33436  0.78364  0.90671  1.0000
  C   C1004     1.0  0.32133  0.76439  0.90524  1.0000
  C   C1005     1.0  0.32775  0.75057  0.90422  1.0000
  C   C1006     1.0  0.34721  0.75599  0.90420  1.0000
  C   C1007     1.0  0.36039  0.77534  0.90542  1.0000
  C   C1008     1.0  0.35380  0.78911  0.90726  1.0000
  P   P37       1.0  0.38549  0.78282  0.90274  1.0000
  C   C1009     1.0  0.44359  0.69069  0.98086  1.0000
  C   C1010     1.0  0.39340  0.79211  0.86323  1.0000
  C   C1011     1.0  0.41094  0.79404  0.85298  1.0000
  C   C1012     1.0  0.41694  0.80029  0.82194  1.0000
  C   C1013     1.0  0.40558  0.80484  0.80099  1.0000
  C   C1014     1.0  0.38812  0.80294  0.81090  1.0000
  C   C1015     1.0  0.38201  0.79661  0.84186  1.0000
  C   C1016     1.0  0.42082  0.90666  0.95522  1.0000
  C   C1017     1.0  0.38747  0.53408  0.72117  1.0000
  C   C1018     1.0  0.23710  0.86547  0.73974  1.0000
  C   C1019     1.0  0.45937  0.76178  0.76387  1.0000
  C   C1020     1.0  0.39104  0.76301  0.90600  1.0000
  C   C1021     1.0  0.40702  0.74694  0.93339  1.0000
  C   C1022     1.0  0.31509  0.53205  0.97985  1.0000
  H   H793      1.0  0.42037  0.69525  0.60675  1.0000
  C   C1023     1.0  0.40942  0.68931  0.95773  1.0000
  C   C1024     1.0  0.46993  0.55503  0.79897  1.0000
  H   H794      1.0  0.25239  0.74360  0.74823  1.0000
  H   H795      1.0  0.32942  0.79442  0.90649  1.0000
  H   H796      1.0  0.30628  0.76027  0.90435  1.0000
  H   H797      1.0  0.31764  0.73563  0.90272  1.0000
  H   H798      1.0  0.35182  0.74504  0.90287  1.0000
  H   H799      1.0  0.36367  0.80415  0.90782  1.0000
  H   H800      1.0  0.42015  0.79089  0.86897  1.0000
  H   H801      1.0  0.43067  0.80214  0.81445  1.0000
  H   H802      1.0  0.41062  0.81052  0.77749  1.0000
  H   H803      1.0  0.37964  0.80710  0.79496  1.0000
  H   H804      1.0  0.36856  0.79563  0.84884  1.0000
  C   C1025     1.0  0.43891  0.61941  0.73588  1.0000
  C   C1026     1.0  0.36131  0.89380  0.91757  1.0000
  H   H805      1.0  0.45254  0.90283  0.90497  1.0000
  H   H806      1.0  0.45602  0.97789  0.52044  1.0000
  C   C1027     1.0  0.47305  0.80793  0.98404  1.0000
  C   C1028     1.0  0.35997  0.54509  0.74037  1.0000
  C   C1029     1.0  0.42876  0.69113  0.82060  1.0000
  C   C1030     1.0  0.46869  0.68335  0.72725  1.0000
  C   C1031     1.0  0.40623  0.57043  0.96554  1.0000
  H   H807      1.0  0.41572  0.82248  0.90431  1.0000
  H   H808      1.0  0.24189  0.72224  0.86748  1.0000
  S   S138      1.0  0.47369  0.65520  0.87194  1.0000
  C   C1032     1.0  0.40158  0.51074  0.53934  1.0000
  C   C1033     1.0  0.44714  0.80137  0.94525  1.0000
  C   C1034     1.0  0.23665  0.75840  0.73328  1.0000
  H   H809      1.0  0.46672  0.54025  0.79454  1.0000
  H   H810      1.0  0.43044  0.55438  0.86776  1.0000
  H   H811      1.0  0.42075  0.98279  0.58993  1.0000
  H   H812      1.0  0.38693  0.50166  0.53166  1.0000
  Fe  Fe73      1.0  0.47322  0.83183  0.83999  1.0000
  H   H813      1.0  0.24376  0.80180  0.76503  1.0000
  H   H814      1.0  0.38774  0.72494  0.85986  1.0000
  C   C1035     1.0  0.26259  0.53718  0.91479  1.0000
  H   H815      1.0  0.26540  0.53453  0.89002  1.0000
  H   H816      1.0  0.29975  0.73705  0.96298  1.0000
  C   C1036     1.0  0.45963  0.57886  0.81354  1.0000
  H   H817      1.0  0.28245  0.91082  0.76867  1.0000
  H   H818      1.0  0.42567  0.52130  0.65514  1.0000
  C   C1037     1.0  0.24964  0.86869  0.81738  1.0000
  H   H819      1.0  0.41506  0.50018  0.60599  1.0000
  C   C1038     1.0  0.41024  0.66721  0.77879  1.0000
  C   C1039     1.0  0.42546  0.70326  0.68902  1.0000
  C   C1040     1.0  0.38604  0.74961  0.87977  1.0000
  C   C1041     1.0  0.24156  0.58015  0.90930  1.0000
  H   H820      1.0  0.29564  0.89894  0.65543  1.0000
  H   H821      1.0  0.30054  0.50600  0.95083  1.0000
  H   H822      1.0  0.45258  0.69782  0.61557  1.0000
  H   H823      1.0  0.43961  0.73273  0.76992  1.0000
  C   C1042     1.0  0.43469  0.68041  0.95195  1.0000
  H   H824      1.0  0.44077  0.67255  0.93884  1.0000
  H   H825      1.0  0.40117  0.52864  0.78070  1.0000
  H   H826      1.0  0.24125  0.72553  0.95633  1.0000
  H   H827      1.0  0.39950  0.52751  0.87921  1.0000
  H   H828      1.0  0.40319  0.69910  0.65366  1.0000
  C   C1043     1.0  0.28341  0.88401  0.80948  1.0000
  H   H829      1.0  0.37040  0.52298  0.84841  1.0000
  C   C1044     1.0  0.38476  0.54788  0.82050  1.0000
  C   C1045     1.0  0.41070  0.51195  0.65097  1.0000
  H   H830      1.0  0.24407  0.81611  0.88774  1.0000
  C   C1046     1.0  0.45711  0.81007  0.97440  1.0000
  C   C1047     1.0  0.23466  0.82190  0.93339  1.0000
  H   H831      1.0  0.47311  0.59807  0.87341  1.0000
  C   C1048     1.0  0.39751  0.51133  0.67371  1.0000
  H   H832      1.0  0.44374  0.92694  0.92831  1.0000
  S   S139      1.0  0.42833  0.97782  0.65590  1.0000
  H   H833      1.0  0.45376  0.54268  0.56875  1.0000
  C   C1049     1.0  0.41807  0.82619  0.98692  1.0000
  H   H834      1.0  0.44881  0.76058  0.86079  1.0000
  C   C1050     1.0  0.40037  0.53733  0.86064  1.0000
  H   H835      1.0  0.29839  0.83602  0.72737  1.0000
  H   H836      1.0  0.40379  0.50940  0.82492  1.0000
  C   C1051     1.0  0.25041  0.83104  0.75721  1.0000
  C   C1052     1.0  0.46862  0.74988  0.84822  1.0000
  H   H837      1.0  0.44889  0.62560  0.81734  1.0000
  S   S140      1.0  0.46485  0.79982  0.84442  1.0000
  C   C1053     1.0  0.26391  0.84862  0.74655  1.0000
  C   C1054     1.0  0.28695  0.88735  0.84311  1.0000
  C   C1055     1.0  0.41071  0.88756  0.96335  1.0000
  H   H838      1.0  0.47469  0.75613  0.96506  1.0000
  H   H839      1.0  0.36794  0.49664  0.68580  1.0000
  C   C1056     1.0  0.37778  0.57272  0.92684  1.0000
  C   C1057     1.0  0.43053  0.87959  0.92833  1.0000
  C   C1058     1.0  0.44344  0.70418  0.69430  1.0000
  P   P38       1.0  0.40533  0.52687  0.70998  1.0000
  H   H840      1.0  0.34940  0.54935  0.74802  1.0000
  C   C1059     1.0  0.47522  0.53566  0.51950  1.0000
  H   H841      1.0  0.41766  0.49698  0.71254  1.0000
  C   C1060     1.0  0.45300  0.79052  0.92573  1.0000
  H   H842      1.0  0.40634  0.77188  0.95300  1.0000
  H   H843      1.0  0.30483  0.93726  0.73742  1.0000
  H   H844      1.0  0.45965  0.73564  0.85558  1.0000
  C   C1061     1.0  0.43936  0.53372  0.55991  1.0000
  H   H845      1.0  0.40408  0.66498  0.82963  1.0000
  C   C1062     1.0  0.40474  0.50002  0.62289  1.0000
  C   C1063     1.0  0.40877  0.51395  0.74305  1.0000
  H   H846      1.0  0.43160  0.69576  0.84607  1.0000
  C   C1064     1.0  0.38391  0.53484  0.84348  1.0000
  C   C1065     1.0  0.41781  0.55246  0.85395  1.0000
  H   H847      1.0  0.44157  0.54838  0.81114  1.0000
  C   C1066     1.0  0.44381  0.55200  0.72195  1.0000
  H   H848      1.0  0.23447  0.79349  0.82183  1.0000
  H   H849      1.0  0.37182  0.54638  0.80828  1.0000
  H   H850      1.0  0.24795  0.77224  0.74088  1.0000
  S   S141      1.0  0.47032  0.84690  0.79558  1.0000
  C   C1067     1.0  0.42756  0.54704  0.70170  1.0000
  C   C1068     1.0  0.44389  0.62836  0.76682  1.0000
  H   H851      1.0  0.40156  0.96254  0.54262  1.0000
  C   C1069     1.0  0.40195  0.73371  0.90719  1.0000
  C   C1070     1.0  0.37396  0.88866  0.93361  1.0000
  C   C1071     1.0  0.44091  0.89868  0.92126  1.0000
  C   C1072     1.0  0.37381  0.88707  0.96758  1.0000
  C   C1073     1.0  0.41333  0.67372  0.81137  1.0000
  C   C1074     1.0  0.46913  0.78864  0.93495  1.0000
  C   C1075     1.0  0.46589  0.61187  0.91220  1.0000
  C   C1076     1.0  0.41466  0.49994  0.73694  1.0000
  H   H852      1.0  0.33683  0.89678  0.98225  1.0000
  H   H853      1.0  0.40247  0.56295  0.70537  1.0000
  C   C1077     1.0  0.43499  0.51865  0.53694  1.0000
  C   C1078     1.0  0.40168  0.76157  0.93281  1.0000
  S   S142      1.0  0.47260  0.87286  0.93779  1.0000
  C   C1079     1.0  0.39345  0.57260  0.91237  1.0000
  C   C1080     1.0  0.42245  0.67822  0.75531  1.0000
  C   C1081     1.0  0.31124  0.85005  0.96042  1.0000
  H   H854      1.0  0.43897  0.62748  0.71497  1.0000
  C   C1082     1.0  0.46083  0.97007  0.58448  1.0000
  H   H855      1.0  0.41736  0.56955  0.98011  1.0000
  H   H856      1.0  0.38128  0.78211  0.97303  1.0000
  C   C1083     1.0  0.27987  0.88628  0.69766  1.0000
  H   H857      1.0  0.23850  0.88978  0.76745  1.0000
  C   C1084     1.0  0.46256  0.76414  0.85131  1.0000
  H   H858      1.0  0.45164  0.76732  0.77845  1.0000
  C   C1085     1.0  0.42497  0.53736  0.57211  1.0000
  H   H859      1.0  0.44746  0.57995  0.64409  1.0000
  C   C1086     1.0  0.37836  0.49817  0.66820  1.0000
  H   H860      1.0  0.39857  0.65342  0.77197  1.0000
  H   H861      1.0  0.47413  0.78130  0.91816  1.0000
  C   C1087     1.0  0.44493  0.69916  0.63612  1.0000
  H   H862      1.0  0.38355  0.88555  0.91922  1.0000
  P   P39       1.0  0.26056  0.86959  0.75306  1.0000
  H   H863      1.0  0.23928  0.49775  0.85852  1.0000
  C   C1088     1.0  0.40611  0.52597  0.56168  1.0000
  C   C1089     1.0  0.47397  0.78285  0.84183  1.0000
  H   H864      1.0  0.31179  0.93146  0.68129  1.0000
  C   C1090     1.0  0.44101  0.70214  0.79719  1.0000
  C   C1091     1.0  0.30154  0.91977  0.69447  1.0000
  H   H865      1.0  0.44800  0.64339  0.76985  1.0000
  H   H866      1.0  0.45479  0.67372  0.71686  1.0000
  C   C1092     1.0  0.45716  0.50248  0.69389  1.0000
  C   C1093     1.0  0.47631  0.97361  0.79593  1.0000
  H   H867      1.0  0.45338  0.71519  0.80487  1.0000
  C   C1094     1.0  0.37633  0.55810  0.72607  1.0000
  C   C1095     1.0  0.47207  0.53463  0.65626  1.0000
  C   C1096     1.0  0.47667  0.92538  0.53894  1.0000
  S   S143      1.0  0.37722  0.97161  0.64314  1.0000
  C   C1097     1.0  0.43777  0.69593  0.76429  1.0000
  H   H868      1.0  0.27303  0.87215  0.68617  1.0000
  C   C1098     1.0  0.29253  0.90143  0.68006  1.0000
  H   H869      1.0  0.42013  0.67268  0.73037  1.0000
  C   C1099     1.0  0.47283  0.70202  0.73744  1.0000
  C   C1100     1.0  0.27306  0.53490  0.94064  1.0000
  C   C1101     1.0  0.36042  0.89024  0.98501  1.0000
  C   C1102     1.0  0.47703  0.97882  0.76358  1.0000
  S   S144      1.0  0.46540  0.67795  0.81265  1.0000
  C   C1103     1.0  0.24608  0.74710  0.89637  1.0000
  C   C1104     1.0  0.35739  0.52670  0.74552  1.0000
  C   C1105     1.0  0.36416  0.84305  0.96942  1.0000
  H   H870      1.0  0.25178  0.59879  0.86934  1.0000
  Fe  Fe74      1.0  0.47576  0.86437  0.88617  1.0000
  C   C1106     1.0  0.42681  0.69776  0.63114  1.0000
  C   C1107     1.0  0.43445  0.58983  0.75890  1.0000
  H   H871      1.0  0.40637  0.72257  0.90743  1.0000
  C   C1108     1.0  0.41770  0.67982  0.94027  1.0000
  H   H872      1.0  0.28388  0.53047  0.93578  1.0000
  H   H873      1.0  0.34489  0.51681  0.75741  1.0000
  H   H874      1.0  0.42679  0.61925  0.91270  1.0000
  C   C1109     1.0  0.39144  0.73503  0.88042  1.0000
  C   C1110     1.0  0.43422  0.60015  0.73190  1.0000
  C   C1111     1.0  0.46164  0.92298  0.51735  1.0000
  H   H875      1.0  0.43524  0.80348  0.93715  1.0000
  C   C1112     1.0  0.44918  0.96746  0.50064  1.0000
  H   H876      1.0  0.23514  0.86088  0.80799  1.0000
  C   C1113     1.0  0.43682  0.61448  0.90414  1.0000
  H   H877      1.0  0.43090  0.57495  0.75554  1.0000
  H   H878      1.0  0.36892  0.50696  0.74086  1.0000
  H   H879      1.0  0.47364  0.57095  0.72998  1.0000
  C   C1114     1.0  0.23911  0.74217  0.73759  1.0000
  C   C1115     1.0  0.41551  0.87399  0.94931  1.0000
  C   C1116     1.0  0.40772  0.57155  0.93172  1.0000
  C   C1117     1.0  0.44722  0.90477  0.50895  1.0000
  S   S145      1.0  0.47307  0.88177  0.84575  1.0000
  C   C1118     1.0  0.46773  0.95757  0.57350  1.0000
  H   H880      1.0  0.46754  0.70401  0.67083  1.0000
  H   H881      1.0  0.46592  0.66024  0.94891  1.0000
  C   C1119     1.0  0.40725  0.50709  0.80051  1.0000
  C   C1120     1.0  0.39269  0.79581  0.96768  1.0000
  H   H882      1.0  0.27440  0.80500  0.74593  1.0000
  C   C1121     1.0  0.34798  0.89682  0.93507  1.0000
  C   C1122     1.0  0.42235  0.83118  0.95476  1.0000
  H   H883      1.0  0.40750  0.85905  0.95387  1.0000
  C   C1123     1.0  0.46316  0.73493  0.74151  1.0000
  H   H884      1.0  0.26746  0.71949  0.93682  1.0000
  H   H885      1.0  0.27884  0.78776  0.97785  1.0000
  C   C1124     1.0  0.46304  0.89109  0.54259  1.0000
  C   C1125     1.0  0.45331  0.70253  0.66755  1.0000
  H   H886      1.0  0.43669  0.87470  0.51530  1.0000
  H   H887      1.0  0.24157  0.86695  0.86735  1.0000
  C   C1126     1.0  0.47752  0.90929  0.55095  1.0000
  C   C1127     1.0  0.47620  0.77436  0.75023  1.0000
  C   C1128     1.0  0.47536  0.49887  0.55122  1.0000
  H   H888      1.0  0.41207  0.49500  0.51010  1.0000
  C   C1129     1.0  0.38561  0.48727  0.61728  1.0000
  C   C1130     1.0  0.47844  0.48667  0.57193  1.0000
  C   C1131     1.0  0.41266  0.49286  0.79408  1.0000
  C   C1132     1.0  0.23043  0.53104  0.82167  1.0000
  C   C1133     1.0  0.23169  0.50549  0.85081  1.0000
  Fe  Fe75      1.0  0.37154  0.98261  0.69051  1.0000
  C   C1134     1.0  0.41246  0.97683  0.53899  1.0000
  S   S146      1.0  0.33447  0.49103  0.82750  1.0000
  H   H889      1.0  0.47414  0.52128  0.73358  1.0000
  H   H890      1.0  0.47586  0.58875  0.68049  1.0000
  C   C1135     1.0  0.47791  0.59318  0.80812  1.0000
  H   H891      1.0  0.44128  0.48746  0.65009  1.0000
  H   H892      1.0  0.35796  0.53632  0.98270  1.0000
  C   C1136     1.0  0.26881  0.80852  0.98549  1.0000
  H   H893      1.0  0.29139  0.91921  0.49342  1.0000
  C   C1137     1.0  0.41649  0.48940  0.76240  1.0000
  C   C1138     1.0  0.47774  0.53609  0.68911  1.0000
  C   C1139     1.0  0.41565  0.98391  0.50776  1.0000
  H   H894      1.0  0.23162  0.84125  0.70740  1.0000
  H   H895      1.0  0.32363  0.92140  0.49629  1.0000
  H   H896      1.0  0.44065  0.73733  0.98871  1.0000
  H   H897      1.0  0.47847  0.61475  0.92709  1.0000
  C   C1140     1.0  0.24918  0.48769  0.96606  1.0000
  P   P40       1.0  0.39021  0.88030  0.98800  1.0000
  Fe  Fe76      1.0  0.63730  0.16058  0.12993  1.0000
  S   S147      1.0  0.64915  0.19232  0.13631  1.0000
  S   S148      1.0  0.63027  0.14441  0.08092  1.0000
  Fe  Fe77      1.0  0.63452  0.15403  0.20339  1.0000
  S   S149      1.0  0.64650  0.18566  0.21490  1.0000
  S   S150      1.0  0.62519  0.13485  0.24744  1.0000
  Fe  Fe78      1.0  0.62716  0.18551  0.17383  1.0000
  S   S151      1.0  0.61123  0.20314  0.17698  1.0000
  Fe  Fe79      1.0  0.66772  0.19020  0.17653  1.0000
  S   S152      1.0  0.69984  0.20952  0.18214  1.0000
  S   S153      1.0  0.61391  0.15385  0.16469  1.0000
  S   S154      1.0  0.65727  0.15847  0.16798  1.0000
  Fe  Fe80      1.0  0.54787  0.00614  0.36776  1.0000
  S   S155      1.0  0.56927  0.00517  0.33297  1.0000
  S   S156      1.0  0.54763  0.01494  0.42177  1.0000
  Fe  Fe81      1.0  0.51867  0.99737  0.31191  1.0000
  H   H898      1.0  0.56344  0.13077  0.32389  1.0000
  H   H899      1.0  0.71733  0.24037  0.11231  1.0000
  Fe  Fe82      1.0  0.56039  0.02240  0.29953  1.0000
  S   S157      1.0  0.57759  0.04504  0.26342  1.0000
  S   S158      1.0  0.54060  0.02481  0.33511  1.0000
  S   S159      1.0  0.64170  0.47071  0.12946  1.0000
  C   C1141     1.0  0.66957  0.26228  0.20312  1.0000
  S   S160      1.0  0.59631  0.45242  0.18750  1.0000
  H   H900      1.0  0.49175  0.12085  0.99849  1.0000
  C   C1142     1.0  0.53244  0.05384  0.19030  1.0000
  Fe  Fe83      1.0  0.50263  0.36303  0.13060  1.0000
  S   S161      1.0  0.53241  0.37886  0.11268  1.0000
  Fe  Fe84      1.0  0.50129  0.16966  0.15554  1.0000
  H   H901      1.0  0.59103  0.46778  0.99634  1.0000
  S   S162      1.0  0.52215  0.15746  0.15442  1.0000
  C   C1143     1.0  0.52610  0.03610  0.23927  1.0000
  H   H902      1.0  0.55340  0.04947  0.21803  1.0000
  S   S163      1.0  0.48851  0.98936  0.29673  1.0000
  S   S164      1.0  0.49398  0.18418  0.19635  1.0000
  C   C1144     1.0  0.48015  0.00526  0.31024  1.0000
  H   H903      1.0  0.51129  0.26959  0.13902  1.0000
  C   C1145     1.0  0.57839  0.43236  0.16610  1.0000
  C   C1146     1.0  0.56167  0.42088  0.18160  1.0000
  C   C1147     1.0  0.54722  0.40467  0.16527  1.0000
  C   C1148     1.0  0.54964  0.39964  0.13351  1.0000
  C   C1149     1.0  0.56642  0.41107  0.11810  1.0000
  C   C1150     1.0  0.58068  0.42747  0.13420  1.0000
  H   H904      1.0  0.55996  0.42451  0.20641  1.0000
  H   H905      1.0  0.53440  0.39588  0.17741  1.0000
  H   H906      1.0  0.56843  0.40722  0.09359  1.0000
  H   H907      1.0  0.59359  0.43613  0.12214  1.0000
  C   C1151     1.0  0.50672  0.14831  0.06845  1.0000
  C   C1152     1.0  0.49260  0.02360  0.32227  1.0000
  H   H908      1.0  0.51856  0.25596  0.07907  1.0000
  H   H909      1.0  0.55340  0.07457  0.34875  1.0000
  H   H910      1.0  0.50765  0.02833  0.32295  1.0000
  C   C1153     1.0  0.49679  0.26552  0.14494  1.0000
  C   C1154     1.0  0.58638  0.19066  0.17121  1.0000
  C   C1155     1.0  0.57714  0.17084  0.17105  1.0000
  C   C1156     1.0  0.55744  0.16096  0.16603  1.0000
  C   C1157     1.0  0.54673  0.17083  0.16158  1.0000
  C   C1158     1.0  0.55580  0.19071  0.16239  1.0000
  C   C1159     1.0  0.57566  0.20062  0.16719  1.0000
  H   H911      1.0  0.58511  0.16309  0.17543  1.0000
  H   H912      1.0  0.55050  0.14559  0.16554  1.0000
  H   H913      1.0  0.54759  0.19841  0.15904  1.0000
  H   H914      1.0  0.58272  0.21599  0.16761  1.0000
  C   C1160     1.0  0.61005  0.10999  0.25031  1.0000
  C   C1161     1.0  0.60249  0.10299  0.28056  1.0000
  C   C1162     1.0  0.59205  0.08325  0.28491  1.0000
  C   C1163     1.0  0.58926  0.07020  0.25913  1.0000
  C   C1164     1.0  0.59639  0.07723  0.22870  1.0000
  C   C1165     1.0  0.60655  0.09697  0.22419  1.0000
  H   H915      1.0  0.60508  0.11289  0.30098  1.0000
  H   H916      1.0  0.58659  0.07817  0.30840  1.0000
  H   H917      1.0  0.59439  0.06732  0.20856  1.0000
  H   H918      1.0  0.61237  0.10205  0.20087  1.0000
  C   C1166     1.0  0.71359  0.23444  0.17749  1.0000
  H   H919      1.0  0.69008  0.24087  0.17183  1.0000
  H   H920      1.0  0.65196  0.11088  0.23951  1.0000
  C   C1167     1.0  0.68804  0.04824  0.34896  1.0000
  H   H921      1.0  0.53169  0.14315  0.21597  1.0000
  C   C1168     1.0  0.55917  0.10345  0.33975  1.0000
  C   C1169     1.0  0.55374  0.01195  0.46277  1.0000
  H   H922      1.0  0.56992  0.99707  0.45103  1.0000
  C   C1170     1.0  0.60620  0.02342  0.26465  1.0000
  C   C1171     1.0  0.63548  0.17636  0.04822  1.0000
  C   C1172     1.0  0.63278  0.15762  0.04574  1.0000
  C   C1173     1.0  0.63220  0.14933  0.01477  1.0000
  H   H923      1.0  0.63548  0.18276  0.07166  1.0000
  H   H924      1.0  0.63000  0.13479  0.01263  1.0000
  H   H925      1.0  0.52208  0.11463  0.30681  1.0000
  C   C1174     1.0  0.49005  0.27935  0.14511  1.0000
  H   H926      1.0  0.57767  0.22417  0.00247  1.0000
  H   H927      1.0  0.49110  0.48493  0.34673  1.0000
  H   H928      1.0  0.68192  0.02613  0.31206  1.0000
  H   H929      1.0  0.58426  0.11464  0.03979  1.0000
  H   H930      1.0  0.50706  0.17521  0.01088  1.0000
  H   H931      1.0  0.67335  0.47679  0.06044  1.0000
  C   C1175     1.0  0.50266  0.12542  0.29299  1.0000
  C   C1176     1.0  0.60577  0.16522  0.27022  1.0000
  S   S165      1.0  0.49491  0.23017  0.15491  1.0000
  H   H932      1.0  0.49426  0.30477  0.07228  1.0000
  C   C1177     1.0  0.48050  0.46935  0.42454  1.0000
  C   C1178     1.0  0.48490  0.47563  0.48292  1.0000
  H   H933      1.0  0.51759  0.46950  0.43647  1.0000
  C   C1179     1.0  0.49512  0.02813  0.40683  1.0000
  C   C1180     1.0  0.70225  0.42603  0.03735  1.0000
  H   H934      1.0  0.67337  0.16571  0.26787  1.0000
  H   H935      1.0  0.48099  0.05901  0.47164  1.0000
  H   H936      1.0  0.56484  0.10874  0.36424  1.0000
  C   C1181     1.0  0.50142  0.13069  0.01710  1.0000
  H   H937      1.0  0.50661  0.02472  0.48380  1.0000
  C   C1182     1.0  0.53873  0.04675  0.21611  1.0000
  C   C1183     1.0  0.55270  0.08421  0.33108  1.0000
  H   H938      1.0  0.61913  0.16522  0.27655  1.0000
  C   C1184     1.0  0.57162  0.14781  0.25970  1.0000
  H   H939      1.0  0.65381  0.17644  0.30001  1.0000
  Fe  Fe85      1.0  0.62007  0.47411  0.15914  1.0000
  C   C1185     1.0  0.59342  0.00618  0.24916  1.0000
  C   C1186     1.0  0.55142  0.10921  0.28484  1.0000
  C   C1187     1.0  0.52933  0.46401  0.20044  1.0000
  H   H940      1.0  0.58566  0.00618  0.22706  1.0000
  H   H941      1.0  0.47909  0.13029  0.04657  1.0000
  C   C1188     1.0  0.58898  0.14814  0.26901  1.0000
  H   H942      1.0  0.53768  0.42082  0.01882  1.0000
  C   C1189     1.0  0.50056  0.03932  0.21043  1.0000
  C   C1190     1.0  0.49769  0.13535  0.27010  1.0000
  H   H943      1.0  0.71037  0.27563  0.16697  1.0000
  C   C1191     1.0  0.71691  0.26634  0.17008  1.0000
  H   H944      1.0  0.49434  0.12040  0.31431  1.0000
  C   C1192     1.0  0.48740  0.29920  0.02063  1.0000
  C   C1193     1.0  0.63839  0.18701  0.02030  1.0000
  C   C1194     1.0  0.53672  0.33929  0.16706  1.0000
  C   C1195     1.0  0.54263  0.32707  0.15160  1.0000
  C   C1196     1.0  0.54066  0.31065  0.16670  1.0000
  C   C1197     1.0  0.53250  0.30629  0.19703  1.0000
  C   C1198     1.0  0.52590  0.31818  0.21219  1.0000
  C   C1199     1.0  0.52860  0.33498  0.19738  1.0000
  C   C1200     1.0  0.67474  0.25659  0.38562  1.0000
  H   H945      1.0  0.49022  0.23488  0.27759  1.0000
  C   C1201     1.0  0.49069  0.48136  0.45139  1.0000
  H   H946      1.0  0.50426  0.04332  0.40777  1.0000
  S   S166      1.0  0.48274  0.37616  0.13163  1.0000
  C   C1202     1.0  0.50244  0.01556  0.39873  1.0000
  C   C1203     1.0  0.50387  0.24881  0.07035  1.0000
  C   C1204     1.0  0.55416  0.26951  0.01555  1.0000
  H   H947      1.0  0.65179  0.45908  0.23038  1.0000
  C   C1205     1.0  0.53803  0.47555  0.39984  1.0000
  H   H948      1.0  0.59890  0.47517  0.05490  1.0000
  H   H949      1.0  0.69281  0.29034  0.21156  1.0000
  C   C1206     1.0  0.53570  0.45054  0.20794  1.0000
  C   C1207     1.0  0.71682  0.24656  0.01897  1.0000
  C   C1208     1.0  0.55311  0.33611  0.27535  1.0000
  H   H950      1.0  0.70715  0.28132  0.25757  1.0000
  C   C1209     1.0  0.69429  0.27062  0.24537  1.0000
  C   C1210     1.0  0.48609  0.11063  0.17145  1.0000
  C   C1211     1.0  0.71206  0.25547  0.07369  1.0000
  H   H951      1.0  0.61110  0.03348  0.42989  1.0000
  H   H952      1.0  0.66814  0.27619  0.35916  1.0000
  H   H953      1.0  0.54540  0.30124  0.15489  1.0000
  H   H954      1.0  0.53138  0.29365  0.20845  1.0000
  H   H955      1.0  0.55060  0.45468  0.21230  1.0000
  H   H956      1.0  0.48166  0.19758  0.00353  1.0000
  H   H957      1.0  0.49759  0.02432  0.25489  1.0000
  C   C1212     1.0  0.66712  0.18686  0.29111  1.0000
  H   H958      1.0  0.58465  0.28179  0.01689  1.0000
  C   C1213     1.0  0.72375  0.45289  0.00772  1.0000
  H   H959      1.0  0.67252  0.47965  0.00104  1.0000
  C   C1214     1.0  0.71117  0.41539  0.02606  1.0000
  C   C1215     1.0  0.52655  0.48001  0.42002  1.0000
  C   C1216     1.0  0.50987  0.45778  0.19351  1.0000
  H   H960      1.0  0.70793  0.26816  0.03075  1.0000
  H   H961      1.0  0.55757  0.33361  0.25183  1.0000
  H   H962      1.0  0.58176  0.35406  0.29330  1.0000
  S   S167      1.0  0.49369  0.18468  0.11669  1.0000
  C   C1217     1.0  0.49516  0.25918  0.05726  1.0000
  H   H963      1.0  0.64839  0.23297  0.20012  1.0000
  C   C1218     1.0  0.54541  0.07739  0.29951  1.0000
  C   C1219     1.0  0.60546  0.18210  0.26195  1.0000
  C   C1220     1.0  0.57206  0.21449  0.07289  1.0000
  C   C1221     1.0  0.58975  0.21989  0.08856  1.0000
  C   C1222     1.0  0.59851  0.20806  0.08607  1.0000
  C   C1223     1.0  0.58949  0.19069  0.06836  1.0000
  C   C1224     1.0  0.57130  0.18475  0.05386  1.0000
  C   C1225     1.0  0.56293  0.19705  0.05531  1.0000
  P   P41       1.0  0.55904  0.16163  0.03318  1.0000
  H   H964      1.0  0.60634  0.21954  0.00988  1.0000
  C   C1226     1.0  0.56612  0.14582  0.05376  1.0000
  C   C1227     1.0  0.56737  0.14662  0.08787  1.0000
  C   C1228     1.0  0.57494  0.13625  0.10444  1.0000
  C   C1229     1.0  0.58111  0.12481  0.08712  1.0000
  C   C1230     1.0  0.57906  0.12319  0.05318  1.0000
  C   C1231     1.0  0.57129  0.13341  0.03649  1.0000
  H   H965      1.0  0.52769  0.42096  0.21533  1.0000
  H   H966      1.0  0.53158  0.46620  0.13430  1.0000
  C   C1232     1.0  0.63843  0.17898  0.98953  1.0000
  C   C1233     1.0  0.49055  0.99598  0.39609  1.0000
  C   C1234     1.0  0.54240  0.34302  0.33659  1.0000
  C   C1235     1.0  0.53366  0.15151  0.03743  1.0000
  C   C1236     1.0  0.52632  0.15596  0.06530  1.0000
  H   H967      1.0  0.70826  0.26405  0.09006  1.0000
  C   C1237     1.0  0.68792  0.24953  0.32661  1.0000
  H   H968      1.0  0.57228  0.36024  0.34758  1.0000
  H   H969      1.0  0.72743  0.38372  0.02050  1.0000
  H   H970      1.0  0.56525  0.22364  0.07498  1.0000
  H   H971      1.0  0.59662  0.23311  0.10300  1.0000
  H   H972      1.0  0.61212  0.21210  0.09861  1.0000
  H   H973      1.0  0.59657  0.18175  0.06683  1.0000
  H   H974      1.0  0.54916  0.19295  0.04361  1.0000
  H   H975      1.0  0.56327  0.15593  0.10162  1.0000
  C   C1238     1.0  0.55540  0.43743  0.05941  1.0000
  H   H976      1.0  0.58803  0.11765  0.09989  1.0000
  H   H977      1.0  0.52630  0.13372  0.99315  1.0000
  H   H978      1.0  0.49419  0.05528  0.26812  1.0000
  H   H979      1.0  0.53874  0.02636  0.48300  1.0000
  H   H980      1.0  0.50461  0.46770  0.18657  1.0000
  H   H981      1.0  0.66366  0.21074  0.30924  1.0000
  H   H982      1.0  0.48566  0.13815  0.27365  1.0000
  H   H983      1.0  0.53566  0.16526  0.08482  1.0000
  C   C1239     1.0  0.59008  0.98900  0.26283  1.0000
  H   H984      1.0  0.67972  0.27018  0.30738  1.0000
  H   H985      1.0  0.50210  0.30624  0.01422  1.0000
  H   H986      1.0  0.66964  0.25931  0.40838  1.0000
  C   C1240     1.0  0.56312  0.44464  0.00292  1.0000
  H   H987      1.0  0.55860  0.16552  0.24439  1.0000
  H   H988      1.0  0.50674  0.98726  0.12608  1.0000
  H   H989      1.0  0.49933  0.29385  0.13925  1.0000
  H   H990      1.0  0.49443  0.27789  0.21236  1.0000
  H   H991      1.0  0.50118  0.15196  0.08989  1.0000
  H   H992      1.0  0.57665  0.13773  0.13067  1.0000
  H   H993      1.0  0.53103  0.03056  0.25925  1.0000
  C   C1241     1.0  0.51844  0.12218  0.28857  1.0000
  C   C1242     1.0  0.51345  0.05015  0.18738  1.0000
  H   H994      1.0  0.51732  0.02102  0.39389  1.0000
  C   C1243     1.0  0.49427  0.13591  0.04417  1.0000
  C   C1244     1.0  0.48505  0.24656  0.15286  1.0000
  H   H995      1.0  0.50317  0.27442  0.05552  1.0000
  C   C1245     1.0  0.52277  0.43132  0.20951  1.0000
  C   C1246     1.0  0.58525  0.46374  0.04691  1.0000
  S   S168      1.0  0.53757  0.99608  0.27380  1.0000
  C   C1247     1.0  0.68221  0.24361  0.38399  1.0000
  C   C1248     1.0  0.68610  0.27584  0.21941  1.0000
  C   C1249     1.0  0.52103  0.13823  0.01395  1.0000
  H   H996      1.0  0.70154  0.04892  0.35669  1.0000
  C   C1250     1.0  0.68991  0.21986  0.28418  1.0000
  C   C1251     1.0  0.48547  0.03588  0.33363  1.0000
  C   C1252     1.0  0.56690  0.34770  0.29888  1.0000
  C   C1253     1.0  0.70085  0.21358  0.26589  1.0000
  C   C1254     1.0  0.48305  0.29840  0.05348  1.0000
  C   C1255     1.0  0.53381  0.32799  0.28224  1.0000
  H   H997      1.0  0.49485  0.11023  0.12259  1.0000
  H   H998      1.0  0.51343  0.34843  0.26999  1.0000
  H   H999      1.0  0.68293  0.23629  0.40550  1.0000
  H   H1000     1.0  0.48727  0.07636  0.30430  1.0000
  C   C1256     1.0  0.63531  0.47001  0.25631  1.0000
  C   C1257     1.0  0.54465  0.08978  0.27646  1.0000
  H   H1001     1.0  0.62211  0.45709  0.25215  1.0000
  H   H1002     1.0  0.57954  0.48195  0.19548  1.0000
  C   C1258     1.0  0.65203  0.47111  0.24404  1.0000
  C   C1259     1.0  0.67283  0.20632  0.29637  1.0000
  C   C1260     1.0  0.50714  0.03255  0.23665  1.0000
  C   C1261     1.0  0.49341  0.22922  0.07331  1.0000
  C   C1262     1.0  0.68880  0.24010  0.35463  1.0000
  C   C1263     1.0  0.52383  0.13825  0.23774  1.0000
  H   H1003     1.0  0.53894  0.08414  0.25215  1.0000
  C   C1264     1.0  0.68178  0.06036  0.36387  1.0000
  H   H1004     1.0  0.69045  0.07047  0.38310  1.0000
  C   C1265     1.0  0.54976  0.11529  0.21531  1.0000
  C   C1266     1.0  0.53284  0.10656  0.19606  1.0000
  C   C1267     1.0  0.53272  0.09904  0.16484  1.0000
  C   C1268     1.0  0.54932  0.09953  0.15311  1.0000
  C   C1269     1.0  0.56601  0.10744  0.17267  1.0000
  C   C1270     1.0  0.56629  0.11540  0.20354  1.0000
  H   H1005     1.0  0.50034  0.11963  0.18105  1.0000
  H   H1006     1.0  0.54055  0.06250  0.29286  1.0000
  H   H1007     1.0  0.51977  0.09288  0.14974  1.0000
  C   C1271     1.0  0.50825  0.14171  0.24245  1.0000
  H   H1008     1.0  0.51973  0.10554  0.20506  1.0000
  H   H1009     1.0  0.64087  0.20164  0.02266  1.0000
  H   H1010     1.0  0.54929  0.09379  0.12887  1.0000
  H   H1011     1.0  0.57892  0.10773  0.16384  1.0000
  H   H1012     1.0  0.57945  0.12154  0.21811  1.0000
  C   C1272     1.0  0.59238  0.05170  0.37358  1.0000
  C   C1273     1.0  0.59540  0.04526  0.40346  1.0000
  C   C1274     1.0  0.60922  0.03899  0.40694  1.0000
  C   C1275     1.0  0.62024  0.03942  0.38068  1.0000
  C   C1276     1.0  0.61771  0.04644  0.35086  1.0000
  C   C1277     1.0  0.60334  0.05208  0.34728  1.0000
  P   P42       1.0  0.63082  0.04572  0.31608  1.0000
  C   C1278     1.0  0.63743  0.06641  0.29190  1.0000
  C   C1279     1.0  0.64313  0.06616  0.25992  1.0000
  C   C1280     1.0  0.64831  0.08212  0.24107  1.0000
  C   C1281     1.0  0.64833  0.09861  0.25427  1.0000
  C   C1282     1.0  0.64345  0.09925  0.28648  1.0000
  C   C1283     1.0  0.63813  0.08328  0.30533  1.0000
  C   C1284     1.0  0.61577  0.02362  0.29400  1.0000
  C   C1285     1.0  0.61221  0.00628  0.30775  1.0000
  H   H1013     1.0  0.52453  0.34485  0.20929  1.0000
  H   H1014     1.0  0.58122  0.05594  0.37062  1.0000
  H   H1015     1.0  0.58671  0.04469  0.42373  1.0000
  H   H1016     1.0  0.54236  0.06209  0.17248  1.0000
  H   H1017     1.0  0.63048  0.03398  0.38362  1.0000
  H   H1018     1.0  0.60042  0.05646  0.32397  1.0000
  H   H1019     1.0  0.65219  0.08170  0.21612  1.0000
  H   H1020     1.0  0.64344  0.11207  0.29654  1.0000
  H   H1021     1.0  0.63454  0.08420  0.33026  1.0000
  H   H1022     1.0  0.61888  0.00608  0.33098  1.0000
  C   C1286     1.0  0.70534  0.24663  0.17294  1.0000
  C   C1287     1.0  0.66930  0.23827  0.23884  1.0000
  H   H1023     1.0  0.50430  0.14931  0.22455  1.0000
  H   H1024     1.0  0.57640  0.45574  0.09560  1.0000
  H   H1025     1.0  0.48480  0.47344  0.40003  1.0000
  C   C1288     1.0  0.71187  0.25772  0.04006  1.0000
  C   C1289     1.0  0.58830  0.18201  0.25313  1.0000
  H   H1026     1.0  0.53825  0.34574  0.36028  1.0000
  H   H1027     1.0  0.69468  0.23009  0.35379  1.0000
  C   C1290     1.0  0.52931  0.12877  0.26101  1.0000
  C   C1291     1.0  0.67389  0.26609  0.35790  1.0000
  C   C1292     1.0  0.65957  0.03450  0.31381  1.0000
  H   H1028     1.0  0.64337  0.05356  0.24943  1.0000
  C   C1293     1.0  0.66439  0.05953  0.35386  1.0000
  H   H1029     1.0  0.60799  0.03651  0.25415  1.0000
  P   P43       1.0  0.51584  0.31325  0.25184  1.0000
  C   C1294     1.0  0.49701  0.43855  0.19532  1.0000
  C   C1295     1.0  0.56465  0.00263  0.47042  1.0000
  H   H1030     1.0  0.65136  0.02468  0.29394  1.0000
  H   H1031     1.0  0.65980  0.06915  0.36537  1.0000
  C   C1296     1.0  0.65302  0.04636  0.32914  1.0000
  C   C1297     1.0  0.50347  0.42535  0.20327  1.0000
  C   C1298     1.0  0.67697  0.03537  0.32386  1.0000
  C   C1299     1.0  0.57263  0.45272  0.06980  1.0000
  C   C1300     1.0  0.58065  0.45960  0.01365  1.0000
  C   C1301     1.0  0.56623  0.16460  0.99154  1.0000
  P   P44       1.0  0.55021  0.12534  0.25551  1.0000
  H   H1032     1.0  0.69057  0.41983  0.05347  1.0000
  H   H1033     1.0  0.61856  0.19519  0.26161  1.0000
  H   H1034     1.0  0.48202  0.43372  0.19053  1.0000
  H   H1035     1.0  0.58814  0.19505  0.24591  1.0000
  H   H1036     1.0  0.58974  0.13515  0.27444  1.0000
  H   H1037     1.0  0.70170  0.45305  0.03709  1.0000
  H   H1038     1.0  0.70631  0.40090  0.03338  1.0000
  C   C1302     1.0  0.55844  0.11590  0.31679  1.0000
  S   S169      1.0  0.48295  0.33696  0.10007  1.0000
  H   H1039     1.0  0.53846  0.35218  0.15558  1.0000
  S   S170      1.0  0.63722  0.47976  0.04173  1.0000
  H   H1040     1.0  0.66337  0.26623  0.18269  1.0000
  C   C1303     1.0  0.57145  0.16500  0.25208  1.0000
  H   H1041     1.0  0.49506  0.04994  0.34352  1.0000
  H   H1042     1.0  0.50005  0.22127  0.08428  1.0000
  S   S171      1.0  0.49357  0.34881  0.17811  1.0000
  C   C1304     1.0  0.57147  0.27031  0.00705  1.0000
  H   H1043     1.0  0.56997  0.13204  0.01021  1.0000
  C   C1305     1.0  0.70851  0.44475  0.02810  1.0000
  H   H1044     1.0  0.50902  0.05574  0.16704  1.0000
  H   H1045     1.0  0.54887  0.33047  0.12806  1.0000
  C   C1306     1.0  0.56156  0.35118  0.32945  1.0000
  H   H1046     1.0  0.54596  0.42841  0.07725  1.0000
  C   C1307     1.0  0.52857  0.33144  0.31312  1.0000
  C   C1308     1.0  0.55069  0.43329  0.02612  1.0000
  C   C1309     1.0  0.54496  0.47837  0.13025  1.0000
  H   H1047     1.0  0.59404  0.16660  0.00288  1.0000
  H   H1048     1.0  0.53770  0.46170  0.40054  1.0000
  C   C1310     1.0  0.69501  0.19412  0.26046  1.0000
  C   C1311     1.0  0.67817  0.18077  0.27303  1.0000
  H   H1049     1.0  0.54482  0.46994  0.07993  1.0000
  C   C1312     1.0  0.68047  0.26261  0.32850  1.0000
  H   H1050     1.0  0.66256  0.22368  0.24589  1.0000
  P   P45       1.0  0.69652  0.24496  0.28878  1.0000
  C   C1313     1.0  0.66114  0.24353  0.21291  1.0000
  C   C1314     1.0  0.68603  0.25172  0.25510  1.0000
  Fe  Fe86      1.0  0.48379  0.19761  0.15725  1.0000
  H   H1051     1.0  0.48227  0.06628  0.16565  1.0000
  C   C1315     1.0  0.53719  0.25493  0.00232  1.0000
  H   H1052     1.0  0.49353  0.41045  0.20434  1.0000
  H   H1053     1.0  0.71607  0.48033  0.18350  1.0000
  C   C1316     1.0  0.55242  0.48044  0.09932  1.0000
  C   C1317     1.0  0.68653  0.48309  0.04782  1.0000
  H   H1054     1.0  0.53467  0.20611  0.00281  1.0000
  C   C1318     1.0  0.48309  0.05893  0.26072  1.0000
  C   C1319     1.0  0.48294  0.10533  0.13834  1.0000
  H   H1055     1.0  0.55392  0.28030  0.03209  1.0000
  H   H1056     1.0  0.47996  0.99875  0.21072  1.0000
  C   C1320     1.0  0.47924  0.07096  0.28139  1.0000
  C   C1321     1.0  0.71721  0.24216  0.08638  1.0000
  C   C1322     1.0  0.72208  0.25873  0.28951  1.0000
  H   H1057     1.0  0.52377  0.25445  0.00849  1.0000
  C   C1323     1.0  0.72224  0.23110  0.06563  1.0000
  C   C1324     1.0  0.72214  0.23333  0.03205  1.0000
  H   H1058     1.0  0.51376  0.32521  0.31897  1.0000
  C   C1325     1.0  0.50731  0.28836  0.26047  1.0000
  C   C1326     1.0  0.49492  0.24977  0.27296  1.0000
  C   C1327     1.0  0.49946  0.33769  0.26186  1.0000
  C   C1328     1.0  0.59947  0.98904  0.29211  1.0000
  H   H1059     1.0  0.55840  0.48534  0.36231  1.0000
  C   C1329     1.0  0.72649  0.42353  0.00578  1.0000
  H   H1060     1.0  0.72361  0.25879  0.23709  1.0000
  H   H1061     1.0  0.48097  0.99406  0.14516  1.0000
  C   C1330     1.0  0.49734  0.27415  0.23622  1.0000
  C   C1331     1.0  0.49636  0.31932  0.25160  1.0000
  H   H1062     1.0  0.51851  0.29345  0.31050  1.0000
  H   H1063     1.0  0.48186  0.47135  0.28441  1.0000
  H   H1064     1.0  0.70321  0.18946  0.24526  1.0000
  C   C1332     1.0  0.51087  0.28296  0.29122  1.0000
  H   H1065     1.0  0.62250  0.48490  0.28210  1.0000
  C   C1333     1.0  0.63552  0.48578  0.27287  1.0000
  C   C1334     1.0  0.50466  0.26375  0.29740  1.0000
  H   H1066     1.0  0.50747  0.25967  0.32111  1.0000
  H   H1067     1.0  0.71355  0.22360  0.25475  1.0000
  H   H1068     1.0  0.72630  0.22477  0.01638  1.0000
  H   H1069     1.0  0.72619  0.22078  0.07569  1.0000
  C   C1335     1.0  0.49128  0.25498  0.24240  1.0000
  H   H1070     1.0  0.72847  0.46745  0.00085  1.0000
  H   H1071     1.0  0.48387  0.24413  0.22338  1.0000
  C   C1336     1.0  0.48460  0.34264  0.26061  1.0000
  H   H1072     1.0  0.48710  0.35692  0.26786  1.0000
  C   C1337     1.0  0.68614  0.48492  0.01413  1.0000
  C   C1338     1.0  0.54706  0.01904  0.48856  1.0000
  H   H1073     1.0  0.72607  0.26153  0.34216  1.0000
  H   H1074     1.0  0.49661  0.98663  0.38940  1.0000
  Fe  Fe87      1.0  0.66663  0.20001  0.84396  1.0000
  S   S172      1.0  0.65824  0.17379  0.87354  1.0000
  S   S173      1.0  0.69843  0.21796  0.83571  1.0000
  Fe  Fe88      1.0  0.62575  0.19499  0.84103  1.0000
  S   S174      1.0  0.61525  0.16934  0.87132  1.0000
  S   S175      1.0  0.60685  0.20870  0.82713  1.0000
  Fe  Fe89      1.0  0.64178  0.18535  0.90233  1.0000
  S   S176      1.0  0.64315  0.19357  0.95587  1.0000
  Fe  Fe90      1.0  0.63219  0.15956  0.83924  1.0000
  S   S177      1.0  0.61534  0.12734  0.82540  1.0000
  S   S178      1.0  0.65121  0.21185  0.87423  1.0000
  S   S179      1.0  0.64177  0.18495  0.80738  1.0000
  H   H1075     1.0  0.50749  0.39987  0.74693  1.0000
  Fe  Fe91      1.0  0.57188  0.03805  0.68371  1.0000
  C   C1339     1.0  0.56159  0.01735  0.78502  1.0000
  S   S180      1.0  0.59626  0.06554  0.70691  1.0000
  C   C1340     1.0  0.71463  0.20862  0.90971  1.0000
  S   S181      1.0  0.54260  0.02374  0.70258  1.0000
  S   S182      1.0  0.56221  0.04149  0.63330  1.0000
  C   C1341     1.0  0.55581  0.48293  0.67974  1.0000
  Fe  Fe92      1.0  0.50244  0.35719  0.84734  1.0000
  S   S183      1.0  0.53336  0.37432  0.86334  1.0000
  C   C1342     1.0  0.49725  0.40163  0.69884  1.0000
  Fe  Fe93      1.0  0.49525  0.16597  0.84177  1.0000
  S   S184      1.0  0.51896  0.15752  0.84528  1.0000
  S   S185      1.0  0.49517  0.19187  0.86413  1.0000
  C   C1343     1.0  0.52577  0.34057  0.92484  1.0000
  H   H1076     1.0  0.51928  0.05446  0.57721  1.0000
  Fe  Fe94      1.0  0.60578  0.47603  0.81277  1.0000
  S   S186      1.0  0.57814  0.45178  0.79362  1.0000
  H   H1077     1.0  0.63482  0.38442  0.66458  1.0000
  Fe  Fe95      1.0  0.53312  0.02578  0.65182  1.0000
  H   H1078     1.0  0.52910  0.04080  0.53098  1.0000
  C   C1344     1.0  0.54520  0.39641  0.84531  1.0000
  C   C1345     1.0  0.56262  0.41018  0.85900  1.0000
  C   C1346     1.0  0.57278  0.42747  0.84379  1.0000
  C   C1347     1.0  0.56565  0.43084  0.81454  1.0000
  C   C1348     1.0  0.54814  0.41714  0.80111  1.0000
  C   C1349     1.0  0.53781  0.40007  0.81662  1.0000
  H   H1079     1.0  0.56839  0.40738  0.88119  1.0000
  H   H1080     1.0  0.58625  0.43801  0.85433  1.0000
  H   H1081     1.0  0.54264  0.41964  0.77838  1.0000
  H   H1082     1.0  0.52442  0.38949  0.80583  1.0000
  C   C1350     1.0  0.70008  0.19209  0.92110  1.0000
  C   C1351     1.0  0.57269  0.41203  0.96050  1.0000
  C   C1352     1.0  0.57182  0.25645  0.98557  1.0000
  C   C1353     1.0  0.49302  0.46723  0.69261  1.0000
  H   H1083     1.0  0.55825  0.46692  0.75498  1.0000
  S   S187      1.0  0.51310  0.03816  0.64250  1.0000
  H   H1084     1.0  0.60632  0.20953  0.90672  1.0000
  C   C1354     1.0  0.50393  0.46127  0.81137  1.0000
  C   C1355     1.0  0.55107  0.01676  0.52144  1.0000
  H   H1085     1.0  0.54589  0.02232  0.54095  1.0000
  C   C1356     1.0  0.58232  0.19495  0.83210  1.0000
  C   C1357     1.0  0.57509  0.17576  0.83858  1.0000
  C   C1358     1.0  0.55583  0.16498  0.84391  1.0000
  C   C1359     1.0  0.54325  0.17287  0.84119  1.0000
  C   C1360     1.0  0.55025  0.19207  0.83411  1.0000
  C   C1361     1.0  0.56983  0.20313  0.82971  1.0000
  H   H1086     1.0  0.58428  0.16906  0.83906  1.0000
  H   H1087     1.0  0.55064  0.15035  0.84983  1.0000
  H   H1088     1.0  0.54066  0.19834  0.83185  1.0000
  H   H1089     1.0  0.57530  0.21798  0.82436  1.0000
  H   H1090     1.0  0.51476  0.07671  0.66294  1.0000
  H   H1091     1.0  0.49001  0.38631  0.69449  1.0000
  S   S188      1.0  0.57151  0.00988  0.66850  1.0000
  C   C1362     1.0  0.56248  0.33310  0.77699  1.0000
  P   P46       1.0  0.55829  0.43826  0.95996  1.0000
  C   C1363     1.0  0.60912  0.11104  0.79072  1.0000
  C   C1364     1.0  0.59402  0.09257  0.79266  1.0000
  C   C1365     1.0  0.58933  0.07873  0.76687  1.0000
  C   C1366     1.0  0.59983  0.08304  0.73872  1.0000
  C   C1367     1.0  0.61470  0.10160  0.73661  1.0000
  C   C1368     1.0  0.61918  0.11555  0.76215  1.0000
  H   H1092     1.0  0.58613  0.08885  0.81459  1.0000
  H   H1093     1.0  0.57803  0.06456  0.76926  1.0000
  H   H1094     1.0  0.62308  0.10514  0.71521  1.0000
  H   H1095     1.0  0.63088  0.12956  0.76018  1.0000
  C   C1369     1.0  0.71269  0.24296  0.84343  1.0000
  C   C1370     1.0  0.70533  0.25601  0.84090  1.0000
  H   H1096     1.0  0.69029  0.25088  0.83601  1.0000
  H   H1097     1.0  0.53242  0.03376  0.76764  1.0000
  C   C1371     1.0  0.56213  0.04090  0.88281  1.0000
  C   C1372     1.0  0.60018  0.21304  0.92755  1.0000
  C   C1373     1.0  0.49723  0.31804  0.94999  1.0000
  C   C1374     1.0  0.56206  0.00756  0.52912  1.0000
  C   C1375     1.0  0.51439  0.44109  0.71179  1.0000
  C   C1376     1.0  0.51558  0.42896  0.73513  1.0000
  C   C1377     1.0  0.56506  0.42503  0.71778  1.0000
  H   H1098     1.0  0.49378  0.28644  0.79838  1.0000
  P   P47       1.0  0.71732  0.24971  0.97562  1.0000
  S   S189      1.0  0.48326  0.33321  0.87755  1.0000
  H   H1099     1.0  0.48494  0.45320  0.70182  1.0000
  H   H1100     1.0  0.48098  0.07857  0.54552  1.0000
  H   H1101     1.0  0.51195  0.06430  0.71744  1.0000
  C   C1378     1.0  0.60335  0.41800  0.94080  1.0000
  C   C1379     1.0  0.58665  0.40612  0.95568  1.0000
  C   C1380     1.0  0.53677  0.05491  0.80536  1.0000
  C   C1381     1.0  0.50565  0.45909  0.77798  1.0000
  H   H1102     1.0  0.52810  0.38290  0.69239  1.0000
  H   H1103     1.0  0.56813  0.02067  0.85618  1.0000
  H   H1104     1.0  0.52458  0.99977  0.75579  1.0000
  S   S190      1.0  0.48357  0.37124  0.84704  1.0000
  H   H1105     1.0  0.55218  0.05894  0.90708  1.0000
  C   C1382     1.0  0.52699  0.18766  0.92482  1.0000
  C   C1383     1.0  0.53510  0.20109  0.95083  1.0000
  H   H1106     1.0  0.49419  0.24064  0.96812  1.0000
  P   P48       1.0  0.55508  0.22375  0.94457  1.0000
  H   H1107     1.0  0.48359  0.43195  0.90070  1.0000
  C   C1384     1.0  0.57592  0.22016  0.94998  1.0000
  H   H1108     1.0  0.59369  0.01139  0.73904  1.0000
  H   H1109     1.0  0.69072  0.45685  0.97613  1.0000
  C   C1385     1.0  0.60847  0.21490  0.95872  1.0000
  H   H1110     1.0  0.51002  0.01143  0.85059  1.0000
  C   C1386     1.0  0.63369  0.48317  0.97639  1.0000
  H   H1111     1.0  0.49183  0.11138  0.69440  1.0000
  C   C1387     1.0  0.55946  0.16653  0.93412  1.0000
  H   H1112     1.0  0.54627  0.98880  0.88863  1.0000
  C   C1388     1.0  0.59202  0.44160  0.93498  1.0000
  C   C1389     1.0  0.49615  0.39449  0.93632  1.0000
  C   C1390     1.0  0.55293  0.23236  0.90516  1.0000
  C   C1391     1.0  0.53512  0.22973  0.89314  1.0000
  C   C1392     1.0  0.53322  0.23651  0.86285  1.0000
  C   C1393     1.0  0.54912  0.24611  0.84450  1.0000
  C   C1394     1.0  0.56702  0.24943  0.85682  1.0000
  C   C1395     1.0  0.56899  0.24287  0.88728  1.0000
  H   H1113     1.0  0.54077  0.40263  0.91924  1.0000
  H   H1114     1.0  0.50241  0.03217  0.74607  1.0000
  C   C1396     1.0  0.69628  0.21047  0.96573  1.0000
  H   H1115     1.0  0.53242  0.19079  0.90064  1.0000
  H   H1116     1.0  0.72769  0.23442  0.76295  1.0000
  C   C1397     1.0  0.57671  0.16690  0.92661  1.0000
  H   H1117     1.0  0.48766  0.05315  0.57610  1.0000
  H   H1118     1.0  0.58471  0.39253  0.96426  1.0000
  C   C1398     1.0  0.50251  0.03121  0.50361  1.0000
  C   C1399     1.0  0.50970  0.04815  0.55606  1.0000
  H   H1119     1.0  0.68251  0.48247  0.88961  1.0000
  H   H1120     1.0  0.71176  0.28566  0.83947  1.0000
  H   H1121     1.0  0.53636  0.36991  0.94053  1.0000
  C   C1400     1.0  0.67048  0.25309  0.93799  1.0000
  H   H1122     1.0  0.52266  0.22232  0.90711  1.0000
  H   H1123     1.0  0.51936  0.23409  0.85328  1.0000
  H   H1124     1.0  0.54751  0.25099  0.82075  1.0000
  H   H1125     1.0  0.57939  0.25700  0.84268  1.0000
  H   H1126     1.0  0.58304  0.24601  0.89664  1.0000
  C   C1401     1.0  0.55748  0.09824  0.67719  1.0000
  C   C1402     1.0  0.55570  0.08127  0.68970  1.0000
  C   C1403     1.0  0.55269  0.07804  0.72271  1.0000
  C   C1404     1.0  0.55138  0.09172  0.74337  1.0000
  C   C1405     1.0  0.55304  0.10875  0.73096  1.0000
  C   C1406     1.0  0.55621  0.11197  0.69773  1.0000
  P   P49       1.0  0.55195  0.12697  0.75707  1.0000
  C   C1407     1.0  0.55183  0.12130  0.79954  1.0000
  C   C1408     1.0  0.57384  0.14834  0.75184  1.0000
  C   C1409     1.0  0.57471  0.16650  0.75450  1.0000
  C   C1410     1.0  0.59194  0.18277  0.75168  1.0000
  C   C1411     1.0  0.60842  0.18112  0.74601  1.0000
  C   C1412     1.0  0.60771  0.16315  0.74309  1.0000
  C   C1413     1.0  0.59056  0.14684  0.74607  1.0000
  C   C1414     1.0  0.56842  0.12282  0.81528  1.0000
  C   C1415     1.0  0.56879  0.11938  0.84841  1.0000
  C   C1416     1.0  0.55254  0.11426  0.86615  1.0000
  C   C1417     1.0  0.53581  0.11230  0.85061  1.0000
  C   C1418     1.0  0.53546  0.11583  0.81749  1.0000
  C   C1419     1.0  0.53101  0.12974  0.74625  1.0000
  C   C1420     1.0  0.52666  0.14237  0.76455  1.0000
  C   C1421     1.0  0.48347  0.47536  0.67475  1.0000
  C   C1422     1.0  0.58910  0.16700  0.95150  1.0000
  H   H1127     1.0  0.48888  0.41258  0.96666  1.0000
  C   C1423     1.0  0.51828  0.11857  0.72080  1.0000
  H   H1128     1.0  0.56014  0.10081  0.65166  1.0000
  H   H1129     1.0  0.55697  0.07073  0.67395  1.0000
  H   H1130     1.0  0.55184  0.06506  0.73225  1.0000
  H   H1131     1.0  0.54951  0.08914  0.76896  1.0000
  H   H1132     1.0  0.55791  0.12521  0.68783  1.0000
  H   H1133     1.0  0.56240  0.16842  0.75943  1.0000
  H   H1134     1.0  0.63776  0.47185  0.97393  1.0000
  H   H1135     1.0  0.62182  0.19379  0.74471  1.0000
  H   H1136     1.0  0.62058  0.16184  0.73940  1.0000
  H   H1137     1.0  0.59054  0.13311  0.74459  1.0000
  H   H1138     1.0  0.58123  0.12700  0.80217  1.0000
  H   H1139     1.0  0.58188  0.12107  0.86035  1.0000
  H   H1140     1.0  0.55305  0.11210  0.89199  1.0000
  H   H1141     1.0  0.52329  0.10881  0.86443  1.0000
  H   H1142     1.0  0.52263  0.11507  0.80657  1.0000
  H   H1143     1.0  0.53575  0.15055  0.78507  1.0000
  C   C1424     1.0  0.58369  0.21519  0.92327  1.0000
  C   C1425     1.0  0.47937  0.03941  0.52783  1.0000
  C   C1426     1.0  0.50170  0.12020  0.71374  1.0000
  H   H1144     1.0  0.52088  0.10838  0.70664  1.0000
  H   H1145     1.0  0.50023  0.01193  0.57687  1.0000
  C   C1427     1.0  0.54644  0.33021  0.79405  1.0000
  C   C1428     1.0  0.54215  0.34531  0.79983  1.0000
  C   C1429     1.0  0.55376  0.36323  0.78828  1.0000
  C   C1430     1.0  0.56986  0.36628  0.77104  1.0000
  C   C1431     1.0  0.57423  0.35109  0.76565  1.0000
  P   P50       1.0  0.58476  0.38966  0.75665  1.0000
  C   C1432     1.0  0.56996  0.39860  0.73662  1.0000
  C   C1433     1.0  0.59911  0.40567  0.78987  1.0000
  C   C1434     1.0  0.61479  0.42295  0.78331  1.0000
  C   C1435     1.0  0.62591  0.43544  0.80880  1.0000
  C   C1436     1.0  0.62169  0.43065  0.84104  1.0000
  C   C1437     1.0  0.60646  0.41329  0.84779  1.0000
  C   C1438     1.0  0.59514  0.40088  0.82237  1.0000
  C   C1439     1.0  0.57606  0.41823  0.73488  1.0000
  S   S191      1.0  0.52914  0.99702  0.63462  1.0000
  C   C1440     1.0  0.51075  0.98769  0.79998  1.0000
  H   H1146     1.0  0.72036  0.48016  0.90777  1.0000
  C   C1441     1.0  0.55257  0.38590  0.72105  1.0000
  C   C1442     1.0  0.60056  0.38803  0.72728  1.0000
  C   C1443     1.0  0.59569  0.38590  0.69380  1.0000
  C   C1444     1.0  0.60802  0.38461  0.67131  1.0000
  C   C1445     1.0  0.62525  0.38536  0.68205  1.0000
  C   C1446     1.0  0.63013  0.38731  0.71533  1.0000
  C   C1447     1.0  0.61782  0.38858  0.73790  1.0000
  Fe  Fe96      1.0  0.55922  0.01257  0.61928  1.0000
  C   C1448     1.0  0.50628  0.43032  0.87590  1.0000
  H   H1147     1.0  0.52985  0.34318  0.81339  1.0000
  H   H1148     1.0  0.55020  0.37475  0.79291  1.0000
  H   H1149     1.0  0.58658  0.35297  0.75259  1.0000
  H   H1150     1.0  0.61834  0.42690  0.75847  1.0000
  H   H1151     1.0  0.63772  0.44896  0.80358  1.0000
  H   H1152     1.0  0.63008  0.44054  0.86071  1.0000
  H   H1153     1.0  0.60300  0.40963  0.87271  1.0000
  H   H1154     1.0  0.58317  0.38777  0.82840  1.0000
  H   H1155     1.0  0.58916  0.42845  0.74692  1.0000
  H   H1156     1.0  0.49511  0.99201  0.72413  1.0000
  C   C1449     1.0  0.51028  0.14421  0.75717  1.0000
  H   H1157     1.0  0.48574  0.26549  0.98736  1.0000
  H   H1158     1.0  0.54755  0.37068  0.72172  1.0000
  H   H1159     1.0  0.58242  0.38525  0.68493  1.0000
  H   H1160     1.0  0.60423  0.38306  0.64550  1.0000
  C   C1450     1.0  0.60602  0.43572  0.93044  1.0000
  H   H1161     1.0  0.62179  0.38998  0.76362  1.0000
  C   C1451     1.0  0.51258  0.06565  0.80756  1.0000
  H   H1162     1.0  0.50521  0.44250  0.66224  1.0000
  C   C1452     1.0  0.54155  0.39277  0.70410  1.0000
  H   H1163     1.0  0.63498  0.15368  0.96298  1.0000
  P   P51       1.0  0.52521  0.46643  0.72060  1.0000
  H   H1164     1.0  0.64349  0.38788  0.72366  1.0000
  H   H1165     1.0  0.54591  0.48330  0.66150  1.0000
  C   C1453     1.0  0.67011  0.45217  0.88796  1.0000
  H   H1166     1.0  0.52225  0.43618  0.97918  1.0000
  H   H1167     1.0  0.49372  0.44833  0.76370  1.0000
  C   C1454     1.0  0.55481  0.24146  0.97293  1.0000
  H   H1168     1.0  0.50235  0.40967  0.80068  1.0000
  H   H1169     1.0  0.71655  0.44556  0.93962  1.0000
  C   C1455     1.0  0.48981  0.02194  0.65014  1.0000
  H   H1170     1.0  0.49190  0.15230  0.96411  1.0000
  C   C1456     1.0  0.68290  0.24606  0.94865  1.0000
  C   C1457     1.0  0.52277  0.47041  0.76338  1.0000
  S   S192      1.0  0.49088  0.34149  0.79907  1.0000
  C   C1458     1.0  0.70593  0.27795  0.96647  1.0000
  C   C1459     1.0  0.53779  0.48449  0.78252  1.0000
  H   H1171     1.0  0.55507  0.44013  0.89005  1.0000
  C   C1460     1.0  0.50693  0.40930  0.72869  1.0000
  H   H1172     1.0  0.60275  0.16792  0.94569  1.0000
  H   H1173     1.0  0.52624  0.42676  0.84551  1.0000
  S   S193      1.0  0.56802  0.00474  0.57028  1.0000
  H   H1174     1.0  0.52303  0.43465  0.75842  1.0000
  C   C1461     1.0  0.50556  0.43337  0.68116  1.0000
  C   C1462     1.0  0.58211  0.00793  0.75523  1.0000
  C   C1463     1.0  0.47924  0.23895  0.81006  1.0000
  C   C1464     1.0  0.63503  0.15999  0.98666  1.0000
  Fe  Fe97      1.0  0.54119  0.99571  0.68445  1.0000
  H   H1175     1.0  0.71959  0.28772  0.97755  1.0000
  C   C1465     1.0  0.48530  0.08772  0.78573  1.0000
  H   H1176     1.0  0.49578  0.25884  0.87043  1.0000
  C   C1466     1.0  0.49368  0.26042  0.89601  1.0000
  C   C1467     1.0  0.54788  0.41234  0.70225  1.0000
  H   H1177     1.0  0.56238  0.46663  0.85352  1.0000
  C   C1468     1.0  0.57666  0.02181  0.76447  1.0000
  C   C1469     1.0  0.56275  0.47367  0.73208  1.0000
  C   C1470     1.0  0.68482  0.45577  0.95171  1.0000
  C   C1471     1.0  0.50032  0.41051  0.95649  1.0000
  H   H1178     1.0  0.49264  0.48444  0.50402  1.0000
  H   H1179     1.0  0.55008  0.05569  0.81455  1.0000
  H   H1180     1.0  0.58075  0.16770  0.90160  1.0000
  H   H1181     1.0  0.56579  0.32137  0.77255  1.0000
  H   H1182     1.0  0.59192  0.48026  0.74238  1.0000
  H   H1183     1.0  0.51668  0.43761  0.89556  1.0000
  C   C1472     1.0  0.68022  0.47018  0.90325  1.0000
  H   H1184     1.0  0.58536  0.25756  0.97863  1.0000
  C   C1473     1.0  0.51170  0.42426  0.84764  1.0000
  H   H1185     1.0  0.65676  0.24339  0.92689  1.0000
  C   C1474     1.0  0.51155  0.35177  0.96594  1.0000
  H   H1186     1.0  0.66488  0.45099  0.86293  1.0000
  H   H1187     1.0  0.48803  0.08020  0.63651  1.0000
  C   C1475     1.0  0.48552  0.27637  0.93977  1.0000
  H   H1188     1.0  0.50720  0.15407  0.77164  1.0000
  C   C1476     1.0  0.47981  0.10034  0.80111  1.0000
  C   C1477     1.0  0.69354  0.28497  0.95554  1.0000
  H   H1189     1.0  0.67225  0.42516  0.94947  1.0000
  C   C1478     1.0  0.50176  0.07282  0.67556  1.0000
  C   C1479     1.0  0.52969  0.40489  0.93032  1.0000
  C   C1480     1.0  0.49050  0.25767  0.80049  1.0000
  H   H1190     1.0  0.70616  0.44313  0.88191  1.0000
  C   C1481     1.0  0.49175  0.04748  0.55523  1.0000
  C   C1482     1.0  0.50426  0.16568  0.96063  1.0000
  C   C1483     1.0  0.70078  0.25845  0.96286  1.0000
  C   C1484     1.0  0.49999  0.06543  0.70652  1.0000
  H   H1191     1.0  0.49855  0.09324  0.77352  1.0000
  H   H1192     1.0  0.53730  0.31628  0.80281  1.0000
  H   H1193     1.0  0.49677  0.99994  0.66574  1.0000
  C   C1485     1.0  0.51157  0.17005  0.92975  1.0000
  C   C1486     1.0  0.53403  0.42082  0.95111  1.0000
  C   C1487     1.0  0.55721  0.02468  0.86264  1.0000
  H   H1194     1.0  0.53650  0.34358  0.90704  1.0000
  C   C1488     1.0  0.52953  0.06629  0.81987  1.0000
  C   C1489     1.0  0.50989  0.04180  0.76669  1.0000
  C   C1490     1.0  0.69083  0.19302  0.94901  1.0000
  H   H1195     1.0  0.56981  0.44021  0.71705  1.0000
  H   H1196     1.0  0.58412  0.03601  0.75548  1.0000
  C   C1491     1.0  0.50284  0.05365  0.78044  1.0000
  C   C1492     1.0  0.49095  0.99682  0.57452  1.0000
  H   H1197     1.0  0.59264  0.19675  0.75498  1.0000
  C   C1493     1.0  0.49300  0.25033  0.95110  1.0000
  C   C1494     1.0  0.47944  0.41118  0.82522  1.0000
  C   C1495     1.0  0.48509  0.27225  0.80633  1.0000
  H   H1198     1.0  0.65919  0.42199  0.89271  1.0000
  S   S194      1.0  0.48648  0.22100  0.80094  1.0000
  C   C1496     1.0  0.57512  0.42968  0.94970  1.0000
  H   H1199     1.0  0.53721  0.07574  0.84045  1.0000
  H   H1200     1.0  0.48157  0.38425  0.93061  1.0000
  H   H1201     1.0  0.61912  0.44519  0.91960  1.0000
  C   C1497     1.0  0.52685  0.04255  0.77899  1.0000
  C   C1498     1.0  0.53749  0.24105  0.98089  1.0000
  H   H1202     1.0  0.51880  0.03976  0.88664  1.0000
  C   C1499     1.0  0.66707  0.43593  0.90465  1.0000
  H   H1203     1.0  0.50716  0.07445  0.81933  1.0000
  H   H1204     1.0  0.57672  0.04932  0.89159  1.0000
  C   C1500     1.0  0.51082  0.39168  0.92331  1.0000
  H   H1205     1.0  0.50756  0.37923  0.90770  1.0000
  H   H1206     1.0  0.48897  0.11554  0.80165  1.0000
  H   H1207     1.0  0.55016  0.16706  0.91476  1.0000
  C   C1501     1.0  0.51172  0.32192  0.92807  1.0000
  C   C1502     1.0  0.49830  0.41478  0.82228  1.0000
  H   H1208     1.0  0.51215  0.31083  0.91285  1.0000
  H   H1209     1.0  0.67843  0.23096  0.94540  1.0000
  H   H1210     1.0  0.66624  0.27794  0.93254  1.0000
  C   C1503     1.0  0.56876  0.00048  0.50333  1.0000
  C   C1504     1.0  0.49573  0.24830  0.91812  1.0000
  C   C1505     1.0  0.48669  0.07473  0.66064  1.0000
  C   C1506     1.0  0.48745  0.42686  0.87885  1.0000
  H   H1211     1.0  0.67904  0.18034  0.95721  1.0000
  C   C1507     1.0  0.55434  0.16563  0.96652  1.0000
  H   H1212     1.0  0.72111  0.20799  0.88716  1.0000
  H   H1213     1.0  0.53943  0.41771  0.68901  1.0000
  C   C1508     1.0  0.51517  0.04023  0.53012  1.0000
  C   C1509     1.0  0.56772  0.47627  0.94731  1.0000
  H   H1214     1.0  0.57707  0.21288  0.89909  1.0000
  H   H1215     1.0  0.55760  0.02830  0.79181  1.0000
  H   H1216     1.0  0.56018  0.40305  0.97332  1.0000
  H   H1217     1.0  0.50342  0.26088  0.78817  1.0000
  C   C1510     1.0  0.51920  0.42374  0.96367  1.0000
  H   H1218     1.0  0.72642  0.26502  0.75803  1.0000
  C   C1511     1.0  0.51275  0.47722  0.69853  1.0000
  H   H1219     1.0  0.62108  0.21295  0.96205  1.0000
  C   C1512     1.0  0.52566  0.35547  0.94367  1.0000
  H   H1220     1.0  0.69883  0.46918  0.82653  1.0000
  C   C1513     1.0  0.71114  0.22713  0.95476  1.0000
  C   C1514     1.0  0.52952  0.03551  0.88003  1.0000
  H   H1221     1.0  0.68852  0.21098  0.98675  1.0000
  S   S195      1.0  0.62540  0.47828  0.85480  1.0000
  C   C1515     1.0  0.71760  0.27578  0.84283  1.0000
  C   C1516     1.0  0.54830  0.04633  0.89150  1.0000
  C   C1517     1.0  0.56352  0.46929  0.87971  1.0000
  C   C1518     1.0  0.55953  0.45433  0.90046  1.0000
  C   C1519     1.0  0.53841  0.01384  0.85066  1.0000
  C   C1520     1.0  0.49776  0.13311  0.73181  1.0000
  C   C1521     1.0  0.56190  0.45774  0.93437  1.0000
  H   H1222     1.0  0.69556  0.17864  0.90770  1.0000
  H   H1223     1.0  0.49910  0.23713  0.90955  1.0000
  S   S196      1.0  0.47905  0.16637  0.79626  1.0000
  C   C1522     1.0  0.49676  0.41366  0.67493  1.0000
  H   H1224     1.0  0.48936  0.40766  0.65171  1.0000
  H   H1225     1.0  0.61435  0.41362  0.93778  1.0000
  C   C1523     1.0  0.67443  0.43773  0.93654  1.0000
  H   H1226     1.0  0.50516  0.15989  0.90946  1.0000
  H   H1227     1.0  0.59473  0.45568  0.92779  1.0000
  C   C1524     1.0  0.68759  0.47218  0.93534  1.0000
  C   C1525     1.0  0.52457  0.01937  0.85959  1.0000
  P   P52       1.0  0.53245  0.99338  0.82346  1.0000
  C   C1526     1.0  0.55183  0.99892  0.79658  1.0000
  C   C1527     1.0  0.49452  0.98849  0.74949  1.0000
  P   P53       1.0  0.48084  0.05227  0.76414  1.0000
  C   C1528     1.0  0.48554  0.00385  0.66094  1.0000
  C   C1529     1.0  0.49741  0.33317  0.96909  1.0000
  C   C1530     1.0  0.48459  0.03063  0.50262  1.0000
  C   C1531     1.0  0.51919  0.47480  0.83046  1.0000
  H   H1228     1.0  0.69772  0.30005  0.95796  1.0000
  H   H1229     1.0  0.51793  0.47622  0.85643  1.0000
  C   C1532     1.0  0.52826  0.19624  0.98215  1.0000
  C   C1533     1.0  0.58186  0.48104  0.72486  1.0000
  H   H1230     1.0  0.48659  0.28330  0.88888  1.0000
  C   C1534     1.0  0.72065  0.44623  0.88836  1.0000
  C   C1535     1.0  0.54970  0.47525  0.71017  1.0000
  H   H1231     1.0  0.57728  0.99332  0.50888  1.0000
  C   C1536     1.0  0.67582  0.27254  0.94125  1.0000
  C   C1537     1.0  0.48300  0.05972  0.72268  1.0000
  H   H1232     1.0  0.49078  0.45235  0.82244  1.0000
  H   H1233     1.0  0.54112  0.16570  0.97188  1.0000
  H   H1234     1.0  0.51139  0.36334  0.98050  1.0000
  H   H1235     1.0  0.48495  0.13442  0.72639  1.0000
  H   H1236     1.0  0.52419  0.23001  0.97046  1.0000
  C   C1538     1.0  0.48852  0.27433  0.90667  1.0000
  C   C1539     1.0  0.51274  0.17868  0.98693  1.0000
  H   H1237     1.0  0.56959  0.47939  0.97327  1.0000
  C   C1540     1.0  0.72013  0.22611  0.92638  1.0000
  C   C1541     1.0  0.57252  0.98959  0.76659  1.0000
  H   H1238     1.0  0.48658  0.33069  0.98643  1.0000
  C   C1542     1.0  0.48797  0.26432  0.96188  1.0000
  C   C1543     1.0  0.58406  0.16622  0.98391  1.0000
  C   C1544     1.0  0.58394  0.22130  0.98135  1.0000
  H   H1239     1.0  0.51256  0.99015  0.55683  1.0000
  C   C1545     1.0  0.51128  0.99292  0.76761  1.0000
  H   H1240     1.0  0.63155  0.48588  0.92463  1.0000
  C   C1546     1.0  0.72666  0.44774  0.92111  1.0000
  C   C1547     1.0  0.70729  0.48434  0.82469  1.0000
  S   S197      1.0  0.67274  0.48533  0.82242  1.0000
  C   C1548     1.0  0.60018  0.21870  0.98566  1.0000
  Fe  Fe98      1.0  0.56144  0.58617  0.35772  1.0000
  S   S198      1.0  0.56836  0.56181  0.34971  1.0000
  S   S199      1.0  0.56335  0.60193  0.40696  1.0000
  Fe  Fe99      1.0  0.54726  0.58393  0.28569  1.0000
  S   S200      1.0  0.55333  0.55924  0.27304  1.0000
  S   S201      1.0  0.53111  0.58964  0.24328  1.0000
  Fe  Fe100     1.0  0.54096  0.54812  0.32046  1.0000
  S   S202      1.0  0.52290  0.51685  0.32389  1.0000
  Fe  Fe101     1.0  0.58063  0.57449  0.30215  1.0000
  S   S203      1.0  0.60679  0.57069  0.28929  1.0000
  S   S204      1.0  0.53272  0.57124  0.33163  1.0000
  S   S205      1.0  0.57602  0.60056  0.31196  1.0000
  H   H1241     1.0  0.49247  0.67750  0.06262  1.0000
  C   C1549     1.0  0.67966  0.55563  0.25991  1.0000
  C   C1550     1.0  0.51356  0.65352  0.05448  1.0000
  S   S206      1.0  0.50713  0.65521  0.21404  1.0000
  C   C1551     1.0  0.53506  0.50395  0.20430  1.0000
  H   H1242     1.0  0.51236  0.69337  0.01632  1.0000
  C   C1552     1.0  0.56787  0.50608  0.25355  1.0000
  C   C1553     1.0  0.50550  0.78910  0.08526  1.0000
  C   C1554     1.0  0.50717  0.80880  0.04013  1.0000
  C   C1555     1.0  0.58373  0.51155  0.27477  1.0000
  C   C1556     1.0  0.49306  0.52478  0.31390  1.0000
  H   H1243     1.0  0.52157  0.89149  0.22325  1.0000
  H   H1244     1.0  0.59361  0.52094  0.11460  1.0000
  C   C1557     1.0  0.72080  0.49799  0.04918  1.0000
  S   S207      1.0  0.61371  0.49076  0.12180  1.0000
  C   C1558     1.0  0.51270  0.97353  0.46078  1.0000
  S   S208      1.0  0.54611  0.95229  0.28783  1.0000
  C   C1559     1.0  0.72306  0.49243  0.16850  1.0000
  H   H1245     1.0  0.67006  0.57701  0.25408  1.0000
  H   H1246     1.0  0.51457  0.85437  0.00210  1.0000
  Fe  Fe102     1.0  0.63645  0.51641  0.14908  1.0000
  C   C1560     1.0  0.70383  0.48960  0.06533  1.0000
  S   S209      1.0  0.62791  0.54019  0.15853  1.0000
  H   H1247     1.0  0.53645  0.94689  0.46138  1.0000
  C   C1561     1.0  0.59980  0.71793  0.09671  1.0000
  S   S210      1.0  0.65992  0.51694  0.11765  1.0000
  C   C1562     1.0  0.66919  0.50404  0.26412  1.0000
  H   H1248     1.0  0.67805  0.50815  0.32955  1.0000
  H   H1249     1.0  0.68151  0.48857  0.23765  1.0000
  C   C1563     1.0  0.49101  0.91707  0.13459  1.0000
  H   H1250     1.0  0.49344  0.55784  0.38538  1.0000
  H   H1251     1.0  0.51320  0.65542  0.02850  1.0000
  C   C1564     1.0  0.72049  0.50002  0.01547  1.0000
  C   C1565     1.0  0.49866  0.89723  0.23723  1.0000
  C   C1566     1.0  0.51780  0.90152  0.23544  1.0000
  C   C1567     1.0  0.53210  0.91844  0.25076  1.0000
  C   C1568     1.0  0.52757  0.93160  0.26738  1.0000
  C   C1569     1.0  0.50848  0.92760  0.26823  1.0000
  C   C1570     1.0  0.49417  0.91042  0.25386  1.0000
  H   H1252     1.0  0.59585  0.67817  0.05589  1.0000
  H   H1253     1.0  0.54677  0.92125  0.24996  1.0000
  H   H1254     1.0  0.50473  0.93755  0.28069  1.0000
  H   H1255     1.0  0.48289  0.63396  0.27864  1.0000
  H   H1256     1.0  0.50402  0.56866  0.46781  1.0000
  C   C1571     1.0  0.69644  0.53502  0.30889  1.0000
  C   C1572     1.0  0.52729  0.95285  0.46950  1.0000
  Fe  Fe103     1.0  0.54466  0.97890  0.30894  1.0000
  C   C1573     1.0  0.55499  0.49171  0.15571  1.0000
  H   H1257     1.0  0.70404  0.48816  0.09147  1.0000
  C   C1574     1.0  0.49921  0.51194  0.32551  1.0000
  C   C1575     1.0  0.56991  0.49580  0.09361  1.0000
  H   H1258     1.0  0.56543  0.57047  0.44114  1.0000
  H   H1259     1.0  0.50292  0.53770  0.30318  1.0000
  C   C1576     1.0  0.48359  0.93851  0.35331  1.0000
  C   C1577     1.0  0.52329  0.60730  0.23740  1.0000
  C   C1578     1.0  0.52978  0.62379  0.25748  1.0000
  C   C1579     1.0  0.52447  0.63814  0.25008  1.0000
  C   C1580     1.0  0.51229  0.63605  0.22302  1.0000
  C   C1581     1.0  0.50528  0.61928  0.20353  1.0000
  C   C1582     1.0  0.51092  0.60511  0.21053  1.0000
  H   H1260     1.0  0.53935  0.62577  0.27812  1.0000
  H   H1261     1.0  0.53002  0.65106  0.26529  1.0000
  C   C1583     1.0  0.50757  0.72357  0.05644  1.0000
  H   H1262     1.0  0.50591  0.59248  0.19473  1.0000
  C   C1584     1.0  0.61041  0.56006  0.25299  1.0000
  C   C1585     1.0  0.62250  0.55139  0.25446  1.0000
  C   C1586     1.0  0.62681  0.54393  0.22604  1.0000
  C   C1587     1.0  0.62003  0.54609  0.19546  1.0000
  C   C1588     1.0  0.60791  0.55474  0.19396  1.0000
  C   C1589     1.0  0.60277  0.56128  0.22253  1.0000
  H   H1263     1.0  0.62859  0.55044  0.27778  1.0000
  H   H1264     1.0  0.63600  0.53718  0.22769  1.0000
  H   H1265     1.0  0.60268  0.55666  0.17048  1.0000
  H   H1266     1.0  0.59365  0.56810  0.22087  1.0000
  C   C1590     1.0  0.61077  0.62713  0.48496  1.0000
  H   H1267     1.0  0.54142  0.67659  0.06252  1.0000
  C   C1591     1.0  0.62710  0.50469  0.01054  1.0000
  C   C1592     1.0  0.68282  0.54061  0.20989  1.0000
  C   C1593     1.0  0.56119  0.59529  0.44854  1.0000
  P   P54       1.0  0.69038  0.52658  0.26697  1.0000
  C   C1594     1.0  0.60819  0.60896  0.47564  1.0000
  H   H1268     1.0  0.51862  0.48752  0.24376  1.0000
  H   H1269     1.0  0.50439  0.50883  0.25589  1.0000
  H   H1270     1.0  0.57067  0.64121  0.23044  1.0000
  C   C1595     1.0  0.54975  0.48885  0.37841  1.0000
  H   H1271     1.0  0.51165  0.73151  0.00643  1.0000
  H   H1272     1.0  0.52566  0.56758  0.40968  1.0000
  S   S211      1.0  0.52433  0.97878  0.34615  1.0000
  H   H1273     1.0  0.54025  0.81965  0.00046  1.0000
  C   C1596     1.0  0.68834  0.52284  0.33445  1.0000
  C   C1597     1.0  0.60425  0.70656  0.07550  1.0000
  H   H1274     1.0  0.61707  0.71285  0.06201  1.0000
  S   S212      1.0  0.69024  0.49613  0.17305  1.0000
  C   C1598     1.0  0.50178  0.77385  0.06342  1.0000
  H   H1275     1.0  0.53325  0.54409  0.43617  1.0000
  C   C1599     1.0  0.53199  0.53270  0.19442  1.0000
  C   C1600     1.0  0.55850  0.60696  0.47223  1.0000
  S   S213      1.0  0.48418  0.72197  0.16600  1.0000
  Fe  Fe104     1.0  0.48502  0.65843  0.18106  1.0000
  C   C1601     1.0  0.50304  0.79347  0.01791  1.0000
  H   H1276     1.0  0.48727  0.93759  0.32837  1.0000
  H   H1277     1.0  0.62608  0.51009  0.03446  1.0000
  C   C1602     1.0  0.51395  0.51184  0.23612  1.0000
  C   C1603     1.0  0.70313  0.49370  0.99767  1.0000
  C   C1604     1.0  0.67294  0.56545  0.20785  1.0000
  C   C1605     1.0  0.49785  0.68271  0.01167  1.0000
  S   S214      1.0  0.49025  0.67827  0.13952  1.0000
  H   H1278     1.0  0.56673  0.66368  0.08693  1.0000
  P   P55       1.0  0.54611  0.48869  0.19625  1.0000
  H   H1279     1.0  0.51071  0.98367  0.44594  1.0000
  H   H1280     1.0  0.49906  0.71452  0.10492  1.0000
  H   H1281     1.0  0.72637  0.57486  0.35388  1.0000
  H   H1282     1.0  0.60959  0.63625  0.46673  1.0000
  H   H1283     1.0  0.48904  0.89971  0.09139  1.0000
  H   H1284     1.0  0.49589  0.61742  0.18270  1.0000
  H   H1285     1.0  0.71721  0.56312  0.29665  1.0000
  H   H1286     1.0  0.68726  0.52012  0.38644  1.0000
  Fe  Fe105     1.0  0.66348  0.49786  0.15418  1.0000
  H   H1287     1.0  0.55880  0.51686  0.36020  1.0000
  H   H1288     1.0  0.48494  0.63097  0.05380  1.0000
  H   H1289     1.0  0.58065  0.51748  0.16900  1.0000
  C   C1606     1.0  0.50244  0.92691  0.16223  1.0000
  C   C1607     1.0  0.51976  0.92667  0.16851  1.0000
  C   C1608     1.0  0.52575  0.91651  0.14744  1.0000
  C   C1609     1.0  0.50819  0.80656  0.07361  1.0000
  C   C1610     1.0  0.50202  0.85652  0.00178  1.0000
  C   C1611     1.0  0.49774  0.63772  0.10235  1.0000
  C   C1612     1.0  0.71618  0.51166  0.26538  1.0000
  C   C1613     1.0  0.57249  0.50715  0.14966  1.0000
  H   H1290     1.0  0.47949  0.90728  0.25594  1.0000
  H   H1291     1.0  0.49771  0.76399  0.01369  1.0000
  C   C1614     1.0  0.50053  0.77600  0.02990  1.0000
  P   P56       1.0  0.51160  0.50337  0.44496  1.0000
  H   H1292     1.0  0.60494  0.60406  0.45028  1.0000
  H   H1293     1.0  0.68561  0.52999  0.19716  1.0000
  H   H1294     1.0  0.49789  0.93456  0.17923  1.0000
  H   H1295     1.0  0.52835  0.93404  0.19016  1.0000
  H   H1296     1.0  0.53892  0.91590  0.15285  1.0000
  H   H1297     1.0  0.51912  0.89882  0.10343  1.0000
  H   H1298     1.0  0.50632  0.78740  0.11122  1.0000
  H   H1299     1.0  0.61033  0.51090  0.28360  1.0000
  H   H1300     1.0  0.70761  0.50198  0.28326  1.0000
  C   C1615     1.0  0.51478  0.55302  0.41116  1.0000
  S   S215      1.0  0.47977  0.87490  0.22244  1.0000
  C   C1616     1.0  0.55008  0.50666  0.37736  1.0000
  C   C1617     1.0  0.51376  0.64958  0.12179  1.0000
  C   C1618     1.0  0.52995  0.66329  0.10767  1.0000
  H   H1301     1.0  0.48527  0.62731  0.11349  1.0000
  P   P57       1.0  0.54994  0.67945  0.13338  1.0000
  C   C1619     1.0  0.54341  0.69710  0.14926  1.0000
  C   C1620     1.0  0.55598  0.66714  0.16455  1.0000
  C   C1621     1.0  0.56801  0.67749  0.19127  1.0000
  C   C1622     1.0  0.57326  0.66817  0.21499  1.0000
  C   C1623     1.0  0.56692  0.64854  0.21181  1.0000
  C   C1624     1.0  0.55543  0.63824  0.18481  1.0000
  C   C1625     1.0  0.55004  0.64747  0.16117  1.0000
  C   C1626     1.0  0.53876  0.69733  0.18188  1.0000
  C   C1627     1.0  0.53239  0.71018  0.19324  1.0000
  C   C1628     1.0  0.53081  0.72305  0.17223  1.0000
  C   C1629     1.0  0.53554  0.72303  0.13976  1.0000
  C   C1630     1.0  0.54157  0.70993  0.12816  1.0000
  C   C1631     1.0  0.57099  0.69028  0.11029  1.0000
  C   C1632     1.0  0.57576  0.67888  0.08949  1.0000
  C   C1633     1.0  0.52434  0.51357  0.48334  1.0000
  C   C1634     1.0  0.50533  0.52057  0.42697  1.0000
  C   C1635     1.0  0.67726  0.55217  0.19192  1.0000
  H   H1302     1.0  0.55738  0.51074  0.25951  1.0000
  C   C1636     1.0  0.71097  0.52498  0.25239  1.0000
  H   H1303     1.0  0.59632  0.97567  0.30313  1.0000
  H   H1304     1.0  0.49969  0.76031  0.07255  1.0000
  H   H1305     1.0  0.51345  0.64826  0.14793  1.0000
  C   C1637     1.0  0.69364  0.52953  0.36680  1.0000
  H   H1306     1.0  0.57324  0.69274  0.19390  1.0000
  H   H1307     1.0  0.58214  0.67612  0.23600  1.0000
  H   H1308     1.0  0.55043  0.62298  0.18264  1.0000
  H   H1309     1.0  0.54126  0.63916  0.14040  1.0000
  H   H1310     1.0  0.53945  0.68726  0.19847  1.0000
  H   H1311     1.0  0.52819  0.70978  0.21818  1.0000
  H   H1312     1.0  0.52546  0.73271  0.18095  1.0000
  H   H1313     1.0  0.53406  0.73289  0.12352  1.0000
  H   H1314     1.0  0.54453  0.70962  0.10267  1.0000
  C   C1638     1.0  0.49743  0.90739  0.11298  1.0000
  C   C1639     1.0  0.67414  0.56719  0.24182  1.0000
  C   C1640     1.0  0.51891  0.52830  0.21883  1.0000
  C   C1641     1.0  0.58330  0.70982  0.11425  1.0000
  H   H1315     1.0  0.58034  0.71879  0.13110  1.0000
  C   C1642     1.0  0.56605  0.49522  0.22482  1.0000
  C   C1643     1.0  0.48473  0.93136  0.40994  1.0000
  H   H1316     1.0  0.60923  0.73303  0.09977  1.0000
  C   C1644     1.0  0.68436  0.54244  0.24403  1.0000
  H   H1317     1.0  0.67576  0.55051  0.16562  1.0000
  H   H1318     1.0  0.71545  0.52652  0.13168  1.0000
  C   C1645     1.0  0.51462  0.90692  0.11963  1.0000
  C   C1646     1.0  0.48660  0.67374  0.03792  1.0000
  C   C1647     1.0  0.49762  0.63970  0.06871  1.0000
  C   C1648     1.0  0.52420  0.96553  0.45012  1.0000
  H   H1319     1.0  0.55715  0.61932  0.46466  1.0000
  C   C1649     1.0  0.65231  0.50282  0.27640  1.0000
  H   H1320     1.0  0.53883  0.52485  0.39523  1.0000
  C   C1650     1.0  0.59782  0.50617  0.26759  1.0000
  C   C1651     1.0  0.52207  0.49978  0.22912  1.0000
  C   C1652     1.0  0.48987  0.95685  0.12561  1.0000
  H   H1321     1.0  0.51105  0.81845  0.09048  1.0000
  C   C1653     1.0  0.48268  0.52877  0.39931  1.0000
  C   C1654     1.0  0.54005  0.52059  0.18714  1.0000
  C   C1655     1.0  0.49253  0.85527  0.03069  1.0000
  H   H1322     1.0  0.53103  0.96953  0.42711  1.0000
  C   C1656     1.0  0.48699  0.51529  0.41382  1.0000
  H   H1323     1.0  0.66791  0.57386  0.19384  1.0000
  H   H1324     1.0  0.50053  0.76254  0.16383  1.0000
  C   C1657     1.0  0.50171  0.72666  0.02576  1.0000
  C   C1658     1.0  0.51908  0.53963  0.42597  1.0000
  Fe  Fe106     1.0  0.48167  0.84416  0.10940  1.0000
  H   H1325     1.0  0.51322  0.53806  0.22531  1.0000
  C   C1659     1.0  0.71329  0.50264  0.15847  1.0000
  H   H1326     1.0  0.52207  0.72614  0.06099  1.0000
  C   C1660     1.0  0.53858  0.51114  0.39740  1.0000
  C   C1661     1.0  0.56298  0.57939  0.45885  1.0000
  S   S216      1.0  0.50128  0.85063  0.06754  1.0000
  C   C1662     1.0  0.48531  0.75725  0.16240  1.0000
  C   C1663     1.0  0.52957  0.66547  0.07390  1.0000
  H   H1327     1.0  0.53637  0.54586  0.18195  1.0000
  H   H1328     1.0  0.48928  0.92485  0.42888  1.0000
  C   C1664     1.0  0.66892  0.48800  0.24810  1.0000
  H   H1329     1.0  0.67974  0.55672  0.28617  1.0000
  S   S217      1.0  0.64196  0.49971  0.18752  1.0000
  H   H1330     1.0  0.58539  0.52053  0.29623  1.0000
  C   C1665     1.0  0.52657  0.49781  0.41875  1.0000
  C   C1666     1.0  0.72265  0.51840  0.13938  1.0000
  H   H1331     1.0  0.65209  0.51515  0.28814  1.0000
  C   C1667     1.0  0.71042  0.55371  0.31612  1.0000
  H   H1332     1.0  0.57981  0.97564  0.25124  1.0000
  C   C1668     1.0  0.72264  0.53771  0.22987  1.0000
  H   H1333     1.0  0.48961  0.60632  0.28335  1.0000
  H   H1334     1.0  0.57591  0.49721  0.06988  1.0000
  Fe  Fe107     1.0  0.63733  0.48975  0.09407  1.0000
  H   H1335     1.0  0.55051  0.52456  0.16875  1.0000
  H   H1336     1.0  0.50967  0.82260  0.03171  1.0000
  H   H1337     1.0  0.49712  0.92217  0.37149  1.0000
  H   H1338     1.0  0.48694  0.78540  0.16136  1.0000
  C   C1669     1.0  0.49460  0.71687  0.08105  1.0000
  C   C1670     1.0  0.59227  0.68703  0.07200  1.0000
  C   C1671     1.0  0.57988  0.50918  0.11875  1.0000
  H   H1339     1.0  0.50134  0.95420  0.11726  1.0000
  C   C1672     1.0  0.58037  0.49003  0.21772  1.0000
  C   C1673     1.0  0.49662  0.54756  0.39762  1.0000
  S   S218      1.0  0.48841  0.83645  0.15900  1.0000
  C   C1674     1.0  0.71568  0.56036  0.34848  1.0000
  H   H1340     1.0  0.48082  0.81527  0.00622  1.0000
  C   C1675     1.0  0.48916  0.92984  0.37767  1.0000
  H   H1341     1.0  0.71135  0.55346  0.39890  1.0000
  C   C1676     1.0  0.70724  0.54830  0.37382  1.0000
  C   C1677     1.0  0.48629  0.49488  0.33810  1.0000
  C   C1678     1.0  0.63239  0.49007  0.00752  1.0000
  H   H1342     1.0  0.71939  0.54849  0.22004  1.0000
  H   H1343     1.0  0.48545  0.55686  0.18119  1.0000
  H   H1344     1.0  0.54232  0.49954  0.48099  1.0000
  C   C1679     1.0  0.49296  0.97565  0.13040  1.0000
  H   H1345     1.0  0.60722  0.49165  0.23276  1.0000
  C   C1680     1.0  0.59615  0.49546  0.23902  1.0000
  C   C1681     1.0  0.48291  0.72308  0.01976  1.0000
  S   S219      1.0  0.50703  0.69618  0.85108  1.0000
  H   H1346     1.0  0.52981  0.76833  0.89806  1.0000
  C   C1682     1.0  0.50865  0.57015  0.51976  1.0000
  H   H1347     1.0  0.69164  0.69621  0.57884  1.0000
  H   H1348     1.0  0.50065  0.80139  0.82210  1.0000
  C   C1683     1.0  0.53765  0.97488  0.87728  1.0000
  H   H1349     1.0  0.49904  0.56578  0.78572  1.0000
  C   C1684     1.0  0.65842  0.64998  0.56811  1.0000
  C   C1685     1.0  0.52912  0.97284  0.84607  1.0000
  S   S220      1.0  0.51755  0.89713  0.79201  1.0000
  H   H1350     1.0  0.55755  0.96801  0.60579  1.0000
  C   C1686     1.0  0.69246  0.51139  0.94225  1.0000
  S   S221      1.0  0.48237  0.55437  0.63221  1.0000
  C   C1687     1.0  0.54872  0.51746  0.52427  1.0000
  S   S222      1.0  0.52319  0.96880  0.71265  1.0000
  Fe  Fe108     1.0  0.54529  0.60577  0.67221  1.0000
  S   S223      1.0  0.53030  0.59818  0.62248  1.0000
  S   S224      1.0  0.55050  0.63292  0.70196  1.0000
  Fe  Fe109     1.0  0.54886  0.56855  0.67513  1.0000
  S   S225      1.0  0.53287  0.55789  0.62691  1.0000
  S   S226      1.0  0.55544  0.54721  0.70297  1.0000
  Fe  Fe110     1.0  0.55081  0.58693  0.60826  1.0000
  S   S227      1.0  0.56146  0.58275  0.55831  1.0000
  Fe  Fe111     1.0  0.51371  0.56980  0.64371  1.0000
  H   H1351     1.0  0.65229  0.62877  0.62272  1.0000
  S   S228      1.0  0.56790  0.59724  0.65647  1.0000
  S   S229      1.0  0.52754  0.57770  0.69375  1.0000
  Fe  Fe112     1.0  0.62805  0.51756  0.79609  1.0000
  C   C1688     1.0  0.48693  0.75889  0.95097  1.0000
  S   S230      1.0  0.62768  0.54049  0.76318  1.0000
  S   S231      1.0  0.49785  0.85847  0.86224  1.0000
  C   C1689     1.0  0.52248  0.49586  0.68796  1.0000
  S   S232      1.0  0.60364  0.50241  0.82764  1.0000
  H   H1352     1.0  0.50794  0.92438  0.83728  1.0000
  S   S233      1.0  0.65018  0.52347  0.83690  1.0000
  C   C1690     1.0  0.52448  0.94059  0.87972  1.0000
  H   H1353     1.0  0.56250  0.56516  0.88581  1.0000
  Fe  Fe113     1.0  0.48408  0.70530  0.84159  1.0000
  C   C1691     1.0  0.49757  0.77278  0.82582  1.0000
  H   H1354     1.0  0.53746  0.50436  0.69362  1.0000
  C   C1692     1.0  0.58152  0.53668  0.83316  1.0000
  H   H1355     1.0  0.52952  0.79465  0.93125  1.0000
  C   C1693     1.0  0.69548  0.51879  0.91101  1.0000
  H   H1356     1.0  0.70277  0.52491  0.81845  1.0000
  C   C1694     1.0  0.62389  0.58514  0.65010  1.0000
  H   H1357     1.0  0.49934  0.77712  0.72098  1.0000
  C   C1695     1.0  0.51601  0.93848  0.84867  1.0000
  C   C1696     1.0  0.56011  0.58738  0.51609  1.0000
  C   C1697     1.0  0.55783  0.60299  0.50564  1.0000
  C   C1698     1.0  0.49344  0.49361  0.66316  1.0000
  C   C1699     1.0  0.67609  0.53458  0.92189  1.0000
  P   P58       1.0  0.49548  0.94896  0.54818  1.0000
  H   H1358     1.0  0.55585  0.61224  0.52330  1.0000
  H   H1359     1.0  0.48954  0.91093  0.77457  1.0000
  C   C1700     1.0  0.57595  0.54598  0.71924  1.0000
  C   C1701     1.0  0.59434  0.56072  0.71732  1.0000
  C   C1702     1.0  0.60998  0.55887  0.73098  1.0000
  C   C1703     1.0  0.60747  0.54231  0.74681  1.0000
  C   C1704     1.0  0.58906  0.52765  0.74880  1.0000
  C   C1705     1.0  0.57349  0.52948  0.73502  1.0000
  H   H1360     1.0  0.59650  0.57355  0.70541  1.0000
  H   H1361     1.0  0.62414  0.57036  0.72941  1.0000
  H   H1362     1.0  0.58687  0.51486  0.76086  1.0000
  H   H1363     1.0  0.55938  0.51811  0.73687  1.0000
  H   H1364     1.0  0.58600  0.55611  0.90952  1.0000
  H   H1365     1.0  0.56385  0.64663  0.63619  1.0000
  C   C1706     1.0  0.50429  0.70735  0.75619  1.0000
  H   H1366     1.0  0.58735  0.52925  0.81831  1.0000
  C   C1707     1.0  0.51461  0.94268  0.63812  1.0000
  C   C1708     1.0  0.51847  0.91647  0.76875  1.0000
  C   C1709     1.0  0.50287  0.92017  0.76423  1.0000
  C   C1710     1.0  0.50454  0.93602  0.74665  1.0000
  C   C1711     1.0  0.52177  0.94844  0.73318  1.0000
  C   C1712     1.0  0.53719  0.94441  0.73684  1.0000
  C   C1713     1.0  0.53558  0.92868  0.75468  1.0000
  H   H1367     1.0  0.48731  0.61623  0.74587  1.0000
  H   H1368     1.0  0.49242  0.93881  0.74383  1.0000
  H   H1369     1.0  0.55041  0.95349  0.72612  1.0000
  C   C1714     1.0  0.50289  0.74744  0.91353  1.0000
  H   H1370     1.0  0.51109  0.77620  0.81546  1.0000
  H   H1371     1.0  0.49663  0.49220  0.80095  1.0000
  H   H1372     1.0  0.49052  0.49560  0.74266  1.0000
  C   C1715     1.0  0.60593  0.59557  0.61447  1.0000
  Fe  Fe114     1.0  0.62533  0.50612  0.86704  1.0000
  C   C1716     1.0  0.50824  0.64360  0.76541  1.0000
  C   C1717     1.0  0.50206  0.62665  0.74609  1.0000
  C   C1718     1.0  0.51475  0.62305  0.72691  1.0000
  C   C1719     1.0  0.53385  0.63651  0.72631  1.0000
  C   C1720     1.0  0.54001  0.65345  0.74560  1.0000
  C   C1721     1.0  0.52737  0.65695  0.76509  1.0000
  Fe  Fe115     1.0  0.49133  0.68382  0.89638  1.0000
  H   H1373     1.0  0.50971  0.60997  0.71227  1.0000
  H   H1374     1.0  0.55471  0.66398  0.74549  1.0000
  H   H1375     1.0  0.53245  0.67002  0.77979  1.0000
  C   C1722     1.0  0.58087  0.55200  0.88443  1.0000
  C   C1723     1.0  0.50291  0.94148  0.61118  1.0000
  C   C1724     1.0  0.58795  0.54187  0.86557  1.0000
  H   H1376     1.0  0.50847  0.93692  0.66101  1.0000
  C   C1725     1.0  0.68718  0.53015  0.90081  1.0000
  H   H1377     1.0  0.50358  0.82300  0.92377  1.0000
  C   C1726     1.0  0.51772  0.78059  0.93210  1.0000
  C   C1727     1.0  0.55738  0.98504  0.78706  1.0000
  H   H1378     1.0  0.48917  0.55638  0.87649  1.0000
  H   H1379     1.0  0.48770  0.93477  0.61361  1.0000
  C   C1728     1.0  0.50224  0.56115  0.54881  1.0000
  H   H1380     1.0  0.52885  0.85403  0.90979  1.0000
  H   H1381     1.0  0.49412  0.72809  0.76122  1.0000
  C   C1729     1.0  0.63004  0.49099  0.94840  1.0000
  H   H1382     1.0  0.49233  0.97364  0.83898  1.0000
  C   C1730     1.0  0.60916  0.59691  0.49911  1.0000
  H   H1383     1.0  0.66503  0.53139  0.96975  1.0000
  H   H1384     1.0  0.58501  0.62781  0.55549  1.0000
  H   H1385     1.0  0.48758  0.74249  0.71204  1.0000
  H   H1386     1.0  0.51047  0.68359  0.74972  1.0000
  C   C1731     1.0  0.51827  0.95451  0.83197  1.0000
  H   H1387     1.0  0.51787  0.71648  0.76831  1.0000
  C   C1732     1.0  0.67362  0.52793  0.95339  1.0000
  C   C1733     1.0  0.58690  0.63313  0.58045  1.0000
  H   H1388     1.0  0.56076  0.63532  0.57843  1.0000
  C   C1734     1.0  0.49049  0.67785  0.97946  1.0000
  C   C1735     1.0  0.50087  0.50767  0.75729  1.0000
  C   C1736     1.0  0.51082  0.94933  0.58173  1.0000
  H   H1389     1.0  0.54772  0.92595  0.75765  1.0000
  H   H1390     1.0  0.68755  0.66528  0.55518  1.0000
  H   H1391     1.0  0.48113  0.53704  0.57142  1.0000
  C   C1737     1.0  0.55188  0.84470  0.97253  1.0000
  C   C1738     1.0  0.64551  0.66865  0.59593  1.0000
  H   H1392     1.0  0.55254  0.53701  0.56481  1.0000
  C   C1739     1.0  0.54447  0.53013  0.54244  1.0000
  H   H1393     1.0  0.56460  0.56360  0.49991  1.0000
  H   H1394     1.0  0.65677  0.63660  0.55742  1.0000
  C   C1740     1.0  0.53007  0.53438  0.53135  1.0000
  H   H1395     1.0  0.48795  0.54961  0.69999  1.0000
  H   H1396     1.0  0.56002  0.51432  0.53276  1.0000
  C   C1741     1.0  0.58804  0.48971  0.69542  1.0000
  H   H1397     1.0  0.50831  0.52674  0.71768  1.0000
  C   C1742     1.0  0.53131  0.84649  0.92959  1.0000
  H   H1398     1.0  0.54788  0.49716  0.83060  1.0000
  H   H1399     1.0  0.61586  0.64259  0.64841  1.0000
  C   C1743     1.0  0.67815  0.68362  0.58002  1.0000
  H   H1400     1.0  0.56540  0.85088  0.98604  1.0000
  S   S234      1.0  0.62084  0.51623  0.91658  1.0000
  C   C1744     1.0  0.70943  0.51564  0.82015  1.0000
  C   C1745     1.0  0.61523  0.62123  0.54155  1.0000
  C   C1746     1.0  0.60410  0.64133  0.63273  1.0000
  H   H1401     1.0  0.51005  0.56751  0.57155  1.0000
  H   H1402     1.0  0.59392  0.56900  0.63861  1.0000
  Fe  Fe116     1.0  0.64937  0.49530  0.82206  1.0000
  H   H1403     1.0  0.50608  0.59969  0.79391  1.0000
  H   H1404     1.0  0.53717  0.96603  0.55827  1.0000
  C   C1747     1.0  0.51800  0.76571  0.91330  1.0000
  H   H1405     1.0  0.54329  0.95350  0.65741  1.0000
  H   H1406     1.0  0.59252  0.59293  0.60275  1.0000
  H   H1407     1.0  0.63392  0.67011  0.60669  1.0000
  H   H1408     1.0  0.52126  0.93816  0.51422  1.0000
  H   H1409     1.0  0.68917  0.53532  0.87635  1.0000
  H   H1410     1.0  0.52063  0.51825  0.66178  1.0000
  C   C1748     1.0  0.49311  0.97802  0.81411  1.0000
  H   H1411     1.0  0.59121  0.65004  0.67108  1.0000
  H   H1412     1.0  0.57976  0.49697  0.64967  1.0000
  S   S235      1.0  0.49385  0.73629  0.82740  1.0000
  C   C1749     1.0  0.53528  0.95878  0.89405  1.0000
  C   C1750     1.0  0.64025  0.60203  0.64556  1.0000
  C   C1751     1.0  0.49072  0.71392  0.75205  1.0000
  C   C1752     1.0  0.48813  0.56939  0.79391  1.0000
  Fe  Fe117     1.0  0.49324  0.87410  0.81946  1.0000
  C   C1753     1.0  0.54228  0.96015  0.60705  1.0000
  C   C1754     1.0  0.60671  0.58196  0.63470  1.0000
  C   C1755     1.0  0.51695  0.82886  0.93772  1.0000
  C   C1756     1.0  0.56756  0.55716  0.87077  1.0000
  H   H1413     1.0  0.48112  0.60806  0.81087  1.0000
  C   C1757     1.0  0.53756  0.82703  0.98072  1.0000
  P   P59       1.0  0.50121  0.79652  0.97460  1.0000
  H   H1414     1.0  0.57365  0.49952  0.87677  1.0000
  C   C1758     1.0  0.56257  0.57558  0.49233  1.0000
  H   H1415     1.0  0.59861  0.53824  0.87594  1.0000
  H   H1416     1.0  0.50310  0.86227  0.95046  1.0000
  C   C1759     1.0  0.53429  0.95205  0.63610  1.0000
  C   C1760     1.0  0.56109  0.55205  0.83810  1.0000
  C   C1761     1.0  0.56802  0.54155  0.81959  1.0000
  P   P60       1.0  0.54467  0.55930  0.81908  1.0000
  C   C1762     1.0  0.52750  0.53912  0.79487  1.0000
  C   C1763     1.0  0.53297  0.56709  0.84885  1.0000
  C   C1764     1.0  0.51334  0.55697  0.85275  1.0000
  C   C1765     1.0  0.50434  0.56413  0.87389  1.0000
  C   C1766     1.0  0.51481  0.58144  0.89120  1.0000
  C   C1767     1.0  0.53431  0.59163  0.88740  1.0000
  C   C1768     1.0  0.54334  0.58454  0.86625  1.0000
  C   C1769     1.0  0.52380  0.54091  0.76194  1.0000
  C   C1770     1.0  0.51074  0.52520  0.74323  1.0000
  H   H1417     1.0  0.51182  0.95261  0.80776  1.0000
  C   C1771     1.0  0.50435  0.50578  0.79013  1.0000
  C   C1772     1.0  0.51786  0.52136  0.80879  1.0000
  C   C1773     1.0  0.55681  0.57897  0.79305  1.0000
  C   C1774     1.0  0.57322  0.58132  0.77738  1.0000
  C   C1775     1.0  0.58185  0.59613  0.75615  1.0000
  C   C1776     1.0  0.57421  0.60868  0.75043  1.0000
  C   C1777     1.0  0.55794  0.60645  0.76597  1.0000
  C   C1778     1.0  0.54915  0.59158  0.78687  1.0000
  C   C1779     1.0  0.63949  0.61572  0.62542  1.0000
  H   H1418     1.0  0.56330  0.53753  0.79435  1.0000
  H   H1419     1.0  0.50479  0.54381  0.83903  1.0000
  S   S236      1.0  0.50518  0.68891  0.94703  1.0000
  H   H1420     1.0  0.50781  0.58707  0.90734  1.0000
  H   H1421     1.0  0.54240  0.60518  0.90050  1.0000
  H   H1422     1.0  0.55840  0.59286  0.86292  1.0000
  H   H1423     1.0  0.53124  0.55427  0.75023  1.0000
  C   C1780     1.0  0.48232  0.67683  0.73135  1.0000
  C   C1781     1.0  0.50749  0.95631  0.51062  1.0000
  C   C1782     1.0  0.50426  0.96887  0.49079  1.0000
  H   H1424     1.0  0.52070  0.51964  0.83407  1.0000
  H   H1425     1.0  0.57926  0.57163  0.78083  1.0000
  H   H1426     1.0  0.59436  0.59772  0.74381  1.0000
  H   H1427     1.0  0.58072  0.62003  0.73368  1.0000
  H   H1428     1.0  0.55198  0.61614  0.76145  1.0000
  H   H1429     1.0  0.53626  0.58988  0.79782  1.0000
  H   H1430     1.0  0.62448  0.57455  0.66574  1.0000
  C   C1783     1.0  0.50218  0.77727  0.95121  1.0000
  C   C1784     1.0  0.66297  0.68485  0.59452  1.0000
  H   H1431     1.0  0.52133  0.58359  0.52005  1.0000
  C   C1785     1.0  0.53062  0.95890  0.57998  1.0000
  H   H1432     1.0  0.52713  0.54453  0.54518  1.0000
  C   C1786     1.0  0.51293  0.50386  0.66986  1.0000
  C   C1787     1.0  0.49211  0.58846  0.79849  1.0000
  H   H1433     1.0  0.54198  0.96037  0.91802  1.0000
  C   C1788     1.0  0.62486  0.50567  0.95131  1.0000
  H   H1434     1.0  0.65351  0.60453  0.65785  1.0000
  C   C1789     1.0  0.60268  0.63535  0.59985  1.0000
  H   H1435     1.0  0.57726  0.50568  0.93647  1.0000
  C   C1790     1.0  0.50011  0.68883  0.74582  1.0000
  C   C1791     1.0  0.57302  0.63731  0.59345  1.0000
  H   H1436     1.0  0.55000  0.97063  0.79500  1.0000
  H   H1437     1.0  0.55978  0.86818  0.94082  1.0000
  C   C1792     1.0  0.49169  0.78714  0.82957  1.0000
  C   C1793     1.0  0.64317  0.65102  0.58306  1.0000
  S   S237      1.0  0.49142  0.64719  0.78922  1.0000
  H   H1438     1.0  0.70398  0.51552  0.89413  1.0000
  H   H1439     1.0  0.61655  0.64751  0.52453  1.0000
  C   C1794     1.0  0.67585  0.66620  0.56674  1.0000
  C   C1795     1.0  0.48732  0.74403  0.93228  1.0000
  C   C1796     1.0  0.61261  0.60296  0.53198  1.0000
  C   C1797     1.0  0.51990  0.81910  0.96363  1.0000
  C   C1798     1.0  0.57178  0.49123  0.92648  1.0000
  H   H1440     1.0  0.61307  0.59328  0.54965  1.0000
  C   C1799     1.0  0.62232  0.61249  0.60945  1.0000
  H   H1441     1.0  0.52279  0.92809  0.89245  1.0000
  Fe  Fe118     1.0  0.48746  0.66805  0.82533  1.0000
  C   C1800     1.0  0.57498  0.49043  0.67267  1.0000
  H   H1442     1.0  0.57666  0.97879  0.75920  1.0000
  H   H1443     1.0  0.50314  0.73600  0.89871  1.0000
  C   C1801     1.0  0.57474  0.64364  0.62597  1.0000
  H   H1444     1.0  0.66927  0.54302  0.91378  1.0000
  C   C1802     1.0  0.72568  0.50521  0.93769  1.0000
  C   C1803     1.0  0.48575  0.54391  0.54865  1.0000
  C   C1804     1.0  0.61450  0.63334  0.51772  1.0000
  P   P61       1.0  0.62069  0.62989  0.58356  1.0000
  C   C1805     1.0  0.48606  0.75402  0.83483  1.0000
  H   H1445     1.0  0.66469  0.69841  0.60449  1.0000
  H   H1446     1.0  0.55100  0.49370  0.77195  1.0000
  H   H1447     1.0  0.61933  0.52380  0.98488  1.0000
  C   C1806     1.0  0.54873  0.85445  0.94706  1.0000
  C   C1807     1.0  0.59025  0.64561  0.64563  1.0000
  C   C1808     1.0  0.69816  0.49605  0.82249  1.0000
  C   C1809     1.0  0.68169  0.51634  0.96357  1.0000
  H   H1448     1.0  0.48146  0.78957  0.75442  1.0000
  C   C1810     1.0  0.72727  0.49199  0.82388  1.0000
  C   C1811     1.0  0.62324  0.51238  0.98245  1.0000
  H   H1449     1.0  0.48716  0.50915  0.53853  1.0000
  C   C1812     1.0  0.52004  0.52616  0.50195  1.0000
  H   H1450     1.0  0.49527  0.97510  0.49828  1.0000
  P   P62       1.0  0.70231  0.49559  0.95386  1.0000
  H   H1451     1.0  0.48933  0.91068  0.56660  1.0000
  C   C1813     1.0  0.53605  0.48654  0.81596  1.0000
  C   C1814     1.0  0.49550  0.86090  0.97247  1.0000
  S   S238      1.0  0.62928  0.49080  0.77864  1.0000
  H   H1452     1.0  0.48603  0.50002  0.64967  1.0000
  C   C1815     1.0  0.48613  0.96472  0.56197  1.0000
  C   C1816     1.0  0.51884  0.94812  0.49953  1.0000
  H   H1453     1.0  0.60296  0.49586  0.69033  1.0000
  C   C1817     1.0  0.48630  0.76733  0.73157  1.0000
  C   C1818     1.0  0.49790  0.98441  0.56351  1.0000
  C   C1819     1.0  0.56980  0.48777  0.89275  1.0000
  C   C1820     1.0  0.49875  0.56177  0.49039  1.0000
  C   C1821     1.0  0.48213  0.54456  0.49016  1.0000
  C   C1822     1.0  0.47974  0.86446  0.97224  1.0000
  H   H1454     1.0  0.47902  0.66230  0.72432  1.0000
  H   H1455     1.0  0.50913  0.52986  0.49357  1.0000
  C   C1823     1.0  0.53868  0.50916  0.49484  1.0000
  H   H1456     1.0  0.49252  0.48778  0.57531  1.0000
  C   C1824     1.0  0.47913  0.79704  0.96454  1.0000
  H   H1457     1.0  0.60674  0.58268  0.49184  1.0000
  C   C1825     1.0  0.47969  0.74769  0.72686  1.0000
  H   H1458     1.0  0.67922  0.51131  0.98796  1.0000
  Fe  Fe119     1.0  0.81750  0.32672  0.12802  1.0000
  S   S239      1.0  0.79219  0.33145  0.11830  1.0000
  S   S240      1.0  0.82978  0.31544  0.08887  1.0000
  Fe  Fe120     1.0  0.82327  0.34207  0.19914  1.0000
  S   S241      1.0  0.79756  0.34748  0.19409  1.0000
  S   S242      1.0  0.84117  0.35181  0.24747  1.0000
  Fe  Fe121     1.0  0.78273  0.31871  0.16696  1.0000
  S   S243      1.0  0.75061  0.29937  0.17023  1.0000
  Fe  Fe122     1.0  0.80881  0.35930  0.14590  1.0000
  S   S244      1.0  0.81350  0.38649  0.12193  1.0000
  S   S245      1.0  0.80751  0.31235  0.17557  1.0000
  S   S246      1.0  0.83500  0.35539  0.15239  1.0000
  S   S247      1.0  0.94682  0.42175  0.37266  1.0000
  Fe  Fe123     1.0  0.95168  0.41231  0.32298  1.0000
  S   S248      1.0  0.93077  0.39199  0.28298  1.0000
  C   C1826     1.0  0.85861  0.46959  0.26069  1.0000
  H   H1459     1.0  0.76285  0.47177  0.03732  1.0000
  S   S249      1.0  0.78878  0.44588  0.18335  1.0000
  C   C1827     1.0  0.76398  0.37223  0.02658  1.0000
  C   C1828     1.0  0.80552  0.40214  0.13876  1.0000
  C   C1829     1.0  0.79473  0.39794  0.16647  1.0000
  C   C1830     1.0  0.78943  0.41133  0.17989  1.0000
  C   C1831     1.0  0.79471  0.42884  0.16542  1.0000
  C   C1832     1.0  0.80494  0.43267  0.13709  1.0000
  C   C1833     1.0  0.81044  0.41945  0.12397  1.0000
  H   H1460     1.0  0.79077  0.38454  0.17785  1.0000
  H   H1461     1.0  0.78138  0.40820  0.20165  1.0000
  H   H1462     1.0  0.80853  0.44576  0.12507  1.0000
  H   H1463     1.0  0.81851  0.42264  0.10223  1.0000
  C   C1834     1.0  0.86624  0.36447  0.25599  1.0000
  C   C1835     1.0  0.87947  0.36710  0.23229  1.0000
  C   C1836     1.0  0.89910  0.37587  0.24091  1.0000
  C   C1837     1.0  0.90589  0.38252  0.27314  1.0000
  C   C1838     1.0  0.89270  0.38051  0.29657  1.0000
  C   C1839     1.0  0.87306  0.37147  0.28806  1.0000
  H   H1464     1.0  0.87454  0.36175  0.20757  1.0000
  H   H1465     1.0  0.90907  0.37717  0.22254  1.0000
  H   H1466     1.0  0.89756  0.38532  0.32150  1.0000
  H   H1467     1.0  0.86302  0.36951  0.30667  1.0000
  H   H1468     1.0  0.74406  0.34219  0.06324  1.0000
  C   C1840     1.0  0.96502  0.38488  0.24558  1.0000
  H   H1469     1.0  0.85360  0.42696  0.11129  1.0000
  C   C1841     1.0  0.74505  0.26192  0.17517  1.0000
  C   C1842     1.0  0.88462  0.42680  0.26903  1.0000
  H   H1470     1.0  0.81910  0.40214  0.23057  1.0000
  H   H1471     1.0  0.76033  0.26764  0.17617  1.0000
  C   C1843     1.0  0.88380  0.44260  0.12317  1.0000
  C   C1844     1.0  0.88473  0.37689  0.09125  1.0000
  C   C1845     1.0  0.82014  0.32810  0.03130  1.0000
  C   C1846     1.0  0.82918  0.31841  0.04633  1.0000
  C   C1847     1.0  0.83833  0.31057  0.02701  1.0000
  H   H1472     1.0  0.81291  0.33404  0.04608  1.0000
  H   H1473     1.0  0.84527  0.30301  0.03828  1.0000
  C   C1848     1.0  0.92319  0.42987  0.22292  1.0000
  H   H1474     1.0  0.90407  0.41974  0.29609  1.0000
  C   C1849     1.0  0.91204  0.45474  0.19273  1.0000
  H   H1475     1.0  0.86353  0.39229  0.19092  1.0000
  C   C1850     1.0  0.83148  0.40680  0.21599  1.0000
  C   C1851     1.0  0.95726  0.45498  0.45467  1.0000
  C   C1852     1.0  0.75242  0.27637  0.31924  1.0000
  C   C1853     1.0  0.88406  0.40661  0.12936  1.0000
  P   P63       1.0  0.77110  0.35506  0.01018  1.0000
  H   H1476     1.0  0.83573  0.38227  0.22489  1.0000
  C   C1854     1.0  0.76252  0.33450  0.03510  1.0000
  S   S250      1.0  0.95259  0.47263  0.36887  1.0000
  C   C1855     1.0  0.86677  0.43935  0.10658  1.0000
  C   C1856     1.0  0.90168  0.39177  0.10386  1.0000
  H   H1477     1.0  0.85322  0.44976  0.07189  1.0000
  C   C1857     1.0  0.74948  0.33200  0.05925  1.0000
  C   C1858     1.0  0.77536  0.38616  0.05039  1.0000
  C   C1859     1.0  0.76956  0.39922  0.06294  1.0000
  C   C1860     1.0  0.79666  0.36531  0.01137  1.0000
  C   C1861     1.0  0.93226  0.44924  0.23185  1.0000
  H   H1478     1.0  0.91358  0.48284  0.08613  1.0000
  C   C1862     1.0  0.83644  0.38183  0.01478  1.0000
  C   C1863     1.0  0.82627  0.37531  0.04280  1.0000
  C   C1864     1.0  0.80649  0.36684  0.04104  1.0000
  C   C1865     1.0  0.91169  0.44955  0.30152  1.0000
  C   C1866     1.0  0.90038  0.43092  0.28970  1.0000
  C   C1867     1.0  0.76396  0.30582  0.05166  1.0000
  C   C1868     1.0  0.90049  0.47080  0.09214  1.0000
  C   C1869     1.0  0.83787  0.42385  0.20000  1.0000
  H   H1479     1.0  0.95905  0.40711  0.22797  1.0000
  H   H1480     1.0  0.78863  0.38699  0.05970  1.0000
  H   H1481     1.0  0.77835  0.40987  0.08139  1.0000
  H   H1482     1.0  0.92406  0.45266  0.31711  1.0000
  H   H1483     1.0  0.90125  0.40774  0.19311  1.0000
  H   H1484     1.0  0.83356  0.37672  0.06607  1.0000
  H   H1485     1.0  0.79889  0.36167  0.06304  1.0000
  S   S251      1.0  0.96562  0.44173  0.30452  1.0000
  C   C1870     1.0  0.76861  0.48272  0.01971  1.0000
  C   C1871     1.0  0.73302  0.44241  0.99677  1.0000
  H   H1486     1.0  0.90999  0.44148  0.45535  1.0000
  C   C1872     1.0  0.85645  0.40120  0.19305  1.0000
  H   H1487     1.0  0.93393  0.43981  0.42001  1.0000
  C   C1873     1.0  0.90714  0.46410  0.29307  1.0000
  C   C1874     1.0  0.95800  0.41595  0.48513  1.0000
  H   H1488     1.0  0.91637  0.47851  0.30187  1.0000
  C   C1875     1.0  0.86719  0.39208  0.11539  1.0000
  H   H1489     1.0  0.78002  0.32312  0.01338  1.0000
  C   C1876     1.0  0.96286  0.46447  0.48522  1.0000
  H   H1490     1.0  0.76061  0.28132  0.34208  1.0000
  C   C1877     1.0  0.75106  0.27507  0.26039  1.0000
  C   C1878     1.0  0.86754  0.37712  0.09678  1.0000
  P   P64       1.0  0.88369  0.42606  0.15282  1.0000
  C   C1879     1.0  0.74380  0.31653  0.07945  1.0000
  C   C1880     1.0  0.77992  0.44470  0.00358  1.0000
  C   C1881     1.0  0.76155  0.28144  0.28988  1.0000
  C   C1882     1.0  0.90857  0.42292  0.19882  1.0000
  C   C1883     1.0  0.76967  0.32125  0.03141  1.0000
  H   H1491     1.0  0.85373  0.39212  0.11933  1.0000
  H   H1492     1.0  0.78111  0.45505  0.02239  1.0000
  H   H1493     1.0  0.80078  0.43854  0.02797  1.0000
  H   H1494     1.0  0.97445  0.36594  0.26654  1.0000
  H   H1495     1.0  0.93340  0.47659  0.22453  1.0000
  C   C1884     1.0  0.82680  0.44618  0.27288  1.0000
  C   C1885     1.0  0.92668  0.46167  0.21682  1.0000
  H   H1496     1.0  0.85443  0.36540  0.08716  1.0000
  H   H1497     1.0  0.74008  0.23298  0.18176  1.0000
  C   C1886     1.0  0.84079  0.39553  0.21259  1.0000
  C   C1887     1.0  0.83871  0.31243  0.99326  1.0000
  H   H1498     1.0  0.73334  0.41519  0.99740  1.0000
  C   C1888     1.0  0.75104  0.30346  0.07568  1.0000
  H   H1499     1.0  0.77016  0.29613  0.04975  1.0000
  H   H1500     1.0  0.75483  0.26416  0.01048  1.0000
  H   H1501     1.0  0.91466  0.41820  0.13182  1.0000
  H   H1502     1.0  0.91501  0.39165  0.09926  1.0000
  H   H1503     1.0  0.96450  0.47512  0.30249  1.0000
  H   H1504     1.0  0.95043  0.37405  0.24207  1.0000
  H   H1505     1.0  0.88481  0.36511  0.07721  1.0000
  H   H1506     1.0  0.85176  0.38809  0.01613  1.0000
  C   C1889     1.0  0.85351  0.42957  0.18047  1.0000
  H   H1507     1.0  0.85821  0.44287  0.16854  1.0000
  C   C1890     1.0  0.86280  0.41817  0.17649  1.0000
  Fe  Fe124     1.0  0.97607  0.42602  0.38820  1.0000
  C   C1891     1.0  0.96987  0.40359  0.23771  1.0000
  H   H1508     1.0  0.94816  0.41205  0.46428  1.0000
  H   H1509     1.0  0.91419  0.46026  0.12601  1.0000
  H   H1510     1.0  0.87604  0.41235  0.25947  1.0000
  C   C1892     1.0  0.86652  0.45216  0.08397  1.0000
  H   H1511     1.0  0.83048  0.43248  0.20228  1.0000
  H   H1512     1.0  0.73740  0.36060  0.99823  1.0000
  C   C1893     1.0  0.75239  0.39848  0.05199  1.0000
  C   C1894     1.0  0.90077  0.45807  0.11498  1.0000
  C   C1895     1.0  0.73146  0.26363  0.26019  1.0000
  H   H1513     1.0  0.92705  0.42011  0.23547  1.0000
  C   C1896     1.0  0.90317  0.43539  0.18295  1.0000
  C   C1897     1.0  0.93825  0.44692  0.44383  1.0000
  H   H1514     1.0  0.81744  0.43324  0.28433  1.0000
  C   C1898     1.0  0.87994  0.44128  0.26078  1.0000
  C   C1899     1.0  0.73351  0.24224  0.17846  1.0000
  H   H1515     1.0  0.80390  0.45023  0.25097  1.0000
  C   C1900     1.0  0.79109  0.43524  0.00691  1.0000
  H   H1516     1.0  0.74801  0.40866  0.06189  1.0000
  H   H1517     1.0  0.86927  0.47314  0.19554  1.0000
  H   H1518     1.0  0.74726  0.29197  0.09232  1.0000
  H   H1519     1.0  0.77674  0.29037  0.28987  1.0000
  Fe  Fe125     1.0  0.96247  0.45115  0.35461  1.0000
  C   C1901     1.0  0.89077  0.45994  0.27359  1.0000
  H   H1520     1.0  0.90742  0.46442  0.18229  1.0000
  H   H1521     1.0  0.94316  0.45453  0.25125  1.0000
  C   C1902     1.0  0.90138  0.40670  0.12255  1.0000
  H   H1522     1.0  0.97358  0.45264  0.23230  1.0000
  H   H1523     1.0  0.86775  0.43786  0.24474  1.0000
  H   H1524     1.0  0.85207  0.44568  0.29148  1.0000
  C   C1903     1.0  0.73277  0.26508  0.31912  1.0000
  C   C1904     1.0  0.85080  0.47978  0.24369  1.0000
  S   S252      1.0  0.82906  0.48511  0.13750  1.0000
  Fe  Fe126     1.0  0.80077  0.47413  0.15925  1.0000
  S   S253      1.0  0.78637  0.47898  0.11529  1.0000
  C   C1905     1.0  0.88335  0.46796  0.07692  1.0000
  C   C1906     1.0  0.73683  0.27418  0.17152  1.0000
  C   C1907     1.0  0.74661  0.37143  0.01604  1.0000
  H   H1525     1.0  0.96498  0.45344  0.17415  1.0000
  C   C1908     1.0  0.92475  0.44798  0.46372  1.0000
  C   C1909     1.0  0.81915  0.45580  0.25429  1.0000
  C   C1910     1.0  0.84646  0.45318  0.27650  1.0000
  H   H1526     1.0  0.96761  0.45369  0.43941  1.0000
  H   H1527     1.0  0.82515  0.48018  0.22576  1.0000
  H   H1528     1.0  0.75813  0.27917  0.23762  1.0000
  C   C1911     1.0  0.83114  0.47269  0.23999  1.0000
  C   C1912     1.0  0.96043  0.48611  0.30749  1.0000
  H   H1529     1.0  0.73434  0.31501  0.09895  1.0000
  C   C1913     1.0  0.88421  0.48294  0.19663  1.0000
  C   C1914     1.0  0.82056  0.33004  0.99706  1.0000
  H   H1530     1.0  0.88993  0.47935  0.33537  1.0000
  C   C1915     1.0  0.97739  0.42270  0.48028  1.0000
  H   H1531     1.0  0.78649  0.28915  0.99802  1.0000
  C   C1916     1.0  0.74087  0.38452  0.02866  1.0000
  H   H1532     1.0  0.88307  0.47784  0.05936  1.0000
  S   S254      1.0  0.81933  0.48247  0.04469  1.0000
  C   C1917     1.0  0.97523  0.46632  0.18703  1.0000
  P   P65       1.0  0.88404  0.47840  0.26411  1.0000
  C   C1918     1.0  0.97869  0.38037  0.25949  1.0000
  Fe  Fe127     1.0  0.94641  0.40735  0.70988  1.0000
  S   S255      1.0  0.93658  0.41941  0.66901  1.0000
  S   S256      1.0  0.92705  0.38552  0.74530  1.0000
  Fe  Fe128     1.0  0.95787  0.44744  0.69083  1.0000
  S   S257      1.0  0.94810  0.46966  0.70025  1.0000
  H   H1533     1.0  0.77230  0.37758  0.95470  1.0000
  Fe  Fe129     1.0  0.82468  0.35243  0.83087  1.0000
  S   S258      1.0  0.79818  0.35646  0.83334  1.0000
  S   S259      1.0  0.84147  0.36205  0.78422  1.0000
  Fe  Fe130     1.0  0.81928  0.33722  0.89966  1.0000
  S   S260      1.0  0.79336  0.34100  0.90738  1.0000
  S   S261      1.0  0.83138  0.32364  0.93507  1.0000
  Fe  Fe131     1.0  0.78407  0.32792  0.85667  1.0000
  S   S262      1.0  0.75224  0.30793  0.84658  1.0000
  Fe  Fe132     1.0  0.80918  0.36897  0.88359  1.0000
  S   S263      1.0  0.81078  0.39647  0.90556  1.0000
  S   S264      1.0  0.80951  0.32278  0.84971  1.0000
  S   S265      1.0  0.83619  0.36629  0.88034  1.0000
  C   C1919     1.0  0.82998  0.32221  0.97799  1.0000
  S   S266      1.0  0.79315  0.45237  0.81834  1.0000
  C   C1920     1.0  0.76141  0.34846  0.96881  1.0000
  Fe  Fe133     1.0  0.96082  0.42015  0.64003  1.0000
  H   H1534     1.0  0.77297  0.45849  0.91057  1.0000
  C   C1921     1.0  0.80650  0.41224  0.88082  1.0000
  C   C1922     1.0  0.81050  0.43045  0.89348  1.0000
  C   C1923     1.0  0.80680  0.44311  0.87452  1.0000
  C   C1924     1.0  0.79885  0.43750  0.84288  1.0000
  C   C1925     1.0  0.79493  0.41933  0.83027  1.0000
  C   C1926     1.0  0.79886  0.40681  0.84904  1.0000
  H   H1535     1.0  0.81636  0.43475  0.91812  1.0000
  H   H1536     1.0  0.80981  0.45705  0.88452  1.0000
  H   H1537     1.0  0.78876  0.41489  0.80584  1.0000
  H   H1538     1.0  0.79565  0.39284  0.83905  1.0000
  C   C1927     1.0  0.79540  0.22500  0.74484  1.0000
  H   H1539     1.0  0.81030  0.43696  0.72302  1.0000
  H   H1540     1.0  0.75676  0.23391  0.78445  1.0000
  H   H1541     1.0  0.75426  0.29525  0.77578  1.0000
  H   H1542     1.0  0.75660  0.42341  0.93158  1.0000
  C   C1928     1.0  0.80131  0.21429  0.76437  1.0000
  C   C1929     1.0  0.74454  0.26979  0.85249  1.0000
  H   H1543     1.0  0.73816  0.24011  0.85155  1.0000
  C   C1930     1.0  0.73338  0.44892  0.86386  1.0000
  C   C1931     1.0  0.76669  0.47795  0.98614  1.0000
  H   H1544     1.0  0.75961  0.27489  0.85679  1.0000
  C   C1932     1.0  0.93982  0.46695  0.57303  1.0000
  H   H1545     1.0  0.86312  0.32902  0.78758  1.0000
  C   C1933     1.0  0.74389  0.32465  0.92582  1.0000
  C   C1934     1.0  0.74095  0.26701  0.96614  1.0000
  H   H1546     1.0  0.80971  0.21055  0.81286  1.0000
  C   C1935     1.0  0.96356  0.41811  0.54480  1.0000
  C   C1936     1.0  0.90356  0.38023  0.75652  1.0000
  C   C1937     1.0  0.89053  0.38202  0.73499  1.0000
  C   C1938     1.0  0.87173  0.37651  0.74408  1.0000
  C   C1939     1.0  0.86573  0.36962  0.77508  1.0000
  C   C1940     1.0  0.87890  0.36832  0.79700  1.0000
  C   C1941     1.0  0.89755  0.37324  0.78753  1.0000
  H   H1547     1.0  0.89476  0.38702  0.71090  1.0000
  H   H1548     1.0  0.86165  0.37733  0.72676  1.0000
  H   H1549     1.0  0.87456  0.36300  0.82090  1.0000
  H   H1550     1.0  0.90737  0.37161  0.80440  1.0000
  C   C1942     1.0  0.87338  0.45337  0.87735  1.0000
  C   C1943     1.0  0.85932  0.43479  0.88083  1.0000
  C   C1944     1.0  0.85818  0.42015  0.85969  1.0000
  C   C1945     1.0  0.87102  0.42404  0.83496  1.0000
  C   C1946     1.0  0.88455  0.44284  0.83017  1.0000
  C   C1947     1.0  0.88602  0.45740  0.85220  1.0000
  P   P66       1.0  0.90112  0.44777  0.79817  1.0000
  C   C1948     1.0  0.91158  0.47237  0.78743  1.0000
  C   C1949     1.0  0.91923  0.44186  0.81356  1.0000
  C   C1950     1.0  0.93281  0.45396  0.83713  1.0000
  C   C1951     1.0  0.94704  0.44962  0.84904  1.0000
  C   C1952     1.0  0.94767  0.43307  0.83776  1.0000
  C   C1953     1.0  0.93394  0.42076  0.81489  1.0000
  C   C1954     1.0  0.91965  0.42502  0.80304  1.0000
  P   P67       1.0  0.75330  0.45336  0.97182  1.0000
  H   H1551     1.0  0.93948  0.47466  0.77941  1.0000
  C   C1955     1.0  0.75650  0.27144  0.98798  1.0000
  C   C1956     1.0  0.88981  0.43467  0.76063  1.0000
  C   C1957     1.0  0.87002  0.42623  0.75540  1.0000
  C   C1958     1.0  0.86156  0.41612  0.72615  1.0000
  C   C1959     1.0  0.87280  0.41474  0.70164  1.0000
  C   C1960     1.0  0.89251  0.42355  0.70636  1.0000
  C   C1961     1.0  0.90101  0.43362  0.73558  1.0000
  C   C1962     1.0  0.76632  0.42712  0.95257  1.0000
  H   H1552     1.0  0.84933  0.43162  0.90003  1.0000
  H   H1553     1.0  0.84729  0.40575  0.86258  1.0000
  H   H1554     1.0  0.87020  0.41235  0.81940  1.0000
  C   C1963     1.0  0.75124  0.32931  0.95797  1.0000
  H   H1555     1.0  0.93241  0.46677  0.84615  1.0000
  H   H1556     1.0  0.73394  0.48273  0.82500  1.0000
  C   C1964     1.0  0.74019  0.24768  0.76926  1.0000
  H   H1557     1.0  0.93431  0.40785  0.80629  1.0000
  H   H1558     1.0  0.90895  0.41511  0.78579  1.0000
  H   H1559     1.0  0.88534  0.47429  0.78926  1.0000
  C   C1965     1.0  0.74554  0.45209  0.92959  1.0000
  H   H1560     1.0  0.86102  0.42730  0.77375  1.0000
  H   H1561     1.0  0.84625  0.40905  0.72280  1.0000
  H   H1562     1.0  0.86622  0.40650  0.67932  1.0000
  H   H1563     1.0  0.90126  0.42213  0.68783  1.0000
  H   H1564     1.0  0.91633  0.44032  0.73878  1.0000
  H   H1565     1.0  0.80979  0.28852  0.87026  1.0000
  S   S267      1.0  0.95379  0.41356  0.58452  1.0000
  C   C1966     1.0  0.75707  0.35808  0.91478  1.0000
  C   C1967     1.0  0.77706  0.29547  0.95246  1.0000
  C   C1968     1.0  0.80719  0.41325  0.69218  1.0000
  H   H1566     1.0  0.83455  0.38510  0.96307  1.0000
  C   C1969     1.0  0.93159  0.44699  0.57265  1.0000
  C   C1970     1.0  0.91929  0.43701  0.59675  1.0000
  C   C1971     1.0  0.91498  0.44685  0.62120  1.0000
  C   C1972     1.0  0.83459  0.47966  0.69616  1.0000
  H   H1567     1.0  0.79280  0.22170  0.71889  1.0000
  C   C1973     1.0  0.90306  0.48138  0.69724  1.0000
  H   H1568     1.0  0.93611  0.40789  0.52019  1.0000
  C   C1974     1.0  0.83340  0.41860  0.65808  1.0000
  C   C1975     1.0  0.75828  0.45498  0.90475  1.0000
  S   S268      1.0  0.96683  0.43578  0.73330  1.0000
  C   C1976     1.0  0.84334  0.43720  0.67131  1.0000
  C   C1977     1.0  0.96413  0.36534  0.75946  1.0000
  H   H1569     1.0  0.93510  0.43910  0.55435  1.0000
  H   H1570     1.0  0.91350  0.42165  0.59682  1.0000
  C   C1978     1.0  0.73233  0.25004  0.84967  1.0000
  C   C1979     1.0  0.84324  0.45406  0.80865  1.0000
  H   H1571     1.0  0.90567  0.43918  0.64010  1.0000
  H   H1572     1.0  0.79997  0.37092  0.95995  1.0000
  H   H1573     1.0  0.76396  0.29827  0.90787  1.0000
  C   C1980     1.0  0.80245  0.23375  0.81174  1.0000
  C   C1981     1.0  0.79601  0.24422  0.79240  1.0000
  C   C1982     1.0  0.79293  0.24004  0.75873  1.0000
  P   P68       1.0  0.79342  0.26405  0.80988  1.0000
  C   C1983     1.0  0.81544  0.28476  0.80268  1.0000
  C   C1984     1.0  0.77264  0.26456  0.79156  1.0000
  C   C1985     1.0  0.77155  0.28177  0.78947  1.0000
  C   C1986     1.0  0.87192  0.48011  0.70070  1.0000
  C   C1987     1.0  0.83183  0.28856  0.82184  1.0000
  C   C1988     1.0  0.84894  0.30453  0.81654  1.0000
  C   C1989     1.0  0.84993  0.31655  0.79157  1.0000
  C   C1990     1.0  0.83390  0.31250  0.77161  1.0000
  C   C1991     1.0  0.81680  0.29648  0.77673  1.0000
  C   C1992     1.0  0.78881  0.26040  0.85264  1.0000
  C   C1993     1.0  0.77445  0.24299  0.86218  1.0000
  C   C1994     1.0  0.77047  0.23995  0.89505  1.0000
  C   C1995     1.0  0.78089  0.25421  0.91870  1.0000
  C   C1996     1.0  0.79523  0.27154  0.90945  1.0000
  C   C1997     1.0  0.79898  0.27476  0.87658  1.0000
  C   C1998     1.0  0.94947  0.46617  0.50490  1.0000
  H   H1574     1.0  0.78858  0.24839  0.74324  1.0000
  H   H1575     1.0  0.78304  0.29501  0.79894  1.0000
  C   C1999     1.0  0.80698  0.37199  0.98329  1.0000
  H   H1576     1.0  0.83137  0.27931  0.84113  1.0000
  H   H1577     1.0  0.86139  0.30770  0.83199  1.0000
  H   H1578     1.0  0.85231  0.47303  0.85113  1.0000
  H   H1579     1.0  0.83474  0.32198  0.75241  1.0000
  H   H1580     1.0  0.80476  0.29341  0.76036  1.0000
  H   H1581     1.0  0.76616  0.23182  0.84415  1.0000
  H   H1582     1.0  0.75924  0.22656  0.90219  1.0000
  H   H1583     1.0  0.77782  0.25190  0.94418  1.0000
  H   H1584     1.0  0.76195  0.45504  0.85299  1.0000
  H   H1585     1.0  0.79315  0.40402  0.70021  1.0000
  H   H1586     1.0  0.73108  0.23877  0.91661  1.0000
  S   S269      1.0  0.96913  0.40539  0.67959  1.0000
  C   C2000     1.0  0.79013  0.42198  0.98284  1.0000
  H   H1587     1.0  0.95869  0.42968  0.84686  1.0000
  C   C2001     1.0  0.92308  0.46667  0.62172  1.0000
  H   H1588     1.0  0.80562  0.23717  0.83756  1.0000
  C   C2002     1.0  0.83539  0.44381  0.69561  1.0000
  H   H1589     1.0  0.73214  0.27323  0.91948  1.0000
  H   H1590     1.0  0.97189  0.47666  0.64500  1.0000
  C   C2003     1.0  0.81701  0.43188  0.70523  1.0000
  C   C2004     1.0  0.80492  0.21872  0.79778  1.0000
  H   H1591     1.0  0.79909  0.41494  0.98508  1.0000
  C   C2005     1.0  0.76181  0.29082  0.93030  1.0000
  H   H1592     1.0  0.85708  0.44633  0.66225  1.0000
  C   C2006     1.0  0.84882  0.46908  0.75651  1.0000
  H   H1593     1.0  0.95756  0.45906  0.86705  1.0000
  C   C2007     1.0  0.75671  0.24748  0.78167  1.0000
  C   C2008     1.0  0.75515  0.28196  0.77643  1.0000
  H   H1594     1.0  0.96837  0.45477  0.57846  1.0000
  H   H1595     1.0  0.91967  0.45831  0.50928  1.0000
  H   H1596     1.0  0.80341  0.28262  0.92775  1.0000
  H   H1597     1.0  0.83962  0.41351  0.63949  1.0000
  C   C2009     1.0  0.74382  0.27663  0.93701  1.0000
  C   C2010     1.0  0.93068  0.48188  0.77938  1.0000
  H   H1598     1.0  0.80321  0.20263  0.75359  1.0000
  H   H1599     1.0  0.83730  0.44133  0.82259  1.0000
  H   H1600     1.0  0.89688  0.47186  0.85007  1.0000
  C   C2011     1.0  0.95119  0.41357  0.51704  1.0000
  H   H1601     1.0  0.75994  0.36923  0.89776  1.0000
  C   C2012     1.0  0.93551  0.47672  0.59784  1.0000
  C   C2013     1.0  0.75212  0.45313  0.87206  1.0000
  H   H1602     1.0  0.83539  0.43857  0.76292  1.0000
  H   H1603     1.0  0.95382  0.38096  0.78983  1.0000
  H   H1604     1.0  0.79095  0.30652  0.94716  1.0000
  P   P69       1.0  0.84765  0.46788  0.71258  1.0000
  H   H1605     1.0  0.87884  0.45774  0.71496  1.0000
  C   C2014     1.0  0.81542  0.40658  0.66874  1.0000
  C   C2015     1.0  0.84192  0.45259  0.77463  1.0000
  C   C2016     1.0  0.76778  0.44110  0.97598  1.0000
  H   H1606     1.0  0.87436  0.46463  0.89409  1.0000
  H   H1607     1.0  0.80776  0.39213  0.65863  1.0000
  H   H1608     1.0  0.83970  0.47469  0.64623  1.0000
  C   C2017     1.0  0.73733  0.28285  0.84797  1.0000
  C   C2018     1.0  0.76415  0.36277  0.94699  1.0000
  H   H1609     1.0  0.84594  0.30627  0.97889  1.0000
  H   H1610     1.0  0.74916  0.31795  0.97397  1.0000
  Fe  Fe134     1.0  0.80271  0.48372  0.82978  1.0000
  C   C2019     1.0  0.88404  0.47169  0.70512  1.0000
  C   C2020     1.0  0.74687  0.33903  0.90423  1.0000
  H   H1611     1.0  0.91243  0.47490  0.70103  1.0000
  C   C2021     1.0  0.85183  0.47193  0.82478  1.0000
  C   C2022     1.0  0.82677  0.38014  0.98499  1.0000
  C   C2023     1.0  0.73943  0.26492  0.76654  1.0000
  C   C2024     1.0  0.93030  0.45749  0.49422  1.0000
  C   C2025     1.0  0.90025  0.48172  0.78457  1.0000
  H   H1612     1.0  0.97718  0.35363  0.72697  1.0000
  P   P70       1.0  0.95665  0.47983  0.54310  1.0000
  H   H1613     1.0  0.92021  0.47431  0.64121  1.0000
  C   C2026     1.0  0.83316  0.48087  0.66227  1.0000
  H   H1614     1.0  0.77724  0.40792  0.93669  1.0000
  H   H1615     1.0  0.81442  0.47347  0.97603  1.0000
  H   H1616     1.0  0.81370  0.33757  0.98551  1.0000
  C   C2027     1.0  0.77449  0.28563  0.98109  1.0000
  C   C2028     1.0  0.77773  0.41793  0.95570  1.0000
  H   H1617     1.0  0.73633  0.30991  0.91714  1.0000
  H   H1618     1.0  0.97048  0.36645  0.60948  1.0000
  H   H1619     1.0  0.74169  0.33535  0.87907  1.0000
  H   H1620     1.0  0.97755  0.47029  0.49337  1.0000
  H   H1621     1.0  0.95172  0.35187  0.76210  1.0000
  C   C2029     1.0  0.96527  0.38178  0.77505  1.0000
  H   H1622     1.0  0.72878  0.44780  0.83847  1.0000
  C   C2030     1.0  0.97861  0.36643  0.73961  1.0000
  C   C2031     1.0  0.89952  0.62324  0.04340  1.0000
  C   C2032     1.0  0.86795  0.53493  0.09111  1.0000
  Fe  Fe135     1.0  0.83533  0.51369  0.16023  1.0000
  S   S270      1.0  0.80742  0.50212  0.18523  1.0000
  S   S271      1.0  0.86600  0.52646  0.18250  1.0000
  Fe  Fe136     1.0  0.79488  0.50782  0.13901  1.0000
  S   S272      1.0  0.77590  0.52266  0.13286  1.0000
  C   C2033     1.0  0.91204  0.50385  0.16849  1.0000
  S   S273      1.0  0.82329  0.52128  0.11533  1.0000
  C   C2034     1.0  0.86482  0.51754  0.07639  1.0000
  Fe  Fe137     1.0  0.81535  0.49201  0.09504  1.0000
  C   C2035     1.0  0.84016  0.56092  0.16446  1.0000
  H   H1623     1.0  0.83091  0.52295  0.03953  1.0000
  H   H1624     1.0  0.81408  0.56843  0.10490  1.0000
  Fe  Fe138     1.0  0.95948  0.58998  0.28880  1.0000
  S   S274      1.0  0.93371  0.59293  0.26881  1.0000
  S   S275      1.0  0.95290  0.56579  0.32186  1.0000
  C   C2036     1.0  0.88425  0.54493  0.20758  1.0000
  C   C2037     1.0  0.90173  0.54453  0.21234  1.0000
  C   C2038     1.0  0.91671  0.55872  0.23177  1.0000
  C   C2039     1.0  0.91461  0.57388  0.24619  1.0000
  C   C2040     1.0  0.89716  0.57436  0.24136  1.0000
  C   C2041     1.0  0.88201  0.55989  0.22256  1.0000
  H   H1625     1.0  0.90367  0.53308  0.20101  1.0000
  H   H1626     1.0  0.92998  0.55805  0.23514  1.0000
  H   H1627     1.0  0.89530  0.58596  0.25237  1.0000
  H   H1628     1.0  0.86865  0.56038  0.21965  1.0000
  C   C2042     1.0  0.75150  0.51402  0.14175  1.0000
  H   H1629     1.0  0.85983  0.49307  0.23273  1.0000
  C   C2043     1.0  0.85630  0.56431  0.14726  1.0000
  C   C2044     1.0  0.89409  0.49371  0.32796  1.0000
  C   C2045     1.0  0.92709  0.59219  0.17135  1.0000
  H   H1630     1.0  0.93393  0.57153  0.14802  1.0000
  C   C2046     1.0  0.89844  0.58182  0.12214  1.0000
  H   H1631     1.0  0.90784  0.54530  0.30312  1.0000
  C   C2047     1.0  0.89258  0.49740  0.29508  1.0000
  S   S276      1.0  0.97694  0.58286  0.25402  1.0000
  H   H1632     1.0  0.88703  0.56322  0.02735  1.0000
  C   C2048     1.0  0.92284  0.50837  0.19778  1.0000
  C   C2049     1.0  0.87515  0.55149  0.07337  1.0000
  C   C2050     1.0  0.82829  0.51643  0.01527  1.0000
  H   H1633     1.0  0.95552  0.54601  0.43497  1.0000
  H   H1634     1.0  0.90609  0.61428  0.08863  1.0000
  C   C2051     1.0  0.82503  0.56255  0.14923  1.0000
  H   H1635     1.0  0.96191  0.62432  0.23320  1.0000
  C   C2052     1.0  0.88226  0.59120  0.06252  1.0000
  H   H1636     1.0  0.89134  0.60211  0.14696  1.0000
  C   C2053     1.0  0.82609  0.56772  0.11686  1.0000
  C   C2054     1.0  0.90410  0.53090  0.31011  1.0000
  H   H1637     1.0  0.84250  0.57497  0.07458  1.0000
  C   C2055     1.0  0.94840  0.51620  0.43203  1.0000
  C   C2056     1.0  0.91510  0.60080  0.17094  1.0000
  H   H1638     1.0  0.86454  0.53540  0.11627  1.0000
  C   C2057     1.0  0.94937  0.50281  0.34453  1.0000
  C   C2058     1.0  0.74355  0.52291  0.23194  1.0000
  H   H1639     1.0  0.93778  0.51841  0.19855  1.0000
  H   H1640     1.0  0.81220  0.55919  0.16211  1.0000
  H   H1641     1.0  0.93342  0.51155  0.42705  1.0000
  H   H1642     1.0  0.85935  0.57171  0.02970  1.0000
  C   C2059     1.0  0.95150  0.51591  0.32081  1.0000
  C   C2060     1.0  0.92492  0.57853  0.14714  1.0000
  H   H1643     1.0  0.73420  0.50303  0.06295  1.0000
  H   H1644     1.0  0.73384  0.50642  0.00360  1.0000
  C   C2061     1.0  0.84230  0.57130  0.09966  1.0000
  C   C2062     1.0  0.96187  0.49876  0.28331  1.0000
  H   H1645     1.0  0.88024  0.53234  0.00114  1.0000
  C   C2063     1.0  0.91429  0.50038  0.22656  1.0000
  H   H1646     1.0  0.83911  0.55633  0.18925  1.0000
  C   C2064     1.0  0.89718  0.51603  0.28648  1.0000
  H   H1647     1.0  0.79341  0.53084  0.01770  1.0000
  H   H1648     1.0  0.91182  0.53887  0.36081  1.0000
  H   H1649     1.0  0.92277  0.50427  0.24917  1.0000
  H   H1650     1.0  0.96701  0.49738  0.25981  1.0000
  C   C2065     1.0  0.87710  0.53313  0.02644  1.0000
  H   H1651     1.0  0.91648  0.61097  0.19031  1.0000
  H   H1652     1.0  0.94413  0.50418  0.36783  1.0000
  H   H1653     1.0  0.74887  0.53659  0.11727  1.0000
  C   C2066     1.0  0.82216  0.49685  0.01110  1.0000
  H   H1654     1.0  0.93770  0.59570  0.19100  1.0000
  H   H1655     1.0  0.83642  0.54282  0.99124  1.0000
  H   H1656     1.0  0.74734  0.54589  0.20126  1.0000
  P   P71       1.0  0.87861  0.57374  0.09280  1.0000
  C   C2067     1.0  0.96080  0.53554  0.43642  1.0000
  C   C2068     1.0  0.95798  0.51398  0.29039  1.0000
  H   H1657     1.0  0.91855  0.51041  0.14634  1.0000
  H   H1658     1.0  0.94582  0.48786  0.42938  1.0000
  H   H1659     1.0  0.90902  0.56244  0.10451  1.0000
  C   C2069     1.0  0.97576  0.64654  0.27032  1.0000
  C   C2070     1.0  0.85761  0.56963  0.11472  1.0000
  C   C2071     1.0  0.88049  0.55060  0.04127  1.0000
  C   C2072     1.0  0.96262  0.58769  0.45219  1.0000
  C   C2073     1.0  0.77804  0.50173  0.03100  1.0000
  C   C2074     1.0  0.89679  0.60990  0.06703  1.0000
  C   C2075     1.0  0.95427  0.48817  0.33818  1.0000
  C   C2076     1.0  0.90086  0.59569  0.14641  1.0000
  H   H1660     1.0  0.86754  0.56227  0.15916  1.0000
  C   C2077     1.0  0.91070  0.57337  0.12255  1.0000
  C   C2078     1.0  0.87058  0.58609  0.03392  1.0000
  C   C2079     1.0  0.74166  0.52411  0.13133  1.0000
  Fe  Fe139     1.0  0.97106  0.55942  0.28786  1.0000
  H   H1661     1.0  0.73595  0.49985  0.26430  1.0000
  H   H1662     1.0  0.95337  0.58690  0.43174  1.0000
  C   C2080     1.0  0.90627  0.52725  0.34261  1.0000
  C   C2081     1.0  0.73230  0.51052  0.25494  1.0000
  H   H1663     1.0  0.89542  0.51911  0.26150  1.0000
  H   H1664     1.0  0.86568  0.50291  0.03209  1.0000
  C   C2082     1.0  0.90116  0.50865  0.35157  1.0000
  C   C2083     1.0  0.86906  0.51657  0.04389  1.0000
  H   H1665     1.0  0.94813  0.52746  0.32611  1.0000
  H   H1666     1.0  0.94349  0.58827  0.48828  1.0000
  H   H1667     1.0  0.90265  0.50579  0.37681  1.0000
  C   C2084     1.0  0.95539  0.50287  0.43342  1.0000
  C   C2085     1.0  0.78573  0.51615  0.00891  1.0000
  S   S277      1.0  0.96276  0.53134  0.26202  1.0000
  H   H1668     1.0  0.85854  0.50469  0.08987  1.0000
  H   H1669     1.0  0.77963  0.50527  0.05696  1.0000
  H   H1670     1.0  0.75579  0.52173  0.22320  1.0000
  C   C2086     1.0  0.74193  0.49792  0.15995  1.0000
  C   C2087     1.0  0.89487  0.48781  0.22630  1.0000
  H   H1671     1.0  0.91074  0.63765  0.04703  1.0000
  C   C2088     1.0  0.73876  0.53653  0.21953  1.0000
  C   C2089     1.0  0.89273  0.49111  0.16792  1.0000
  H   H1672     1.0  0.96279  0.64708  0.27645  1.0000
  H   H1673     1.0  0.88423  0.48778  0.14537  1.0000
  H   H1674     1.0  0.74925  0.49002  0.16827  1.0000
  C   C2090     1.0  0.88783  0.61800  0.01506  1.0000
  H   H1675     1.0  0.88998  0.62833  0.99674  1.0000
  C   C2091     1.0  0.97523  0.63362  0.24598  1.0000
  C   C2092     1.0  0.87339  0.59942  0.01032  1.0000
  C   C2093     1.0  0.95701  0.58842  0.48446  1.0000
  C   C2094     1.0  0.97481  0.50884  0.43877  1.0000
  C   C2095     1.0  0.85773  0.48695  0.77293  1.0000
  Fe  Fe140     1.0  0.78810  0.51360  0.82406  1.0000
  S   S278      1.0  0.81791  0.53738  0.83306  1.0000
  S   S279      1.0  0.76386  0.52217  0.81852  1.0000
  Fe  Fe141     1.0  0.82873  0.52142  0.79997  1.0000
  S   S280      1.0  0.84882  0.53378  0.75716  1.0000
  Fe  Fe142     1.0  0.82027  0.51945  0.87290  1.0000
  S   S281      1.0  0.83203  0.53379  0.92254  1.0000
  H   H1676     1.0  0.73786  0.53842  0.81707  1.0000
  C   C2096     1.0  0.96073  0.48997  0.67842  1.0000
  H   H1677     1.0  0.91925  0.59559  0.76447  1.0000
  S   S282      1.0  0.95689  0.55799  0.62464  1.0000
  H   H1678     1.0  0.93961  0.61828  0.65271  1.0000
  H   H1679     1.0  0.89911  0.50754  0.77206  1.0000
  C   C2097     1.0  0.93972  0.62294  0.72078  1.0000
  Fe  Fe143     1.0  0.95547  0.57167  0.67275  1.0000
  S   S283      1.0  0.93442  0.55826  0.71404  1.0000
  S   S284      1.0  0.79861  0.49920  0.78744  1.0000
  H   H1680     1.0  0.88154  0.58316  0.67671  1.0000
  H   H1681     1.0  0.86631  0.50222  0.81933  1.0000
  C   C2098     1.0  0.95184  0.64182  0.73119  1.0000
  C   C2099     1.0  0.82806  0.51932  0.95630  1.0000
  H   H1682     1.0  0.82639  0.48674  0.74262  1.0000
  C   C2100     1.0  0.95496  0.53731  0.53395  1.0000
  C   C2101     1.0  0.82167  0.49970  0.95214  1.0000
  C   C2102     1.0  0.87274  0.54041  0.74585  1.0000
  C   C2103     1.0  0.87806  0.54660  0.71416  1.0000
  C   C2104     1.0  0.89676  0.55221  0.70410  1.0000
  C   C2105     1.0  0.91058  0.55180  0.72556  1.0000
  C   C2106     1.0  0.90527  0.54562  0.75725  1.0000
  C   C2107     1.0  0.88656  0.53993  0.76731  1.0000
  H   H1683     1.0  0.86758  0.54701  0.69721  1.0000
  H   H1684     1.0  0.90045  0.55662  0.67958  1.0000
  H   H1685     1.0  0.91576  0.54530  0.77429  1.0000
  H   H1686     1.0  0.88289  0.53541  0.79181  1.0000
  C   C2108     1.0  0.76105  0.52140  0.90905  1.0000
  H   H1687     1.0  0.87545  0.60513  0.71580  1.0000
  C   C2109     1.0  0.81510  0.49846  0.66924  1.0000
  C   C2110     1.0  0.94666  0.60947  0.72081  1.0000
  H   H1688     1.0  0.89669  0.57725  0.80508  1.0000
  C   C2111     1.0  0.83149  0.52766  0.98792  1.0000
  C   C2112     1.0  0.94474  0.50477  0.51451  1.0000
  H   H1689     1.0  0.93586  0.49321  0.49774  1.0000
  H   H1690     1.0  0.95419  0.55064  0.53260  1.0000
  C   C2113     1.0  0.90828  0.64584  0.72637  1.0000
  H   H1691     1.0  0.97483  0.58158  0.77954  1.0000
  C   C2114     1.0  0.78409  0.51156  0.97555  1.0000
  C   C2115     1.0  0.87353  0.58087  0.78369  1.0000
  H   H1692     1.0  0.91669  0.63709  0.64831  1.0000
  H   H1693     1.0  0.86347  0.57218  0.80105  1.0000
  C   C2116     1.0  0.91212  0.63655  0.70012  1.0000
  H   H1694     1.0  0.94694  0.65257  0.73146  1.0000
  H   H1695     1.0  0.73528  0.53282  0.96212  1.0000
  H   H1696     1.0  0.80774  0.50592  0.65904  1.0000
  H   H1697     1.0  0.91213  0.66550  0.63996  1.0000
  H   H1698     1.0  0.77450  0.52773  0.89727  1.0000
  C   C2117     1.0  0.89307  0.58711  0.66043  1.0000
  H   H1699     1.0  0.92483  0.50725  0.67906  1.0000
  H   H1700     1.0  0.76651  0.54689  0.93705  1.0000
  C   C2118     1.0  0.73884  0.52416  0.94552  1.0000
  H   H1701     1.0  0.86320  0.49982  0.75941  1.0000
  P   P72       1.0  0.91547  0.61575  0.70693  1.0000
  S   S285      1.0  0.83301  0.50513  0.84082  1.0000
  C   C2119     1.0  0.75649  0.53218  0.93134  1.0000
  C   C2120     1.0  0.91103  0.66000  0.66409  1.0000
  C   C2121     1.0  0.91013  0.49962  0.68520  1.0000
  C   C2122     1.0  0.86758  0.58864  0.75840  1.0000
  C   C2123     1.0  0.73853  0.51156  0.82096  1.0000
  H   H1702     1.0  0.90229  0.57285  0.58699  1.0000
  C   C2124     1.0  0.96764  0.51804  0.55974  1.0000
  C   C2125     1.0  0.88991  0.57664  0.63096  1.0000
  H   H1703     1.0  0.87609  0.56490  0.62487  1.0000
  H   H1704     1.0  0.95322  0.50799  0.76401  1.0000
  C   C2126     1.0  0.96863  0.58932  0.51178  1.0000
  H   H1705     1.0  0.90508  0.68158  0.68646  1.0000
  C   C2127     1.0  0.91105  0.60211  0.66885  1.0000
  C   C2128     1.0  0.92249  0.59610  0.61764  1.0000
  C   C2129     1.0  0.90500  0.59405  0.76254  1.0000
  C   C2130     1.0  0.87936  0.49874  0.68983  1.0000
  C   C2131     1.0  0.90464  0.58107  0.60965  1.0000
  H   H1706     1.0  0.93753  0.59490  0.71269  1.0000
  C   C2132     1.0  0.90573  0.66200  0.72142  1.0000
  C   C2133     1.0  0.82347  0.49025  0.64888  1.0000
  C   C2134     1.0  0.90801  0.50051  0.77483  1.0000
  H   H1707     1.0  0.90730  0.64060  0.75070  1.0000
  H   H1708     1.0  0.90269  0.66904  0.74175  1.0000
  C   C2135     1.0  0.91358  0.64382  0.66894  1.0000
  H   H1709     1.0  0.95122  0.50706  0.70656  1.0000
  S   S286      1.0  0.96734  0.60088  0.65166  1.0000
  C   C2136     1.0  0.89833  0.50831  0.68170  1.0000
  C   C2137     1.0  0.74807  0.50254  0.90123  1.0000
  C   C2138     1.0  0.92568  0.60664  0.64702  1.0000
  C   C2139     1.0  0.96020  0.50687  0.68750  1.0000
  H   H1710     1.0  0.97519  0.54700  0.57453  1.0000
  C   C2140     1.0  0.89225  0.58368  0.78586  1.0000
  C   C2141     1.0  0.97158  0.52367  0.67233  1.0000
  H   H1711     1.0  0.85293  0.58607  0.75647  1.0000
  S   S287      1.0  0.96067  0.59031  0.55214  1.0000
  C   C2142     1.0  0.89915  0.60196  0.73705  1.0000
  C   C2143     1.0  0.88034  0.59926  0.73530  1.0000
  H   H1712     1.0  0.97106  0.53664  0.67954  1.0000
  C   C2144     1.0  0.96681  0.53527  0.55755  1.0000
  C   C2145     1.0  0.90708  0.66906  0.69029  1.0000
  H   H1713     1.0  0.93394  0.59948  0.60110  1.0000
  H   H1714     1.0  0.93300  0.52448  0.75932  1.0000
  C   C2146     1.0  0.95678  0.50265  0.53806  1.0000
  C   C2147     1.0  0.94387  0.52203  0.51253  1.0000
  H   H1715     1.0  0.90404  0.52266  0.67322  1.0000
  C   C2148     1.0  0.92713  0.51006  0.76765  1.0000
  Fe  Fe144     1.0  0.97077  0.58730  0.60419  1.0000
  H   H1716     1.0  0.93448  0.52358  0.49453  1.0000
  H   H1717     1.0  0.97077  0.54949  0.79236  1.0000
  C   C2149     1.0  0.97072  0.64711  0.74086  1.0000
  H   H1718     1.0  0.87071  0.50610  0.68802  1.0000
  C   C2150     1.0  0.93848  0.50077  0.77015  1.0000
  C   C2151     1.0  0.77464  0.49257  0.96416  1.0000
  H   H1719     1.0  0.79065  0.52271  0.95849  1.0000
  H   H1720     1.0  0.81904  0.49315  0.92788  1.0000
  C   C2152     1.0  0.96546  0.61474  0.73075  1.0000
  C   C2153     1.0  0.81899  0.48857  0.97946  1.0000
  C   C2154     1.0  0.85947  0.48835  0.80689  1.0000
  S   S288      1.0  0.79028  0.49661  0.86555  1.0000
  H   H1721     1.0  0.97077  0.60427  0.73012  1.0000
  C   C2155     1.0  0.72940  0.52328  0.81933  1.0000
  H   H1722     1.0  0.82251  0.49126  0.62275  1.0000
  H   H1723     1.0  0.77381  0.48948  0.93826  1.0000
  C   C2156     1.0  0.97225  0.48980  0.65347  1.0000
  C   C2157     1.0  0.73042  0.49449  0.91531  1.0000
  C   C2158     1.0  0.81627  0.49710  0.70293  1.0000
  H   H1724     1.0  0.81000  0.50369  0.71874  1.0000
  H   H1725     1.0  0.94202  0.49209  0.59942  1.0000
  H   H1726     1.0  0.97656  0.51670  0.57872  1.0000
  H   H1727     1.0  0.75148  0.49438  0.88333  1.0000
  C   C2159     1.0  0.82582  0.48761  0.71643  1.0000
  H   H1728     1.0  0.86436  0.59528  0.98827  1.0000
  C   C2160     1.0  0.97755  0.63359  0.74048  1.0000
