data_image0
_chemical_formula_structural       FeS2FeSFeSFeS3FeS2FeS2FeSFeCS2CFeS2FeSCSCFe2SCFeS4HSCS2FeSHPC2SFeHSFeS2FeCFeHCFeSCSHC2HCHCH2SCH2C7H2CHC6H4C2H2CH3CHC6H4C4HC6H4C3H2C7H3C6H4C6H3C7PC13H7CH3CH2PSC2H2C7H2CH6C3SH2C6PC8H2CHC8H12CH5CH3C2PC7HC2HC8H2CH7C2HCH2CH2C4HC3H3C2H3CHC2PC10HSC3FeH7CH3C3H4C4HC2HC3H2CHCHSCFeH2C3HCH2CH2CHC7H2CH4CH5CH2C2S2H2C3HC2HCHC3HC2HCH2CHCHPHC2HCHPCH3C2H3C2HCHCHC2HCHC2PHCH2C2H2CH2CH2CHCHCH3C2HFeC2HSCH2CHCH3C2H3C2HSH2CHCH3CHCH2CH2C5S2C3H5SCHC2H2SC4SH2CHC2HCH3CSHC3SCFeS2FeSFeS2FeSFeHSCSCFeS2FeSFeS2FeS2HCFe2S3HCH3FeS2FeHCSHC3H2C2H4CHC6H3C10H4C6H4C6H5C3HSCH2C2H3C3PHC3H3SHC6HCHCHC3HC6PC2H3C7H5FeCHCH4C6PC18H20C3PC2S2H2C3H6C2H2C2H2CHCHC2HFeH2C2HC2HC2HCHCHSHCH2CHCHFeC3HCSH3CHC2SC3HC2SC4Fe2C2HCHPH6C2H4CH3CH3C3SH3C8H5CHC2HPH2CH5CHCH2PC7HC2SC7HCFeH7PCH6C2H2CHC2HCH4CHC2HC5HC7FeHCSCH4S2C3H4C3HCHC7HPCH2C2H2CHCSHSC2FeS2FeS2FeSFeS3FeHSFeS2C4S2C2HCHCHCFeS2FeS2FeSFeS3HCSCHC2HCSC6H4C2HC6H4C2H3CH4C4H2CHC4HCH3C6H4C2HC2H3C6H4C6H5C4HCH3CFeH4PHC8HC8FeCH2CH7CH2CH2C2H2CH2CHC5HC2HC2PC3SH2SC7HCSCH2CHCH5C7PC9FeHC7H12CH4CH3C2HCHFeH2CSHCH2C3PC3HCHCPHC3HCH4C5FeC2HC5HCHCHC5HC5H2CSC2H2C2H3C2H2CH2CH2C2SCH4C2PC10HC3H2C3H6C2HCHC4HC3HC2HC2PCHC7PC2H2CH2CHCHC8H5C2H4CHCH6C3H2C3HCH3C2H5CH2CHPCH3CHCH3C3HC2H2CHCH2CH2SCH3C2HCSHC2HCH3CHCHC3HCHC2HC3HCH2CH2CHC3HCHC2PH2PC2H2CHCH5CHC3HCHCH2CHC2H2C2HCHC2H2C5SPHCHC3HC5H2PHCHFeS2FeS2FeSFeS3CH3FeHSFeSHCHS2HCHSH2S2CHFeSCS2FeS2FeS2FeSFeS3HC6H4C6H4C6H2C2HPHSCHC10HCHCH2C7H4C6H4C6H2CHC6H3CH2CHPHCHCHCHC4H2CHCH2C2H4C3FeH2CHC3H4C2H2C4H2FeC3PC3HC11HCPH3CH3CH6CH4CHCHCH5CSC6HCH2CHCHCH3C2H5CHC3H3C2HFeHSCHPC19HCHCH9FeHSHCH3C2HC9H6CH4C3HC5H2C5HCHCHC3HC2H2CHC2HC2HC2HC2HCHC2HCHCFeHC7SC9H8CHCH3C6PC10HCHC3SH9CH2CH2SCHC2H2CHPHCHC2H2C3HC2HC2PHC6HSH2C2H2C4HC2HCH3C4HCHPH3CHCFeHCH4C2H2CH3CHCH2C4HSCFeH3PFeS2CSCFeSH2SH3SFeS2FeS2FeSFeS3FeS2CFeS2H2C2FeSCFeS2FeSFeS3HSC8HC8H4C4H4C4S2HCFeCHC6H4C6H4C6H5C6H5C3HCHCHCFeSHFeCHCH2CH2CHCH3CFeCHCHC4SH3C4H2CHC3H2CH2C2H4CHCSH2C2HCHC9PHC6HC3HC6H3SH6CSCHC2H4CH4PCSH2C2HC2HC11HCHFeHCHCH11C3H2PH2C2H2CHC4PHSC2HCH2C4H2C3HCH2CHCHCH2CH2C2HCHC5SC2FeC7PC18H20CH3C5H4PC7H2C4HCH2CH2C3H7CFeCH2C5HC3HSHPHC3HCSH3C2H2CHC4H3C2HFeS2FeSFeSFeHSHFeS2FeS2FeSFeCS2FeSHFeS2FeSFeS3HSHCFeS2H2SC2HPC4HCH2C4H4CHC6H4C3HC2HC2H3CS2HC6H4C6H4CHCHCPH2CH2FeCHC4PH2C3H3C4HCHPCHCH3CHCHCH2CHC2HC2H2CHCH2CH3C4PC20H17C2H2C3H2CFeHC2HCH3PCFeH3SHC4HC6HC3HC3HCH2C4H5CH2CH4C2HC2HC4SC6HC4HCH3C5H2CPCFeC3H5C6HC7H7C2HSCHC3H2C6HC2H2CHC2HSHCFeH2CHPC3SHC3H2CHC2HC3HC2HCH3CH7CH3SC3H2C2HC5HC2H3CHCH2C2HC4HSCHC2H2CH2CH3CHC4H2C6PC13H9CH2SHSCHCSCH2CHC2H5C4HCHCHC2FeC2HCHCHC2H3CH3CH3SHCHPCSC3HCHC2H2SC3HCSCH2SCSH2CH2C2HCHC2PCHC2HCHC2HSFeS2HCFeSCHFeS2HFe2SFe2SC3SHC3SH2Fe2S2HCHS2FeS2FeS2FeSFeS3FeHSH2SFeSH2CFeS2HCSC6H4C6H2CHC6H4C3H3C2FeHC7H4C7H4C6H4C6H3C2HC2HFeCHCSH2C3HCH2C4PHCH4SCHC8H2CFeHCHPH3CH6CH2CHSC2H3C6PC13FeH2CSH6CH4CHCH2SH2C2HC2HCHC3HC6PC14HCHCFeCH14CH3C2H2CHC4SH2C4HPC2H3C9HCSH2CH6CHC8HCH2C3HC2HC3PC12H2CH10C6PC18H11C3H4SH2SC3H4CHCHC6PC3SC9H5CH3SH7CFeHC2SCH2CH2C3HCH2C2HCH3CPFeHC4H2CHC2H2CH2CHC2H2CH3CH2C3H2CH3FeC2HCHC5H4C2H3C5H2CSC2FeS2FeS2FeSFeS3FeS2FeS2C2HFeS2H2SFeS2FeSCH3FeS2FeS2FeSFeS3C7H2C2HC3HCH2CHCH2CHC4HCH2C6H4C6H5C6H3C6H4SCH2C3H5C5H2CHSC3HC2HCH2C4HC2H3SHCH2C3H2C2H4CHCH2C4H2CH2C3HC2HCH3C2PCHC3HC3HC3PC12H2SH3CH6C4HC2HCHCHCHC2HC2HSHC2HC3HPSH2CH3C7PC9HC6HCH10CH5C3HC3H5CH3C2HCFeCHC3HC3HSC4H2C2H2C2HCHCHCHC5H2FeC2HC3HCHC3H3C3PC2HPH3C5PHSC2HC7PC18H16CH3C6PC9HC4H3CH16CH2SCHC2HCHCPH11C4SH4C4H3C3SCHSHCHCH2SPFeSHFeS2FeSFeS3PSFeSFeS2FeS2FeSFeS3FeS2FeS2C6H4C6H4C6H6C2H2C2H2SCH2C9H2CSCH2CH3CHC5H2C6H4C5FeH2C8H5C4PC11H2CHFeH4CH6SH2C3HCH3CH4C3HC3HC2HCH3C2HC4HCHCPH3PC11H9C4H5C4HC3PC18H12SH4C2HCHC2H3CH5C2HC3HCHC7PC18H17C2H2CH3CHC3HSCHCH3C5HC2HCH3FeHCHC2HCHC2PHC4HC2HCH2C2HCH4C3H2C7H2C2H3C7PHC7H3CHCHC2HCH5SC3HCSHC2H3CHC4H3CHCHCHCH4C3HCH2PH2C2HCFeCHCH2C2HC2HCH3C2H2CHC2H2C2SFeS2FeS2FeSFeS3C2HS3FeSCFeS2FeS2FeSFeS3CH2CHC2H2SHFeS2FeS3HFeSHC7H2C6H4C3HC2H4C6H4C6H4C6H4C2H2C6H3C7H4C3HC2H4C4HSHSC2H3C3H2PHCH2FeSHCHC8PC18H12FeCH7C2HCH3C2HCHC5FeC2HCHC2H6CH2C7PC19H19CPC11H9CHC6PC17SH16CHCFeHC2HCHCHCHCH2C2HCHCHCH7C5H2CH3C11H11C4HCH2CH2C2H2CHC3H2SCHCH2C4HCH3C9PC3H3C12PHCH2C4H11C2H2SC2HC3FeC5HCSCPH2C5H4CH2CH4CHC4HPC5HCSC2PHFeHCSC2H2C7HC4SHCHCH4CH2C2H2C3H2C3SC3H2C2S2H3FeCSFeSHCS2H2SHSFeCH2C3SFeS2FeSFeSFeS3FeS2CH2FeSHS2FeSFeS2Fe2S3HCHC2HC6H5C2SC3HC7H4C2HC9H2CFeC6H5C3H3CH2C3H2C7H6CHCHC5H2CHFeC3HCH4SC2SCHC6PC18H12CH7C6PC3HCH3C6H5CH2C3H2CH4SH2FeCSC3H3C4H3C4HC2H2CHCH2C2H4CH2C2H2CHC3HFeCHCHCH3CHC3HC2HC3H3C4HC3H2SHCH2CH2PC2H3PHC2HC5H3CHC4FeCH2CHCHCH2CH2CHSHCPHPC5HCHC2HPC7HC4HSC2HCHC2HSH5CHCH5C7PC18H7FeH3CH12CHCSCSC5FeC4PHC4HC3H3C2HCH3C2HCFeC3SC4SHCHCHCHCH2C2SH2FeC2H3SCHCH4CHC3HCH3CHPC2H3C2SHCFeCFeS2FeSCSC2HFeHSCH2SCFeS2C2HSC3SFeS2FeS2FeSFeS4FeCFeS2Fe2S3CFeC9H4C6H4CH2FeSC4H2C7H4C7H2C7HC8H4SCH2SH2C4HC2HFeC6H2SC2H2CH3PHC8H3C2HC3SH3CH5C2H3C3H2C6PC16H6CPH12CSCFeCSC2H2C3HFeHC2H4C3HCSCH2C9HCH2C2HPHC4H2C3SCFeCPSCH3CHC2HCHC11H5CH2CFeH6C4HC3HC7HCH3SH4CHC2HPH11SH3C2HC4HC2HC2HC4H6C2HCHCHCFeH2CFeH5CHC2HC3H2C2PC2SH3C3SC8H2CH5CH2S2H7CHCH2CHC2HC3SHCH2CHC2H2C3HPH2C2HC3PC3H4C10H2SCHC2H4SHFeHCFeCH6CHCHCH3PC2H2C2H2PHSC2HCH3C2H2CSCFeSFeSHC2HC4HFeS2FeS2FeSFeS3FeCSCHS2CFeS2FeS2FeSFeS3C2FeS3C6H4C6H4C4HCH4C6H4C6HCH2C6H3CHCHC6H4C2HC4H3C8H9CHFePHCH2CH2C2H3PC3H2C11H2CH8CHCHCH2CHCHC3H2PC3HCH3CH2C2H2CHC4HC2HC2H3C2HC5HCHC6PC16HSH18SH3CHC3SCHC2HC2HCHCHCHC4SH3C2H2C3H2C9PC3HC2HC11HCHCHCH12C4PHC12H2CH4CH6C4H2CH2C3FeCH4CH2CHCH2CH2CH7CH3C2HC6H2C4H2CPHCHCH3CH3C4H2SH4CHCH3C3H2C3HC5H4CS2HC4SC5HCHPCS2FeSFeSHSCFeS2FeS2FeSFeS3CHS2CH2CSC3FeS2FeS2FeSFeS3HC6H4C6H3C6H4C6H4CH2C7H4C6H4C6H6CH4C2H2C3FeC4HCHCH3C2HFeHC2FeCH2CH2CHCHCHC2H2C2H2C2HCH2C4HC10HC5H2CH4C2HC6PC2FeHSC6H3CH9CH2C2H2CH8C2HPH4CH2CSHC2H2PH4C3PC9HC7HCH3CH3CH5C2H2C3HC8H4CH2C3H2C2H2PH3C2HC3H2CHCH2C2HC7H2CHC3PHCH9C11HCHCHC2HCHC2HCHCHC3H3C2HC3PCH2CSHC6H3CHC3HCFeC4H2C2H5CHCH4CHC2H2CHCH2CHC5H3CH2C2HCSCSH2SC4FeHPSPCH3SCSCFeSCFeS2FeS2FeSFeS3FeS2FeS2FeSFeS3CSH2C3HC2H4C6H4C6H5C3H4CHC2HCH2FeCHC2HCH2C2HC2H3C6H4C6H3C7PC4HC2H10C3PC8HSC2HCH3CH3C6PC4PC13H6CH4C2H6C5H2CSH3C3HC4H2C7S2FeC2H2C3H7SH4C3H5CHC2H4C4HC2H8C2HCH2C2H4FeCHC3H2CHC3H3C3HC2HC3PC2H3C3HCHC3HC2SC4H2CH3CHCH3CH2CH2C2H5SC6H2C2HC3HCH4CH4C2HC6H4C2HPCHC5PC14HC3HCH2CH8C3H3CHCHCHCHSC2HC2H2CH2CHC3H2C2HCHC2SC3FeC3HCH3C2HCHCHFeH2CHCHC2H2SHCH2C3HCH2FeCHCHFeS2FeS2HCSCH2SCFeH4FeS2FeS2Fe2S3FeS2FeSHFeSFeS3FeS2FeS2FeSFeS3CH2C2HCHC2H2C7H4C6H4C6H3SFeHCH3C4HCHC6H5C5H3CH2CH2CHC6PC7H3CHC2HPHCPC9HCHC7SHCH4C3HCHCHC3SC2H4CH3CHC4HC2H2CHFeC3H3C2HCHC2HC4HSHC3H3CHC2HCH2CSFeSH3C5HSC5H4CHCHCHCH3C7PC8H2C8H11C2H6C2HCHC5H2PH3SC7SH5CHCHFeHCPH2CH3CH2CH3CH3CH2CSHC8H2CH6C3HC3H2CH2C2HC3H5C4PC16H12C6PC9H2C4PC2HC2H7C2H2CH2C3H2CHCH2SHC2H2FeCH2FeSFeS2HFeSCSFeS2FeSHFeHFeS3HSC2SC2SHCFeS2FeS2FeSFeS3CS2FeSFeS2FeSFeS2CHCH2C2HC8H4C6H4C5HFeHC7H4C6H6CHSH5C6H7C6HCPC2HCHSHCHCFeSC2HCFeH2C2H2C6H3CH3C3HCHCH2CH2C2HC2HC4HC3PHCH2CHC2H2CHC3PH2C2HC2HCH3C3H2C2HCHC3HCHC4H3C2FeCH2CH5CHPC2HC12HCH4SH3CHC6PC19H19C6PC4H3C6H3C2H4CHC2H7CH4C4PC2FeC7HC8H2CHCFeHCH8CH2CH5CHCHC4HC4H2CSC3HCHC5PC4SHCH5CHS2CH2SH2C3HPC3HCHC2H2C3HC2HSH2CHCH6C2H2C8H2CH2C2HSHC2SC4SC2HC2HCH4PC2H3C3H2SH2C2HCHCFeC2HC3HCHCHFeSCFeSHFeSFeCS2FeS2FeS2FeSFeS3FeS2FeS2CSCFeS2FeS2FeSHFeSFeHS2CS2HSC2HSPS2FeS2FeSCFeSFeS3CH2C3HC4HC7H4C6H4FeCH2CH2C6H4C4H2C6H4C6H4C6H4C2HC7H4CH2C2H3CH2C2H2C2HCHC3HC4FeC3H3CHFeSH4CHC7PC9HC5HC2H8CH2SCH3CH3C6H8C3PC18H15C2H2C2HC3H2CH2C2HC5PC18H13CH3C2H2C2H3C3HC2SCHCPC3HC3H2CH2CH5FeCH5CHCHCH4CHC3H3CHCSC2PC2HC2H2CH3CH3CH4PHCPCSC2H2C7HFeCH3C3HCH3C8PC8H4C7H6CH2C4HCHCHC2PCHCH2C10HC5H5C2HC6HC2H2C2HCH2CH3C2H4CH4C2H2CH4CHCH2CSC2H2CH2C2HCHCHCHPCH4CFeC3HC3HC3HC3H2C4FeH2C3H3SCH2CHC6H3FeS4CS3FeS2FeS2Fe2S2FeS2FeSFeS3H2FeS2FeS2FeSFeCS2H2C2HS2C6H4C6H4C6H4CH2C2H3PC6H3C5H2C6H4C6H4C6HSHC4H2C6PC18HCH4CH4SH5CH3C5H7CFeCFeC3H2CFeCHC2HCHSCH5C2HC2HCHC3HC2H2CH2CH2CHC4PC19H20C2HCHCHCHC2H3C4HC6H2SCHC2HC3HC2SCFeC7PC9HC8H15SH2C6PC8H13C3SHCH4CH5CHC3H2C4SHSHCHC5H2C4H2FeC7PC18H8CH12C2H5PC2HC6H2C7FeH2C2HPH5C3H3CHCFeH2PHSH2CHCFeC4HSCHCHFeH4CFeHCH2CH2CHC2H2SH2CH2CH2CHCH2C3HCHCSH3CH4Fe2HSC5FeS2HCFeSHSFeS2FeS2HC2HCSCH2C2FeS2FeS2FeSFeS3CSFeSCFeCFeS2CSCSCFeS2FeS2FeSFeS3C6H2SHC6H6CH2C7H4C6H4CHC4H4C6H4C5H2C6H8C5H3C6H2CHC3H3CHC6PC14H3CH19PC7HCHCHCH9CH2CH3C2HCHC3HC3H3C2H2C4HCHCH2C2HCHCHCH3CH2CHCHCHC4H3CHCHC3H2C4H4C3H5CHC3HCHCHSH4PC3HC2HC2H2CHC2HC3HCH2PCHCH2C9H2C2H3SHC3H6CHC2HC2HCHC7PC6H10C6PC7HC8H19C3H2C3H3CHC2SCH2C3H2CHCHCH3CSCHFeCPCHCSC2HC5HC2HC19H2C2H4CH3C4H3C2HC6PC4H2CHCH3CPC3H2C2H2CH4C2H3CH2PH4C3SH2C3
_chemical_formula_sum              "Fe384 S768 C5760 H4608 P192"
_cell_length_a       72.2936
_cell_length_b       72.6434
_cell_length_c       72.7891
_cell_angle_alpha    77.462
_cell_angle_beta     77.4644
_cell_angle_gamma    77.5933

_space_group_name_H-M_alt    "P 1"
_space_group_IT_number       1

loop_
  _space_group_symop_operation_xyz
  'x, y, z'

loop_
  _atom_site_type_symbol
  _atom_site_label
  _atom_site_symmetry_multiplicity
  _atom_site_fract_x
  _atom_site_fract_y
  _atom_site_fract_z
  _atom_site_occupancy
  Fe  Fe1       1.0  0.37643  0.11349  0.21998  1.0000
  S   S1        1.0  0.35632  0.09233  0.22938  1.0000
  S   S2        1.0  0.40193  0.11245  0.23365  1.0000
  Fe  Fe2       1.0  0.35541  0.13580  0.18776  1.0000
  S   S3        1.0  0.33332  0.11655  0.19497  1.0000
  Fe  Fe3       1.0  0.33313  0.11805  0.22556  1.0000
  S   S4        1.0  0.30601  0.11989  0.24792  1.0000
  Fe  Fe4       1.0  0.35856  0.09279  0.19815  1.0000
  S   S5        1.0  0.36356  0.06461  0.18828  1.0000
  S   S6        1.0  0.35311  0.13941  0.21802  1.0000
  S   S7        1.0  0.38075  0.11181  0.18890  1.0000
  Fe  Fe5       1.0  0.39441  0.02182  0.05773  1.0000
  S   S8        1.0  0.42492  0.01836  0.06256  1.0000
  S   S9        1.0  0.39102  0.00083  0.03946  1.0000
  Fe  Fe6       1.0  0.38006  0.04775  0.08791  1.0000
  S   S10       1.0  0.40898  0.04479  0.09558  1.0000
  S   S11       1.0  0.35689  0.06873  0.10239  1.0000
  Fe  Fe7       1.0  0.41937  0.04982  0.06401  1.0000
  S   S12       1.0  0.44054  0.07054  0.05059  1.0000
  Fe  Fe8       1.0  0.41201  0.01387  0.09375  1.0000
  C   C1        1.0  0.42909  0.05838  0.13335  1.0000
  S   S13       1.0  0.39006  0.05400  0.05600  1.0000
  S   S14       1.0  0.38192  0.01616  0.08930  1.0000
  C   C2        1.0  0.44264  0.06092  0.21220  1.0000
  Fe  Fe9       1.0  0.40427  0.01882  0.30446  1.0000
  S   S15       1.0  0.37376  0.03422  0.30943  1.0000
  S   S16       1.0  0.42800  0.03143  0.28324  1.0000
  Fe  Fe10      1.0  0.37573  0.02536  0.34060  1.0000
  S   S17       1.0  0.36265  0.04629  0.36109  1.0000
  C   C3        1.0  0.47976  0.06580  0.01210  1.0000
  S   S18       1.0  0.40674  0.01148  0.33560  1.0000
  C   C4        1.0  0.45173  0.04177  0.21516  1.0000
  Fe  Fe11      1.0  0.40674  0.12654  0.45202  1.0000
  Fe  Fe12      1.0  0.38451  0.14534  0.41937  1.0000
  S   S19       1.0  0.36864  0.12110  0.42315  1.0000
  C   C5        1.0  0.99296  0.09552  0.46733  1.0000
  Fe  Fe13      1.0  0.39728  0.10236  0.42569  1.0000
  S   S20       1.0  0.40899  0.07662  0.41053  1.0000
  S   S21       1.0  0.37886  0.14726  0.45045  1.0000
  S   S22       1.0  0.41375  0.12678  0.42013  1.0000
  S   S23       1.0  0.10497  0.12580  0.47584  1.0000
  H   H1        1.0  0.48817  0.12346  0.16863  1.0000
  S   S24       1.0  0.07953  0.17003  0.44333  1.0000
  C   C6        1.0  0.32627  0.02129  0.09970  1.0000
  S   S25       1.0  0.15373  0.09913  0.45128  1.0000
  S   S26       1.0  0.13457  0.15401  0.44912  1.0000
  Fe  Fe14      1.0  0.25043  0.15640  0.36915  1.0000
  S   S27       1.0  0.22767  0.11724  0.39088  1.0000
  H   H2        1.0  0.45205  0.99684  0.19523  1.0000
  P   P1        1.0  0.32903  0.98433  0.09258  1.0000
  C   C7        1.0  0.28117  0.14576  0.41627  1.0000
  C   C8        1.0  0.44082  0.06739  0.15827  1.0000
  S   S28       1.0  0.28337  0.15726  0.36440  1.0000
  Fe  Fe15      1.0  0.39580  0.98502  0.33509  1.0000
  H   H3        1.0  0.43281  0.11549  0.20224  1.0000
  S   S29       1.0  0.47427  0.11677  0.09767  1.0000
  Fe  Fe16      1.0  0.01549  0.12954  0.38836  1.0000
  S   S30       1.0  0.02063  0.11617  0.36206  1.0000
  S   S31       1.0  0.03779  0.11973  0.40816  1.0000
  Fe  Fe17      1.0  0.36596  0.00548  0.31068  1.0000
  C   C9        1.0  0.45054  0.15695  0.18434  1.0000
  Fe  Fe18      1.0  0.13670  0.12384  0.46505  1.0000
  H   H4        1.0  0.38732  0.98544  0.12528  1.0000
  C   C10       1.0  0.45899  0.01734  0.16970  1.0000
  Fe  Fe19      1.0  0.01305  0.14661  0.34709  1.0000
  S   S32       1.0  0.03290  0.15807  0.32038  1.0000
  C   C11       1.0  0.29371  0.17748  0.23488  1.0000
  S   S33       1.0  0.00896  0.15975  0.37321  1.0000
  H   H5        1.0  0.47377  0.03245  0.40379  1.0000
  C   C12       1.0  0.08642  0.06761  0.43149  1.0000
  C   C13       1.0  0.06008  0.17205  0.36920  1.0000
  H   H6        1.0  0.44245  0.15812  0.44970  1.0000
  C   C14       1.0  0.20416  0.10668  0.46436  1.0000
  H   H7        1.0  0.13507  0.12402  0.42214  1.0000
  C   C15       1.0  0.45705  0.16838  0.46754  1.0000
  H   H8        1.0  0.47375  0.03311  0.05941  1.0000
  H   H9        1.0  0.99253  0.08010  0.20178  1.0000
  S   S34       1.0  0.34084  0.00165  0.29835  1.0000
  C   C16       1.0  0.46880  0.14913  0.17512  1.0000
  H   H10       1.0  0.39619  0.05477  0.21985  1.0000
  H   H11       1.0  0.46820  0.09184  0.99468  1.0000
  C   C17       1.0  0.26007  0.03558  0.43119  1.0000
  C   C18       1.0  0.04968  0.13442  0.41675  1.0000
  C   C19       1.0  0.06602  0.12583  0.42501  1.0000
  C   C20       1.0  0.07532  0.13654  0.43304  1.0000
  C   C21       1.0  0.06843  0.15610  0.43289  1.0000
  C   C22       1.0  0.05225  0.16480  0.42431  1.0000
  C   C23       1.0  0.04291  0.15405  0.41631  1.0000
  H   H12       1.0  0.07148  0.11073  0.42531  1.0000
  H   H13       1.0  0.08779  0.12959  0.43943  1.0000
  C   C24       1.0  0.42852  0.02377  0.42276  1.0000
  H   H14       1.0  0.03031  0.16088  0.41007  1.0000
  C   C25       1.0  0.17285  0.10546  0.43308  1.0000
  C   C26       1.0  0.17800  0.12351  0.42997  1.0000
  C   C27       1.0  0.19394  0.12800  0.41609  1.0000
  C   C28       1.0  0.20516  0.11426  0.40551  1.0000
  C   C29       1.0  0.19953  0.09641  0.40822  1.0000
  C   C30       1.0  0.18345  0.09203  0.42192  1.0000
  H   H15       1.0  0.17048  0.13369  0.43900  1.0000
  H   H16       1.0  0.19811  0.14159  0.41476  1.0000
  H   H17       1.0  0.20791  0.08573  0.39999  1.0000
  H   H18       1.0  0.17950  0.07806  0.42418  1.0000
  C   C31       1.0  0.36662  0.11562  0.35541  1.0000
  C   C32       1.0  0.42274  0.07838  0.16350  1.0000
  H   H19       1.0  0.23085  0.04790  0.42753  1.0000
  H   H20       1.0  0.42020  0.08625  0.17509  1.0000
  C   C33       1.0  0.36334  0.17103  0.24737  1.0000
  H   H21       1.0  0.20240  0.17127  0.42422  1.0000
  H   H22       1.0  0.44812  0.01240  0.22174  1.0000
  H   H23       1.0  0.39946  0.06989  0.13115  1.0000
  C   C34       1.0  0.02218  0.01815  0.02583  1.0000
  H   H24       1.0  0.33245  0.16324  0.34104  1.0000
  C   C35       1.0  0.37600  0.05464  0.37444  1.0000
  C   C36       1.0  0.39529  0.04676  0.37536  1.0000
  C   C37       1.0  0.40522  0.05364  0.38641  1.0000
  C   C38       1.0  0.39602  0.06847  0.39664  1.0000
  C   C39       1.0  0.37675  0.07629  0.39571  1.0000
  C   C40       1.0  0.36681  0.06938  0.38472  1.0000
  H   H25       1.0  0.40256  0.03541  0.36754  1.0000
  H   H26       1.0  0.42018  0.04759  0.38684  1.0000
  H   H27       1.0  0.36953  0.08772  0.40343  1.0000
  H   H28       1.0  0.35200  0.07570  0.38395  1.0000
  C   C41       1.0  0.37492  0.99719  0.02560  1.0000
  C   C42       1.0  0.10451  0.08501  0.44397  1.0000
  C   C43       1.0  0.36057  0.01182  0.01895  1.0000
  C   C44       1.0  0.40616  0.02216  0.18701  1.0000
  H   H29       1.0  0.35932  0.02609  0.02166  1.0000
  C   C45       1.0  0.44902  0.08415  0.06371  1.0000
  C   C46       1.0  0.44253  0.08359  0.08336  1.0000
  C   C47       1.0  0.45020  0.09385  0.09344  1.0000
  C   C48       1.0  0.46449  0.10479  0.08406  1.0000
  C   C49       1.0  0.47063  0.10581  0.06432  1.0000
  C   C50       1.0  0.46296  0.09554  0.05424  1.0000
  H   H30       1.0  0.43166  0.07518  0.09083  1.0000
  H   H31       1.0  0.44495  0.09328  0.10860  1.0000
  H   H32       1.0  0.48135  0.11445  0.05686  1.0000
  H   H33       1.0  0.46797  0.09627  0.03903  1.0000
  C   C51       1.0  0.21205  0.13848  0.45353  1.0000
  C   C52       1.0  0.26726  0.12949  0.44715  1.0000
  C   C53       1.0  0.21910  0.09981  0.45045  1.0000
  H   H34       1.0  0.41552  0.08023  0.21147  1.0000
  H   H35       1.0  0.22157  0.08493  0.44898  1.0000
  C   C54       1.0  0.40939  0.01838  0.16847  1.0000
  C   C55       1.0  0.30627  0.13258  0.26594  1.0000
  C   C56       1.0  0.28984  0.13606  0.27997  1.0000
  C   C57       1.0  0.29014  0.14600  0.29449  1.0000
  C   C58       1.0  0.30701  0.15218  0.29512  1.0000
  C   C59       1.0  0.32334  0.14856  0.28121  1.0000
  C   C60       1.0  0.32288  0.13915  0.26652  1.0000
  H   H36       1.0  0.38062  0.08269  0.25530  1.0000
  H   H37       1.0  0.33643  0.15304  0.28181  1.0000
  H   H38       1.0  0.33560  0.13658  0.25593  1.0000
  C   C61       1.0  0.35880  0.06752  0.12625  1.0000
  C   C62       1.0  0.36584  0.05015  0.13723  1.0000
  C   C63       1.0  0.36672  0.04931  0.15647  1.0000
  C   C64       1.0  0.36132  0.06594  0.16453  1.0000
  C   C65       1.0  0.35436  0.08333  0.15353  1.0000
  C   C66       1.0  0.35281  0.08405  0.13450  1.0000
  H   H39       1.0  0.37023  0.03729  0.13102  1.0000
  H   H40       1.0  0.37156  0.03577  0.16514  1.0000
  H   H41       1.0  0.35010  0.09621  0.15970  1.0000
  H   H42       1.0  0.34726  0.09750  0.12605  1.0000
  C   C67       1.0  0.40879  0.09025  0.24814  1.0000
  C   C68       1.0  0.42794  0.08440  0.25080  1.0000
  C   C69       1.0  0.43377  0.06631  0.26155  1.0000
  C   C70       1.0  0.42041  0.05417  0.27004  1.0000
  C   C71       1.0  0.40123  0.06027  0.26773  1.0000
  C   C72       1.0  0.39546  0.07821  0.25681  1.0000
  H   H43       1.0  0.43836  0.09364  0.24420  1.0000
  H   H44       1.0  0.44864  0.06172  0.26331  1.0000
  H   H45       1.0  0.39083  0.05106  0.27396  1.0000
  C   C73       1.0  0.41918  0.14921  0.27391  1.0000
  C   C74       1.0  0.34460  0.07703  0.31234  1.0000
  C   C75       1.0  0.34120  0.08357  0.29367  1.0000
  C   C76       1.0  0.34962  0.09871  0.28218  1.0000
  C   C77       1.0  0.36146  0.10739  0.28926  1.0000
  C   C78       1.0  0.36537  0.10048  0.30784  1.0000
  C   C79       1.0  0.35659  0.08549  0.31941  1.0000
  P   P2        1.0  0.38111  0.11053  0.31754  1.0000
  C   C80       1.0  0.39965  0.09161  0.32602  1.0000
  C   C81       1.0  0.39461  0.12657  0.29992  1.0000
  C   C82       1.0  0.40434  0.12093  0.28261  1.0000
  C   C83       1.0  0.40977  0.15483  0.29126  1.0000
  C   C84       1.0  0.39758  0.14352  0.30427  1.0000
  C   C85       1.0  0.46169  0.02490  0.40784  1.0000
  C   C86       1.0  0.45544  0.99964  0.34412  1.0000
  C   C87       1.0  0.41167  0.05085  0.21882  1.0000
  C   C88       1.0  0.41973  0.06031  0.32443  1.0000
  C   C89       1.0  0.40468  0.07451  0.31862  1.0000
  C   C90       1.0  0.36604  0.12287  0.33600  1.0000
  C   C91       1.0  0.35333  0.13991  0.33092  1.0000
  C   C92       1.0  0.41521  0.99962  0.16523  1.0000
  H   H46       1.0  0.33814  0.06524  0.32132  1.0000
  H   H47       1.0  0.33199  0.07699  0.28808  1.0000
  H   H48       1.0  0.34691  0.10370  0.26773  1.0000
  H   H49       1.0  0.36746  0.11934  0.28015  1.0000
  H   H50       1.0  0.35917  0.08025  0.33389  1.0000
  H   H51       1.0  0.40289  0.10750  0.27941  1.0000
  H   H52       1.0  0.39096  0.14778  0.31790  1.0000
  C   C93       1.0  0.42066  0.03155  0.22206  1.0000
  H   H53       1.0  0.42358  0.04727  0.31852  1.0000
  H   H54       1.0  0.39724  0.07214  0.30816  1.0000
  H   H55       1.0  0.35198  0.14536  0.31608  1.0000
  C   C94       1.0  0.44079  0.14716  0.12806  1.0000
  H   H56       1.0  0.41487  0.03068  0.42996  1.0000
  H   H57       1.0  0.37386  0.16035  0.24053  1.0000
  P   P3        1.0  0.40658  0.01283  0.22602  1.0000
  S   S35       1.0  0.25142  0.17208  0.33686  1.0000
  C   C95       1.0  0.46074  0.99910  0.18113  1.0000
  C   C96       1.0  0.39013  0.10657  0.09702  1.0000
  H   H58       1.0  0.25315  0.16682  0.47418  1.0000
  H   H59       1.0  0.44885  0.02899  0.17525  1.0000
  C   C97       1.0  0.28137  0.17433  0.46526  1.0000
  C   C98       1.0  0.38207  0.02219  0.23556  1.0000
  C   C99       1.0  0.37759  0.02599  0.25426  1.0000
  C   C100      1.0  0.35896  0.03444  0.26158  1.0000
  C   C101      1.0  0.34466  0.03896  0.25039  1.0000
  C   C102      1.0  0.34899  0.03507  0.23182  1.0000
  C   C103      1.0  0.36759  0.02660  0.22443  1.0000
  H   H60       1.0  0.33683  0.01947  0.00354  1.0000
  H   H61       1.0  0.43296  0.00481  0.25413  1.0000
  C   C104      1.0  0.43022  0.00580  0.41790  1.0000
  H   H62       1.0  0.00191  0.03616  0.04379  1.0000
  H   H63       1.0  0.38855  0.02259  0.26312  1.0000
  H   H64       1.0  0.35550  0.03736  0.27601  1.0000
  H   H65       1.0  0.33028  0.04551  0.25617  1.0000
  H   H66       1.0  0.33813  0.03906  0.22288  1.0000
  H   H67       1.0  0.37059  0.02410  0.20989  1.0000
  C   C105      1.0  0.40785  0.07928  0.15373  1.0000
  C   C106      1.0  0.40894  0.00714  0.20253  1.0000
  C   C107      1.0  0.34792  0.00805  0.00847  1.0000
  S   S36       1.0  0.36472  0.99819  0.34259  1.0000
  H   H68       1.0  0.29015  0.02721  0.43271  1.0000
  H   H69       1.0  0.09137  0.09373  0.47078  1.0000
  C   C108      1.0  0.35658  0.00072  0.16332  1.0000
  C   C109      1.0  0.48337  0.07602  0.13323  1.0000
  C   C110      1.0  0.48076  0.05110  0.09635  1.0000
  C   C111      1.0  0.33878  0.00635  0.20026  1.0000
  C   C112      1.0  0.32959  0.01556  0.18475  1.0000
  C   C113      1.0  0.33853  0.01241  0.16625  1.0000
  P   P4        1.0  0.30526  0.02860  0.18902  1.0000
  C   C114      1.0  0.28910  0.01150  0.19775  1.0000
  C   C115      1.0  0.30317  0.04283  0.20721  1.0000
  C   C116      1.0  0.29830  0.03481  0.22664  1.0000
  C   C117      1.0  0.29621  0.04574  0.24084  1.0000
  C   C118      1.0  0.29922  0.06470  0.23579  1.0000
  C   C119      1.0  0.30451  0.07265  0.21658  1.0000
  C   C120      1.0  0.30652  0.06180  0.20232  1.0000
  C   C121      1.0  0.27019  0.01736  0.20693  1.0000
  H   H70       1.0  0.40721  0.03000  0.15657  1.0000
  H   H71       1.0  0.05913  0.06273  0.44860  1.0000
  C   C122      1.0  0.44567  0.15650  0.46384  1.0000
  H   H72       1.0  0.28739  0.11523  0.46599  1.0000
  C   C123      1.0  0.29929  0.04377  0.16706  1.0000
  C   C124      1.0  0.31205  0.05553  0.15557  1.0000
  C   C125      1.0  0.30763  0.06709  0.13850  1.0000
  C   C126      1.0  0.29057  0.06687  0.13260  1.0000
  C   C127      1.0  0.27787  0.05508  0.14379  1.0000
  C   C128      1.0  0.28218  0.04356  0.16094  1.0000
  C   C129      1.0  0.47336  0.03462  0.07397  1.0000
  C   C130      1.0  0.10900  0.17447  0.32230  1.0000
  H   H73       1.0  0.45600  0.14454  0.12866  1.0000
  H   H74       1.0  0.33183  0.00777  0.21476  1.0000
  H   H75       1.0  0.33158  0.01871  0.15405  1.0000
  H   H76       1.0  0.29630  0.02003  0.23087  1.0000
  H   H77       1.0  0.29258  0.03938  0.25578  1.0000
  H   H78       1.0  0.29781  0.07319  0.24675  1.0000
  H   H79       1.0  0.30721  0.08723  0.21276  1.0000
  H   H80       1.0  0.31089  0.06834  0.18765  1.0000
  H   H81       1.0  0.26520  0.03211  0.20884  1.0000
  H   H82       1.0  0.31200  0.14362  0.41097  1.0000
  H   H83       1.0  0.43116  0.05083  0.12164  1.0000
  H   H84       1.0  0.34509  0.08659  0.44831  1.0000
  C   C131      1.0  0.99240  0.10929  0.20344  1.0000
  H   H85       1.0  0.32550  0.05566  0.15974  1.0000
  H   H86       1.0  0.31755  0.07612  0.12971  1.0000
  H   H87       1.0  0.28728  0.07580  0.11931  1.0000
  H   H88       1.0  0.26467  0.05485  0.13916  1.0000
  H   H89       1.0  0.27215  0.03449  0.16922  1.0000
  C   C132      1.0  0.14777  0.15738  0.31966  1.0000
  H   H90       1.0  0.30982  0.98728  0.18886  1.0000
  H   H91       1.0  0.00787  0.10810  0.19911  1.0000
  H   H92       1.0  0.47884  0.15836  0.16695  1.0000
  C   C133      1.0  0.11486  0.15993  0.33715  1.0000
  C   C134      1.0  0.13429  0.15105  0.33545  1.0000
  P   P5        1.0  0.09739  0.15280  0.35800  1.0000
  C   C135      1.0  0.41358  0.99213  0.24363  1.0000
  C   C136      1.0  0.08604  0.13482  0.35354  1.0000
  C   C137      1.0  0.07940  0.12082  0.36867  1.0000
  C   C138      1.0  0.07064  0.10685  0.36518  1.0000
  C   C139      1.0  0.06823  0.10692  0.34662  1.0000
  C   C140      1.0  0.07419  0.12121  0.33162  1.0000
  C   C141      1.0  0.08306  0.13513  0.33504  1.0000
  H   H93       1.0  0.05051  0.12144  0.46453  1.0000
  C   C142      1.0  0.29524  0.99230  0.19553  1.0000
  C   C143      1.0  0.25767  0.00415  0.21385  1.0000
  H   H94       1.0  0.45332  0.01720  0.11933  1.0000
  C   C144      1.0  0.35079  0.00663  0.39667  1.0000
  C   C145      1.0  0.10908  0.14353  0.37852  1.0000
  C   C146      1.0  0.10737  0.15477  0.39242  1.0000
  C   C147      1.0  0.11679  0.14774  0.40798  1.0000
  C   C148      1.0  0.12786  0.12939  0.40998  1.0000
  C   C149      1.0  0.12949  0.11796  0.39636  1.0000
  C   C150      1.0  0.12007  0.12496  0.38070  1.0000
  C   C151      1.0  0.08969  0.08669  0.45977  1.0000
  H   H95       1.0  0.25503  0.12559  0.45768  1.0000
  H   H96       1.0  0.23171  0.98173  0.98687  1.0000
  C   C152      1.0  0.29951  0.13960  0.42105  1.0000
  H   H97       1.0  0.13927  0.13968  0.34646  1.0000
  H   H98       1.0  0.08053  0.12092  0.38324  1.0000
  H   H99       1.0  0.06511  0.09640  0.37701  1.0000
  H   H100      1.0  0.06103  0.09636  0.34401  1.0000
  H   H101      1.0  0.07139  0.12189  0.31744  1.0000
  H   H102      1.0  0.08714  0.14633  0.32331  1.0000
  H   H103      1.0  0.05535  0.15843  0.37147  1.0000
  C   C153      1.0  0.27481  0.98393  0.12443  1.0000
  C   C154      1.0  0.02493  0.00282  0.01616  1.0000
  H   H104      1.0  0.03937  0.09649  0.44577  1.0000
  C   C155      1.0  0.46323  0.02326  0.08911  1.0000
  H   H105      1.0  0.09874  0.16894  0.39149  1.0000
  H   H106      1.0  0.11525  0.15658  0.41857  1.0000
  C   C156      1.0  0.36564  0.99165  0.17883  1.0000
  H   H107      1.0  0.12141  0.11596  0.37024  1.0000
  H   H108      1.0  0.99151  0.04485  0.99744  1.0000
  C   C157      1.0  0.40603  0.13131  0.06539  1.0000
  C   C158      1.0  0.40254  0.11377  0.06318  1.0000
  C   C159      1.0  0.39455  0.10144  0.07898  1.0000
  C   C160      1.0  0.28934  0.16429  0.22578  1.0000
  H   H109      1.0  0.15756  0.99266  0.13381  1.0000
  C   C161      1.0  0.35572  0.01762  0.40782  1.0000
  C   C162      1.0  0.40762  0.14915  0.14404  1.0000
  C   C163      1.0  0.43749  0.14470  0.19397  1.0000
  H   H110      1.0  0.41217  0.14058  0.05285  1.0000
  H   H111      1.0  0.40634  0.10952  0.04926  1.0000
  H   H112      1.0  0.39190  0.08782  0.07727  1.0000
  C   C164      1.0  0.20077  0.12598  0.46600  1.0000
  C   C165      1.0  0.42265  0.06541  0.21380  1.0000
  H   H113      1.0  0.39702  0.14818  0.15711  1.0000
  H   H114      1.0  0.43182  0.14153  0.15855  1.0000
  H   H115      1.0  0.39378  0.08765  0.15785  1.0000
  C   C166      1.0  0.00400  0.02455  0.03597  1.0000
  H   H116      1.0  0.28738  0.98743  0.09464  1.0000
  C   C167      1.0  0.28385  0.05618  0.41721  1.0000
  C   C168      1.0  0.22641  0.13193  0.43879  1.0000
  P   P6        1.0  0.30829  0.06027  0.41325  1.0000
  C   C169      1.0  0.32474  0.03888  0.40742  1.0000
  C   C170      1.0  0.31128  0.07959  0.39310  1.0000
  C   C171      1.0  0.31498  0.07613  0.37428  1.0000
  C   C172      1.0  0.31646  0.09130  0.35879  1.0000
  C   C173      1.0  0.31461  0.10994  0.36191  1.0000
  C   C174      1.0  0.31096  0.11345  0.38059  1.0000
  C   C175      1.0  0.30899  0.09845  0.39612  1.0000
  C   C176      1.0  0.31983  0.02759  0.39641  1.0000
  C   C177      1.0  0.31280  0.06679  0.43430  1.0000
  C   C178      1.0  0.30010  0.06404  0.45186  1.0000
  H   H117      1.0  0.47425  0.16952  0.20427  1.0000
  S   S37       1.0  0.37801  0.17073  0.39626  1.0000
  C   C179      1.0  0.33256  0.08021  0.44927  1.0000
  C   C180      1.0  0.32899  0.07505  0.43313  1.0000
  C   C181      1.0  0.35316  0.17638  0.39570  1.0000
  Fe  Fe20      1.0  0.10299  0.15646  0.46135  1.0000
  H   H118      1.0  0.31681  0.06179  0.37141  1.0000
  H   H119      1.0  0.31909  0.08860  0.34433  1.0000
  H   H120      1.0  0.31595  0.12164  0.34984  1.0000
  H   H121      1.0  0.30957  0.12786  0.38306  1.0000
  H   H122      1.0  0.30554  0.10167  0.41043  1.0000
  H   H123      1.0  0.30620  0.03150  0.39143  1.0000
  H   H124      1.0  0.11732  0.09100  0.44281  1.0000
  C   C182      1.0  0.36796  0.17333  0.08717  1.0000
  H   H125      1.0  0.27958  0.15501  0.40279  1.0000
  H   H126      1.0  0.34468  0.16613  0.42583  1.0000
  H   H127      1.0  0.33884  0.07753  0.41972  1.0000
  C   C183      1.0  0.31273  0.99116  0.05966  1.0000
  C   C184      1.0  0.44295  0.12487  0.19488  1.0000
  C   C185      1.0  0.35673  0.99446  0.19730  1.0000
  H   H128      1.0  0.35640  0.12035  0.38437  1.0000
  H   H129      1.0  0.36990  0.01419  0.41164  1.0000
  H   H130      1.0  0.47007  0.08421  0.12907  1.0000
  H   H131      1.0  0.00683  0.10422  0.43825  1.0000
  C   C186      1.0  0.34222  0.15006  0.34501  1.0000
  C   C187      1.0  0.26393  0.98504  0.21161  1.0000
  C   C188      1.0  0.44282  0.15384  0.06224  1.0000
  C   C189      1.0  0.47033  0.03990  0.11163  1.0000
  H   H132      1.0  0.46530  0.10188  0.18635  1.0000
  C   C190      1.0  0.29020  0.98513  0.10904  1.0000
  C   C191      1.0  0.33752  0.99156  0.27922  1.0000
  H   H133      1.0  0.16286  0.15099  0.31872  1.0000
  C   C192      1.0  0.32001  0.17822  0.41223  1.0000
  C   C193      1.0  0.02742  0.09347  0.45712  1.0000
  C   C194      1.0  0.29809  0.16293  0.20692  1.0000
  H   H134      1.0  0.41768  0.99899  0.42156  1.0000
  H   H135      1.0  0.28721  0.17767  0.24969  1.0000
  C   C195      1.0  0.99056  0.05275  0.98313  1.0000
  H   H136      1.0  0.24320  0.00868  0.22117  1.0000
  C   C196      1.0  0.30174  0.12853  0.43891  1.0000
  H   H137      1.0  0.34726  0.04221  0.42128  1.0000
  S   S38       1.0  0.39645  0.99077  0.30345  1.0000
  C   C197      1.0  0.48285  0.00465  0.14448  1.0000
  Fe  Fe21      1.0  0.28252  0.17292  0.33466  1.0000
  H   H138      1.0  0.03425  0.02478  0.02583  1.0000
  H   H139      1.0  0.30153  0.99682  0.03340  1.0000
  C   C198      1.0  0.35561  0.12586  0.36944  1.0000
  C   C199      1.0  0.38597  0.17717  0.08794  1.0000
  C   C200      1.0  0.46167  0.02588  0.10785  1.0000
  H   H140      1.0  0.45621  0.01264  0.08631  1.0000
  C   C201      1.0  0.33282  0.01157  0.39104  1.0000
  H   H141      1.0  0.38395  0.09694  0.10920  1.0000
  H   H142      1.0  0.19815  0.99966  0.98889  1.0000
  C   C202      1.0  0.48610  0.05594  0.13777  1.0000
  H   H143      1.0  0.44270  0.04739  0.42128  1.0000
  H   H144      1.0  0.08515  0.06023  0.42051  1.0000
  C   C203      1.0  0.40188  0.13651  0.08358  1.0000
  H   H145      1.0  0.38635  0.15674  0.12602  1.0000
  C   C204      1.0  0.34782  0.18116  0.23864  1.0000
  C   C205      1.0  0.22474  0.15040  0.36778  1.0000
  C   C206      1.0  0.24143  0.13689  0.35832  1.0000
  C   C207      1.0  0.25844  0.12795  0.36821  1.0000
  C   C208      1.0  0.25847  0.13187  0.38789  1.0000
  C   C209      1.0  0.24196  0.14522  0.39758  1.0000
  C   C210      1.0  0.22499  0.15438  0.38734  1.0000
  H   H146      1.0  0.33491  0.15095  0.37516  1.0000
  H   H147      1.0  0.36113  0.99471  0.39185  1.0000
  C   C211      1.0  0.23029  0.11235  0.43783  1.0000
  H   H148      1.0  0.21241  0.15658  0.36089  1.0000
  H   H149      1.0  0.24092  0.13329  0.34478  1.0000
  H   H150      1.0  0.27003  0.11791  0.36175  1.0000
  H   H151      1.0  0.26997  0.12415  0.39534  1.0000
  C   C212      1.0  0.41480  0.98823  0.19911  1.0000
  H   H152      1.0  0.46723  0.03828  0.21395  1.0000
  H   H153      1.0  0.16552  0.15848  0.40322  1.0000
  H   H154      1.0  0.13810  0.10372  0.39800  1.0000
  H   H155      1.0  0.24163  0.10691  0.42693  1.0000
  H   H156      1.0  0.41764  0.99686  0.15085  1.0000
  C   C213      1.0  0.42517  0.16614  0.06610  1.0000
  H   H157      1.0  0.32378  0.04995  0.10474  1.0000
  H   H158      1.0  0.42888  0.15777  0.26397  1.0000
  C   C214      1.0  0.48229  0.04840  0.07759  1.0000
  C   C215      1.0  0.34203  0.01586  0.06793  1.0000
  S   S39       1.0  0.35512  0.15898  0.16152  1.0000
  S   S40       1.0  0.16443  0.17622  0.47377  1.0000
  H   H159      1.0  0.11425  0.07445  0.41745  1.0000
  H   H160      1.0  0.06539  0.17700  0.30164  1.0000
  C   C216      1.0  0.45650  0.15877  0.04609  1.0000
  C   C217      1.0  0.46999  0.02023  0.15122  1.0000
  C   C218      1.0  0.41634  0.13234  0.26954  1.0000
  H   H161      1.0  0.44588  0.14031  0.07166  1.0000
  C   C219      1.0  0.42720  0.14548  0.14489  1.0000
  C   C220      1.0  0.42518  0.08011  0.34483  1.0000
  H   H162      1.0  0.25648  0.02196  0.43905  1.0000
  C   C221      1.0  0.43485  0.15197  0.11032  1.0000
  H   H163      1.0  0.32922  0.00340  0.38191  1.0000
  C   C222      1.0  0.30924  0.98623  0.04333  1.0000
  C   C223      1.0  0.00885  0.09814  0.45283  1.0000
  C   C224      1.0  0.44424  0.03329  0.41776  1.0000
  H   H164      1.0  0.37551  0.10207  0.35981  1.0000
  C   C225      1.0  0.25023  0.06775  0.41470  1.0000
  C   C226      1.0  0.41525  0.15490  0.10925  1.0000
  H   H165      1.0  0.44123  0.05183  0.34244  1.0000
  C   C227      1.0  0.42690  0.99218  0.25509  1.0000
  H   H166      1.0  0.34752  0.00644  0.05761  1.0000
  H   H167      1.0  0.45218  0.06677  0.16604  1.0000
  C   C228      1.0  0.33285  0.00885  0.08639  1.0000
  H   H168      1.0  0.39020  0.12745  0.11355  1.0000
  C   C229      1.0  0.24563  0.05016  0.42475  1.0000
  H   H169      1.0  0.25940  0.17906  0.42659  1.0000
  P   P7        1.0  0.40726  0.15886  0.08655  1.0000
  H   H170      1.0  0.28738  0.05793  0.45322  1.0000
  C   C230      1.0  0.33979  0.17269  0.41249  1.0000
  C   C231      1.0  0.44416  0.05737  0.14304  1.0000
  H   H171      1.0  0.48720  0.06232  0.09872  1.0000
  C   C232      1.0  0.26920  0.07085  0.41103  1.0000
  H   H172      1.0  0.44574  0.15318  0.09764  1.0000
  P   P8        1.0  0.24123  0.14776  0.42230  1.0000
  C   C233      1.0  0.34433  0.03503  0.06272  1.0000
  H   H173      1.0  0.33954  0.06214  0.07195  1.0000
  H   H174      1.0  0.42294  0.15034  0.20030  1.0000
  H   H175      1.0  0.43681  0.00486  0.37045  1.0000
  C   C234      1.0  0.07163  0.06917  0.44736  1.0000
  C   C235      1.0  0.33746  0.04735  0.07590  1.0000
  H   H176      1.0  0.35178  0.04027  0.04859  1.0000
  H   H177      1.0  0.27964  0.15461  0.23361  1.0000
  H   H178      1.0  0.45531  0.15700  0.39209  1.0000
  C   C236      1.0  0.36046  0.18112  0.16279  1.0000
  C   C237      1.0  0.44082  0.02713  0.21983  1.0000
  H   H179      1.0  0.29508  0.15230  0.20012  1.0000
  C   C238      1.0  0.41103  0.06928  0.13867  1.0000
  H   H180      1.0  0.47025  0.14939  0.04353  1.0000
  C   C239      1.0  0.31993  0.07730  0.46669  1.0000
  H   H181      1.0  0.31594  0.12404  0.44270  1.0000
  C   C240      1.0  0.26491  0.14040  0.42900  1.0000
  C   C241      1.0  0.14201  0.18098  0.36663  1.0000
  H   H182      1.0  0.30797  0.00571  0.28210  1.0000
  C   C242      1.0  0.27912  0.03857  0.42749  1.0000
  H   H183      1.0  0.34673  0.17843  0.22495  1.0000
  C   C243      1.0  0.26140  0.17832  0.47072  1.0000
  C   C244      1.0  0.42795  0.17343  0.40239  1.0000
  P   P9        1.0  0.46763  0.04350  0.13593  1.0000
  H   H184      1.0  0.04669  0.17988  0.42412  1.0000
  C   C245      1.0  0.41042  0.09452  0.33872  1.0000
  H   H185      1.0  0.42367  0.12783  0.25616  1.0000
  H   H186      1.0  0.40150  0.03687  0.18915  1.0000
  C   C246      1.0  0.46123  0.11720  0.18587  1.0000
  C   C247      1.0  0.48034  0.08418  0.00137  1.0000
  H   H187      1.0  0.37662  0.16596  0.27217  1.0000
  H   H188      1.0  0.27740  0.14884  0.30514  1.0000
  C   C248      1.0  0.42982  0.06300  0.33770  1.0000
  H   H189      1.0  0.36348  0.98710  0.20943  1.0000
  H   H190      1.0  0.15949  0.15312  0.37274  1.0000
  C   C249      1.0  0.44779  0.99717  0.40804  1.0000
  H   H191      1.0  0.27226  0.08470  0.40331  1.0000
  H   H192      1.0  0.31948  0.01636  0.11417  1.0000
  C   C250      1.0  0.45831  0.17688  0.40892  1.0000
  H   H193      1.0  0.99144  0.08144  0.33294  1.0000
  C   C251      1.0  0.46346  0.00695  0.40291  1.0000
  H   H194      1.0  0.36642  0.15924  0.08571  1.0000
  C   C252      1.0  0.10281  0.07561  0.42975  1.0000
  H   H195      1.0  0.36321  0.17367  0.19241  1.0000
  H   H196      1.0  0.23908  0.07906  0.40969  1.0000
  H   H197      1.0  0.20927  0.15318  0.45554  1.0000
  C   C253      1.0  0.28561  0.12357  0.45201  1.0000
  C   C254      1.0  0.15332  0.16659  0.37758  1.0000
  H   H198      1.0  0.43060  0.16803  0.22223  1.0000
  Fe  Fe22      1.0  0.36535  0.12126  0.45451  1.0000
  C   C255      1.0  0.34354  0.14314  0.36424  1.0000
  C   C256      1.0  0.39377  0.12398  0.09937  1.0000
  H   H199      1.0  0.46255  0.17914  0.45618  1.0000
  S   S41       1.0  0.39271  0.10038  0.45764  1.0000
  C   C257      1.0  0.40164  0.15404  0.12632  1.0000
  H   H200      1.0  0.41217  0.16775  0.29482  1.0000
  H   H201      1.0  0.47589  0.99083  0.31998  1.0000
  C   C258      1.0  0.32852  0.04046  0.09440  1.0000
  H   H202      1.0  0.40737  0.10788  0.34402  1.0000
  C   C259      1.0  0.34278  0.03367  0.41319  1.0000
  H   H203      1.0  0.45099  0.07229  0.20888  1.0000
  H   H204      1.0  0.14835  0.99212  0.16879  1.0000
  H   H205      1.0  0.43291  0.08218  0.35521  1.0000
  C   C260      1.0  0.23194  0.17248  0.42497  1.0000
  C   C261      1.0  0.34963  0.98974  0.00410  1.0000
  H   H206      1.0  0.21289  0.16382  0.39381  1.0000
  H   H207      1.0  0.30730  0.00558  0.06240  1.0000
  H   H208      1.0  0.27687  0.13110  0.27957  1.0000
  C   C262      1.0  0.07954  0.17356  0.36272  1.0000
  C   C263      1.0  0.44792  0.16806  0.40031  1.0000
  H   H209      1.0  0.36343  0.99855  0.14901  1.0000
  S   S42       1.0  0.48244  0.16974  0.09250  1.0000
  H   H210      1.0  0.30977  0.17573  0.42534  1.0000
  H   H211      1.0  0.47380  0.17263  0.40739  1.0000
  C   C264      1.0  0.45237  0.17572  0.03322  1.0000
  H   H212      1.0  0.15243  0.17770  0.29343  1.0000
  C   C265      1.0  0.47412  0.12933  0.17594  1.0000
  H   H213      1.0  0.03927  0.99750  0.00906  1.0000
  H   H214      1.0  0.46715  0.05932  0.01379  1.0000
  H   H215      1.0  0.99167  0.08451  0.03669  1.0000
  C   C266      1.0  0.07295  0.07920  0.46136  1.0000
  H   H216      1.0  0.40401  0.18073  0.24630  1.0000
  C   C267      1.0  0.36500  0.17430  0.26512  1.0000
  H   H217      1.0  0.44831  0.01220  0.33558  1.0000
  H   H218      1.0  0.47699  0.00074  0.39496  1.0000
  C   C268      1.0  0.14190  0.17234  0.30532  1.0000
  H   H219      1.0  0.31802  0.17377  0.18246  1.0000
  H   H220      1.0  0.09406  0.18128  0.32308  1.0000
  C   C269      1.0  0.31911  0.99612  0.27453  1.0000
  C   C270      1.0  0.15677  0.16964  0.39474  1.0000
  C   C271      1.0  0.00934  0.99421  0.01606  1.0000
  C   C272      1.0  0.47107  0.98766  0.33532  1.0000
  C   C273      1.0  0.21230  0.18012  0.42525  1.0000
  S   S43       1.0  0.30828  0.16540  0.31225  1.0000
  S   S44       1.0  0.33297  0.98578  0.99114  1.0000
  C   C274      1.0  0.44892  0.99536  0.36385  1.0000
  C   C275      1.0  0.30368  0.06929  0.46797  1.0000
  C   C276      1.0  0.31477  0.98838  0.26026  1.0000
  H   H221      1.0  0.13976  0.17900  0.35302  1.0000
  H   H222      1.0  0.40731  0.17446  0.45220  1.0000
  H   H223      1.0  0.46306  0.17971  0.02085  1.0000
  H   H224      1.0  0.48968  0.05756  0.06577  1.0000
  H   H225      1.0  0.41986  0.16668  0.39563  1.0000
  S   S45       1.0  0.42780  0.99035  0.11337  1.0000
  C   C277      1.0  0.03846  0.18031  0.32137  1.0000
  H   H226      1.0  0.30033  0.99209  0.25712  1.0000
  C   C278      1.0  0.12249  0.18073  0.30655  1.0000
  C   C279      1.0  0.31106  0.17496  0.19703  1.0000
  H   H227      1.0  0.28865  0.15976  0.46446  1.0000
  H   H228      1.0  0.26037  0.98509  0.12188  1.0000
  S   S46       1.0  0.33718  0.11666  0.47411  1.0000
  C   C280      1.0  0.48444  0.98644  0.15591  1.0000
  C   C281      1.0  0.30907  0.98283  0.11234  1.0000
  C   C282      1.0  0.41781  0.98452  0.18051  1.0000
  C   C283      1.0  0.20400  0.99076  0.97809  1.0000
  S   S47       1.0  0.42439  0.12674  0.47472  1.0000
  H   H229      1.0  0.02848  0.00518  0.97670  1.0000
  H   H230      1.0  0.19494  0.09715  0.47355  1.0000
  C   C284      1.0  0.47335  0.98365  0.17422  1.0000
  H   H231      1.0  0.37006  0.98385  0.07682  1.0000
  C   C285      1.0  0.03031  0.08561  0.47589  1.0000
  C   C286      1.0  0.99118  0.00055  0.02652  1.0000
  H   H232      1.0  0.37941  0.98221  0.17653  1.0000
  C   C287      1.0  0.42099  0.18120  0.21800  1.0000
  H   H233      1.0  0.00935  0.07386  0.75873  1.0000
  H   H234      1.0  0.34215  0.15497  0.53489  1.0000
  H   H235      1.0  0.02677  0.01873  0.56439  1.0000
  C   C288      1.0  0.10920  0.05897  0.71892  1.0000
  S   S48       1.0  0.48398  0.15400  0.54073  1.0000
  H   H236      1.0  0.07419  0.13203  0.72874  1.0000
  C   C289      1.0  0.99634  0.03602  0.51458  1.0000
  C   C290      1.0  0.10618  0.07222  0.73109  1.0000
  C   C291      1.0  0.03358  0.98249  0.59048  1.0000
  S   S49       1.0  0.14297  0.13039  0.49149  1.0000
  C   C292      1.0  0.44370  0.13992  0.49655  1.0000
  Fe  Fe23      1.0  0.11092  0.13572  0.50070  1.0000
  S   S50       1.0  0.09618  0.12757  0.53119  1.0000
  S   S51       1.0  0.10701  0.16693  0.48715  1.0000
  Fe  Fe24      1.0  0.13161  0.14317  0.72405  1.0000
  S   S52       1.0  0.16259  0.13538  0.71044  1.0000
  Fe  Fe25      1.0  0.11730  0.12240  0.69775  1.0000
  S   S53       1.0  0.14703  0.11403  0.68176  1.0000
  S   S54       1.0  0.08966  0.11616  0.69204  1.0000
  Fe  Fe26      1.0  0.15532  0.10667  0.71083  1.0000
  S   S55       1.0  0.17196  0.07744  0.71971  1.0000
  Fe  Fe27      1.0  0.15143  0.14350  0.68272  1.0000
  H   H237      1.0  0.18226  0.99024  0.73120  1.0000
  S   S56       1.0  0.12535  0.11350  0.72693  1.0000
  C   C293      1.0  0.00777  0.00795  0.49965  1.0000
  S   S57       1.0  0.07225  0.00548  0.64801  1.0000
  C   C294      1.0  0.09194  0.00315  0.72725  1.0000
  Fe  Fe28      1.0  0.08461  0.02947  0.59482  1.0000
  S   S58       1.0  0.05481  0.03509  0.61210  1.0000
  S   S59       1.0  0.09469  0.03948  0.56323  1.0000
  Fe  Fe29      1.0  0.07013  0.03695  0.63556  1.0000
  S   S60       1.0  0.05882  0.05999  0.65406  1.0000
  Fe  Fe30      1.0  0.05939  0.00319  0.62293  1.0000
  S   S61       1.0  0.09929  0.03386  0.61724  1.0000
  S   S62       1.0  0.08823  0.99752  0.60408  1.0000
  Fe  Fe31      1.0  0.13890  0.03742  0.82136  1.0000
  S   S63       1.0  0.11190  0.03829  0.81069  1.0000
  S   S64       1.0  0.15676  0.06044  0.80996  1.0000
  H   H238      1.0  0.47230  0.18016  0.63847  1.0000
  C   C295      1.0  0.02076  0.07157  0.74669  1.0000
  Fe  Fe32      1.0  0.12246  0.00672  0.81104  1.0000
  Fe  Fe33      1.0  0.09945  0.02958  0.84167  1.0000
  S   S65       1.0  0.07022  0.04203  0.85696  1.0000
  S   S66       1.0  0.15053  0.00674  0.81940  1.0000
  S   S67       1.0  0.12571  0.03145  0.85235  1.0000
  H   H239      1.0  0.29386  0.06717  0.48149  1.0000
  C   C296      1.0  0.00215  0.02781  0.49808  1.0000
  H   H240      1.0  0.03960  0.06768  0.87569  1.0000
  H   H241      1.0  0.19590  0.13425  0.65808  1.0000
  H   H242      1.0  0.12271  0.04263  0.76936  1.0000
  Fe  Fe34      1.0  0.02631  0.14808  0.86065  1.0000
  S   S68       1.0  0.03000  0.13667  0.89103  1.0000
  S   S69       1.0  0.04185  0.13193  0.83681  1.0000
  Fe  Fe35      1.0  0.03401  0.16654  0.89136  1.0000
  H   H243      1.0  0.04766  0.00337  0.71807  1.0000
  C   C297      1.0  0.13415  0.17015  0.56589  1.0000
  S   S70       1.0  0.12072  0.15281  0.69631  1.0000
  H   H244      1.0  0.11644  0.14429  0.59206  1.0000
  C   C298      1.0  0.21895  0.15629  0.61540  1.0000
  C   C299      1.0  0.04208  0.04194  0.56032  1.0000
  C   C300      1.0  0.02619  0.03402  0.55999  1.0000
  H   H245      1.0  0.06880  0.98815  0.74202  1.0000
  H   H246      1.0  0.09076  0.03577  0.68578  1.0000
  C   C301      1.0  0.38501  0.15559  0.54707  1.0000
  C   C302      1.0  0.20078  0.14882  0.55638  1.0000
  H   H247      1.0  0.15797  0.01852  0.72242  1.0000
  H   H248      1.0  0.12753  0.01916  0.74835  1.0000
  H   H249      1.0  0.17545  0.98298  0.89665  1.0000
  H   H250      1.0  0.43876  0.12874  0.50783  1.0000
  C   C303      1.0  0.32594  0.16507  0.49638  1.0000
  H   H251      1.0  0.01226  0.00151  0.48691  1.0000
  C   C304      1.0  0.06304  0.06717  0.85167  1.0000
  C   C305      1.0  0.04711  0.07616  0.86339  1.0000
  C   C306      1.0  0.04086  0.09610  0.85929  1.0000
  C   C307      1.0  0.05026  0.10713  0.84320  1.0000
  C   C308      1.0  0.06618  0.09815  0.83150  1.0000
  C   C309      1.0  0.07267  0.07827  0.83579  1.0000
  H   H252      1.0  0.02852  0.10289  0.86836  1.0000
  H   H253      1.0  0.07363  0.10666  0.81921  1.0000
  H   H254      1.0  0.08500  0.07155  0.82670  1.0000
  C   C310      1.0  0.05178  0.02762  0.51405  1.0000
  C   C311      1.0  0.05507  0.13557  0.50455  1.0000
  C   C312      1.0  0.39358  0.17452  0.48131  1.0000
  C   C313      1.0  0.06803  0.02394  0.52262  1.0000
  C   C314      1.0  0.16818  0.07239  0.74475  1.0000
  C   C315      1.0  0.16534  0.05410  0.75463  1.0000
  C   C316      1.0  0.16159  0.05035  0.77472  1.0000
  C   C317      1.0  0.16143  0.06470  0.78488  1.0000
  C   C318      1.0  0.16473  0.08279  0.77497  1.0000
  C   C319      1.0  0.16769  0.08678  0.75494  1.0000
  H   H255      1.0  0.16550  0.04302  0.74676  1.0000
  H   H256      1.0  0.15896  0.03635  0.78230  1.0000
  H   H257      1.0  0.16451  0.09384  0.78284  1.0000
  H   H258      1.0  0.16984  0.10093  0.74736  1.0000
  C   C320      1.0  0.08315  0.10060  0.67965  1.0000
  C   C321      1.0  0.09619  0.08640  0.67069  1.0000
  C   C322      1.0  0.08932  0.07390  0.66219  1.0000
  C   C323      1.0  0.06945  0.07578  0.66249  1.0000
  C   C324      1.0  0.05681  0.09046  0.67075  1.0000
  C   C325      1.0  0.06355  0.10261  0.67931  1.0000
  H   H259      1.0  0.11140  0.08483  0.67068  1.0000
  H   H260      1.0  0.09929  0.06268  0.65576  1.0000
  H   H261      1.0  0.04151  0.09216  0.67105  1.0000
  H   H262      1.0  0.05335  0.11352  0.68603  1.0000
  C   C326      1.0  0.09583  0.10299  0.53967  1.0000
  C   C327      1.0  0.10702  0.08907  0.52936  1.0000
  C   C328      1.0  0.10663  0.06956  0.53675  1.0000
  C   C329      1.0  0.09537  0.06392  0.55460  1.0000
  C   C330      1.0  0.08421  0.07784  0.56486  1.0000
  C   C331      1.0  0.08401  0.09731  0.55710  1.0000
  H   H263      1.0  0.11596  0.09332  0.51574  1.0000
  H   H264      1.0  0.11520  0.05881  0.52870  1.0000
  H   H265      1.0  0.07528  0.07362  0.57851  1.0000
  H   H266      1.0  0.07457  0.10804  0.56460  1.0000
  H   H267      1.0  0.15067  0.05530  0.63223  1.0000
  C   C332      1.0  0.05246  0.12023  0.47909  1.0000
  C   C333      1.0  0.18381  0.16059  0.64136  1.0000
  C   C334      1.0  0.12168  0.10127  0.80188  1.0000
  H   H268      1.0  0.00157  0.06669  0.73000  1.0000
  S   S71       1.0  0.12004  0.15923  0.74908  1.0000
  C   C335      1.0  0.24196  0.01070  0.88850  1.0000
  H   H269      1.0  0.12229  0.01271  0.67179  1.0000
  H   H270      1.0  0.12102  0.12178  0.77568  1.0000
  C   C336      1.0  0.99500  0.09453  0.81511  1.0000
  C   C337      1.0  0.03980  0.07273  0.74722  1.0000
  H   H271      1.0  0.20179  0.05428  0.80079  1.0000
  H   H272      1.0  0.04271  0.01687  0.51680  1.0000
  H   H273      1.0  0.17460  0.16638  0.54931  1.0000
  C   C338      1.0  0.14528  0.04906  0.64676  1.0000
  C   C339      1.0  0.32570  0.13521  0.48684  1.0000
  C   C340      1.0  0.12018  0.11971  0.79102  1.0000
  P   P10       1.0  0.12170  0.02290  0.70878  1.0000
  H   H274      1.0  0.04292  0.99303  0.58576  1.0000
  C   C341      1.0  0.29673  0.15163  0.50489  1.0000
  C   C342      1.0  0.30640  0.13599  0.49598  1.0000
  C   C343      1.0  0.07993  0.03763  0.51886  1.0000
  H   H275      1.0  0.45830  0.15007  0.51440  1.0000
  H   H276      1.0  0.28164  0.15265  0.51123  1.0000
  H   H277      1.0  0.29878  0.12481  0.49567  1.0000
  S   S72       1.0  0.16212  0.16508  0.65752  1.0000
  H   H278      1.0  0.39138  0.16194  0.55576  1.0000
  C   C344      1.0  0.06816  0.02028  0.70033  1.0000
  C   C345      1.0  0.36500  0.15922  0.54772  1.0000
  C   C346      1.0  0.08636  0.02508  0.69793  1.0000
  C   C347      1.0  0.20410  0.17201  0.71854  1.0000
  C   C348      1.0  0.36045  0.18052  0.58030  1.0000
  C   C349      1.0  0.46162  0.16633  0.48579  1.0000
  H   H279      1.0  0.41256  0.14105  0.53434  1.0000
  C   C350      1.0  0.99581  0.02441  0.53276  1.0000
  H   H280      1.0  0.05476  0.03283  0.56512  1.0000
  C   C351      1.0  0.00653  0.10781  0.80477  1.0000
  H   H281      1.0  0.23557  0.05207  0.80473  1.0000
  C   C352      1.0  0.05293  0.13678  0.48569  1.0000
  C   C353      1.0  0.01627  0.06747  0.73040  1.0000
  C   C354      1.0  0.33553  0.14951  0.48761  1.0000
  H   H282      1.0  0.08597  0.11509  0.78585  1.0000
  C   C355      1.0  0.11817  0.13259  0.88697  1.0000
  C   C356      1.0  0.09924  0.13174  0.89624  1.0000
  C   C357      1.0  0.08430  0.13743  0.88578  1.0000
  C   C358      1.0  0.08807  0.14459  0.86616  1.0000
  C   C359      1.0  0.10699  0.14594  0.85682  1.0000
  C   C360      1.0  0.12208  0.13936  0.86728  1.0000
  P   P11       1.0  0.11231  0.15371  0.83123  1.0000
  C   C361      1.0  0.09215  0.17053  0.82311  1.0000
  C   C362      1.0  0.13290  0.16572  0.82516  1.0000
  H   H283      1.0  0.25096  0.17205  0.74168  1.0000
  H   H284      1.0  0.20062  0.99800  0.83358  1.0000
  H   H285      1.0  0.02034  0.04272  0.97194  1.0000
  C   C363      1.0  0.14509  0.16564  0.80733  1.0000
  C   C364      1.0  0.06274  0.10732  0.74559  1.0000
  C   C365      1.0  0.07655  0.16380  0.81988  1.0000
  C   C366      1.0  0.11640  0.13307  0.81977  1.0000
  C   C367      1.0  0.11810  0.11441  0.83057  1.0000
  C   C368      1.0  0.12058  0.09863  0.82164  1.0000
  C   C369      1.0  0.11707  0.13556  0.79998  1.0000
  H   H286      1.0  0.12980  0.12801  0.89504  1.0000
  H   H287      1.0  0.09606  0.12670  0.91152  1.0000
  H   H288      1.0  0.06967  0.13667  0.89300  1.0000
  H   H289      1.0  0.07617  0.14898  0.85844  1.0000
  H   H290      1.0  0.13688  0.13946  0.86023  1.0000
  Fe  Fe36      1.0  0.13496  0.00060  0.84957  1.0000
  C   C370      1.0  0.03603  0.99172  0.97263  1.0000
  H   H291      1.0  0.14242  0.15859  0.79684  1.0000
  C   C371      1.0  0.20860  0.00954  0.82751  1.0000
  H   H292      1.0  0.07637  0.14857  0.82244  1.0000
  H   H293      1.0  0.11725  0.11190  0.84589  1.0000
  H   H294      1.0  0.12172  0.08426  0.83002  1.0000
  H   H295      1.0  0.11507  0.14975  0.79144  1.0000
  C   C372      1.0  0.14027  0.02922  0.58417  1.0000
  C   C373      1.0  0.15469  0.01683  0.59299  1.0000
  C   C374      1.0  0.16784  0.02424  0.59954  1.0000
  C   C375      1.0  0.16655  0.04407  0.59731  1.0000
  C   C376      1.0  0.15174  0.05669  0.58892  1.0000
  C   C377      1.0  0.13868  0.04904  0.58226  1.0000
  P   P12       1.0  0.14935  0.08243  0.58639  1.0000
  C   C378      1.0  0.12401  0.09224  0.59135  1.0000
  C   C379      1.0  0.16124  0.08875  0.60308  1.0000
  C   C380      1.0  0.15051  0.09791  0.61817  1.0000
  C   C381      1.0  0.15981  0.10335  0.63054  1.0000
  C   C382      1.0  0.17986  0.09949  0.62823  1.0000
  C   C383      1.0  0.19068  0.09031  0.61334  1.0000
  C   C384      1.0  0.18144  0.08511  0.60071  1.0000
  C   C385      1.0  0.11184  0.08285  0.60657  1.0000
  C   C386      1.0  0.09231  0.09067  0.61080  1.0000
  C   C387      1.0  0.08489  0.10809  0.60020  1.0000
  C   C388      1.0  0.09697  0.11761  0.58516  1.0000
  C   C389      1.0  0.11641  0.10960  0.58057  1.0000
  C   C390      1.0  0.15922  0.09213  0.56204  1.0000
  C   C391      1.0  0.17072  0.10636  0.55812  1.0000
  C   C392      1.0  0.17802  0.11395  0.53922  1.0000
  C   C393      1.0  0.17374  0.10760  0.52411  1.0000
  C   C394      1.0  0.16194  0.09382  0.52785  1.0000
  C   C395      1.0  0.15465  0.08617  0.54672  1.0000
  H   H296      1.0  0.12996  0.02343  0.57925  1.0000
  H   H297      1.0  0.15543  0.00146  0.59504  1.0000
  H   H298      1.0  0.17887  0.01453  0.60657  1.0000
  H   H299      1.0  0.17688  0.04930  0.60262  1.0000
  H   H300      1.0  0.12698  0.05830  0.57589  1.0000
  H   H301      1.0  0.13496  0.10102  0.62049  1.0000
  H   H302      1.0  0.15141  0.11064  0.64195  1.0000
  H   H303      1.0  0.18698  0.10381  0.63787  1.0000
  H   H304      1.0  0.20625  0.08749  0.61144  1.0000
  H   H305      1.0  0.19006  0.07839  0.58898  1.0000
  H   H306      1.0  0.11738  0.06948  0.61517  1.0000
  H   H307      1.0  0.08287  0.08314  0.62224  1.0000
  H   H308      1.0  0.06971  0.11403  0.60346  1.0000
  H   H309      1.0  0.09114  0.13087  0.57655  1.0000
  H   H310      1.0  0.12535  0.11699  0.56856  1.0000
  H   H311      1.0  0.17386  0.11193  0.56952  1.0000
  H   H312      1.0  0.18686  0.12493  0.53624  1.0000
  H   H313      1.0  0.17930  0.11357  0.50948  1.0000
  H   H314      1.0  0.15822  0.08922  0.51611  1.0000
  H   H315      1.0  0.14522  0.07582  0.54920  1.0000
  C   C396      1.0  0.23990  0.00841  0.87047  1.0000
  C   C397      1.0  0.07011  0.04032  0.76967  1.0000
  C   C398      1.0  0.20203  0.16018  0.70648  1.0000
  P   P13       1.0  0.05401  0.08131  0.48193  1.0000
  C   C399      1.0  0.30643  0.16646  0.50453  1.0000
  C   C400      1.0  0.09851  0.01630  0.71121  1.0000
  S   S73       1.0  0.03269  0.17718  0.86042  1.0000
  S   S74       1.0  0.12561  0.99426  0.78440  1.0000
  H   H316      1.0  0.32273  0.08138  0.47918  1.0000
  H   H317      1.0  0.05580  0.14832  0.50962  1.0000
  C   C401      1.0  0.00957  0.06550  0.54770  1.0000
  C   C402      1.0  0.06144  0.09452  0.76316  1.0000
  C   C403      1.0  0.04966  0.06535  0.71512  1.0000
  H   H318      1.0  0.06727  0.99670  0.87574  1.0000
  H   H319      1.0  0.01859  0.06081  0.93902  1.0000
  H   H320      1.0  0.48477  0.07689  0.50871  1.0000
  H   H321      1.0  0.06094  0.06281  0.70299  1.0000
  H   H322      1.0  0.00232  0.99535  0.54790  1.0000
  H   H323      1.0  0.05897  0.02705  0.68988  1.0000
  C   C404      1.0  0.21018  0.13758  0.57093  1.0000
  C   C405      1.0  0.07550  0.05509  0.50672  1.0000
  H   H324      1.0  0.07218  0.04276  0.75429  1.0000
  H   H325      1.0  0.05416  0.06759  0.55445  1.0000
  C   C406      1.0  0.07299  0.12235  0.74240  1.0000
  C   C407      1.0  0.02149  0.10278  0.78999  1.0000
  H   H326      1.0  0.42399  0.98595  0.97003  1.0000
  H   H327      1.0  0.06472  0.02983  0.82491  1.0000
  C   C408      1.0  0.14058  0.04880  0.68076  1.0000
  H   H328      1.0  0.03513  0.04728  0.49481  1.0000
  C   C409      1.0  0.07998  0.11259  0.77444  1.0000
  H   H329      1.0  0.33362  0.17617  0.49673  1.0000
  C   C410      1.0  0.16050  0.17559  0.80241  1.0000
  C   C411      1.0  0.21581  0.14262  0.63216  1.0000
  H   H330      1.0  0.04311  0.99200  0.90548  1.0000
  Fe  Fe37      1.0  0.48703  0.17947  0.51734  1.0000
  H   H331      1.0  0.48764  0.17686  0.60520  1.0000
  H   H332      1.0  0.05428  0.00532  0.94816  1.0000
  C   C412      1.0  0.01344  0.07104  0.79599  1.0000
  C   C413      1.0  0.05894  0.05911  0.49841  1.0000
  H   H333      1.0  0.25213  0.02269  0.82309  1.0000
  C   C414      1.0  0.11949  0.14519  0.60566  1.0000
  C   C415      1.0  0.13614  0.17635  0.83780  1.0000
  H   H334      1.0  0.20766  0.12643  0.60106  1.0000
  C   C416      1.0  0.11189  0.13809  0.64026  1.0000
  C   C417      1.0  0.06613  0.03275  0.80949  1.0000
  H   H335      1.0  0.05802  0.08766  0.51985  1.0000
  C   C418      1.0  0.07688  0.01897  0.79886  1.0000
  H   H336      1.0  0.38806  0.15869  0.61417  1.0000
  C   C419      1.0  0.19817  0.14465  0.64507  1.0000
  H   H337      1.0  0.17810  0.99733  0.96625  1.0000
  S   S75       1.0  0.24126  0.15392  0.59950  1.0000
  H   H338      1.0  0.10090  0.99659  0.73793  1.0000
  C   C420      1.0  0.05650  0.10120  0.51014  1.0000
  H   H339      1.0  0.09746  0.12912  0.62182  1.0000
  H   H340      1.0  0.10333  0.13168  0.65327  1.0000
  C   C421      1.0  0.12902  0.02523  0.66921  1.0000
  H   H341      1.0  0.05808  0.11701  0.53145  1.0000
  C   C422      1.0  0.18089  0.99528  0.89793  1.0000
  H   H342      1.0  0.16938  0.17594  0.78836  1.0000
  Fe  Fe38      1.0  0.99814  0.14753  0.89809  1.0000
  C   C423      1.0  0.24153  0.99000  0.86648  1.0000
  C   C424      1.0  0.18139  0.15707  0.56063  1.0000
  C   C425      1.0  0.37154  0.16587  0.59142  1.0000
  H   H343      1.0  0.22543  0.13183  0.56785  1.0000
  C   C426      1.0  0.12604  0.14801  0.64128  1.0000
  S   S76       1.0  0.99412  0.15714  0.86751  1.0000
  H   H344      1.0  0.18480  0.02707  0.81514  1.0000
  H   H345      1.0  0.12842  0.14939  0.65506  1.0000
  H   H346      1.0  0.05570  0.10607  0.73435  1.0000
  C   C427      1.0  0.19266  0.98934  0.96530  1.0000
  H   H347      1.0  0.14299  0.05470  0.69233  1.0000
  C   C428      1.0  0.05652  0.11784  0.51683  1.0000
  C   C429      1.0  0.00771  0.99635  0.51769  1.0000
  S   S77       1.0  0.00249  0.17606  0.90169  1.0000
  C   C430      1.0  0.32684  0.14565  0.57696  1.0000
  C   C431      1.0  0.31040  0.13845  0.58730  1.0000
  C   C432      1.0  0.29571  0.14998  0.59777  1.0000
  H   H348      1.0  0.00238  0.03682  0.48408  1.0000
  C   C433      1.0  0.10860  0.13668  0.62247  1.0000
  C   C434      1.0  0.12656  0.98254  0.94575  1.0000
  S   S78       1.0  0.03671  0.98402  0.62764  1.0000
  C   C435      1.0  0.39714  0.14388  0.53479  1.0000
  C   C436      1.0  0.38944  0.13593  0.52291  1.0000
  C   C437      1.0  0.36962  0.13992  0.52308  1.0000
  C   C438      1.0  0.35746  0.15171  0.53524  1.0000
  Fe  Fe39      1.0  0.47649  0.17541  0.56060  1.0000
  Fe  Fe40      1.0  0.13912  0.16094  0.47639  1.0000
  C   C439      1.0  0.22769  0.00810  0.82987  1.0000
  C   C440      1.0  0.06181  0.00698  0.71619  1.0000
  H   H349      1.0  0.37402  0.15122  0.58915  1.0000
  C   C441      1.0  0.20012  0.13450  0.58969  1.0000
  H   H350      1.0  0.09263  0.03470  0.52540  1.0000
  P   P14       1.0  0.14711  0.16745  0.58519  1.0000
  H   H351      1.0  0.01629  0.05657  0.79312  1.0000
  H   H352      1.0  0.24596  0.16457  0.70787  1.0000
  H   H353      1.0  0.33810  0.13634  0.56921  1.0000
  H   H354      1.0  0.30893  0.12397  0.58709  1.0000
  H   H355      1.0  0.28278  0.14455  0.60548  1.0000
  H   H356      1.0  0.38018  0.17855  0.50992  1.0000
  C   C442      1.0  0.31389  0.17591  0.58771  1.0000
  C   C443      1.0  0.24554  0.99466  0.90268  1.0000
  H   H357      1.0  0.06902  0.08793  0.79140  1.0000
  H   H358      1.0  0.39888  0.12692  0.51333  1.0000
  H   H359      1.0  0.36369  0.13394  0.51367  1.0000
  H   H360      1.0  0.07148  0.01049  0.53217  1.0000
  C   C444      1.0  0.15605  0.00449  0.72111  1.0000
  H   H361      1.0  0.03035  0.11331  0.78246  1.0000
  H   H362      1.0  0.10918  0.07675  0.75853  1.0000
  H   H363      1.0  0.20869  0.15178  0.54192  1.0000
  C   C445      1.0  0.18075  0.14286  0.59402  1.0000
  H   H364      1.0  0.48539  0.11037  0.51088  1.0000
  H   H365      1.0  0.08781  0.01225  0.77075  1.0000
  H   H366      1.0  0.13481  0.02681  0.63866  1.0000
  C   C446      1.0  0.13382  0.15513  0.60660  1.0000
  C   C447      1.0  0.11118  0.06641  0.74923  1.0000
  C   C448      1.0  0.11885  0.04724  0.75532  1.0000
  S   S79       1.0  0.05575  0.17344  0.90601  1.0000
  H   H367      1.0  0.04968  0.06101  0.80890  1.0000
  H   H368      1.0  0.12370  0.08898  0.79500  1.0000
  H   H369      1.0  0.15511  0.06876  0.65919  1.0000
  C   C449      1.0  0.07902  0.02281  0.77897  1.0000
  C   C450      1.0  0.08147  0.12508  0.75688  1.0000
  C   C451      1.0  0.12183  0.03396  0.74321  1.0000
  C   C452      1.0  0.13767  0.15566  0.55492  1.0000
  C   C453      1.0  0.19395  0.01208  0.91602  1.0000
  C   C454      1.0  0.19444  0.02757  0.90073  1.0000
  C   C455      1.0  0.18816  0.02689  0.88406  1.0000
  C   C456      1.0  0.18137  0.01074  0.88269  1.0000
  H   H370      1.0  0.24733  0.99637  0.91660  1.0000
  H   H371      1.0  0.10002  0.08703  0.72637  1.0000
  H   H372      1.0  0.08393  0.00550  0.80602  1.0000
  H   H373      1.0  0.23714  0.02103  0.85976  1.0000
  H   H374      1.0  0.12594  0.98211  0.70702  1.0000
  C   C457      1.0  0.11758  0.03985  0.72469  1.0000
  H   H375      1.0  0.06878  0.07092  0.73105  1.0000
  C   C458      1.0  0.04176  0.06158  0.55429  1.0000
  C   C459      1.0  0.05462  0.10228  0.49113  1.0000
  H   H376      1.0  0.20248  0.17571  0.48007  1.0000
  P   P15       1.0  0.34907  0.17478  0.56298  1.0000
  H   H377      1.0  0.99132  0.00589  0.62167  1.0000
  H   H378      1.0  0.10511  0.06371  0.70499  1.0000
  C   C460      1.0  0.23739  0.02353  0.82152  1.0000
  H   H379      1.0  0.19882  0.01298  0.92878  1.0000
  H   H380      1.0  0.19958  0.04017  0.90185  1.0000
  H   H381      1.0  0.18835  0.03893  0.87227  1.0000
  H   H382      1.0  0.17618  0.01027  0.86991  1.0000
  H   H383      1.0  0.04881  0.17127  0.81137  1.0000
  C   C461      1.0  0.26712  0.98340  0.80969  1.0000
  H   H384      1.0  0.12649  0.17741  0.85132  1.0000
  C   C462      1.0  0.13056  0.03344  0.68450  1.0000
  H   H385      1.0  0.14793  0.99119  0.92204  1.0000
  H   H386      1.0  0.23638  0.98181  0.68553  1.0000
  P   P16       1.0  0.21406  0.16130  0.73992  1.0000
  C   C463      1.0  0.20414  0.17160  0.61141  1.0000
  C   C464      1.0  0.23534  0.14447  0.73256  1.0000
  C   C465      1.0  0.24842  0.15014  0.71599  1.0000
  C   C466      1.0  0.26466  0.13718  0.70966  1.0000
  C   C467      1.0  0.26791  0.11844  0.71975  1.0000
  C   C468      1.0  0.25490  0.11263  0.73616  1.0000
  C   C469      1.0  0.23864  0.12556  0.74255  1.0000
  H   H387      1.0  0.19258  0.15893  0.68075  1.0000
  C   C470      1.0  0.32848  0.16463  0.57673  1.0000
  C   C471      1.0  0.13970  0.00231  0.71488  1.0000
  S   S80       1.0  0.24262  0.17321  0.54491  1.0000
  C   C472      1.0  0.00590  0.06152  0.95016  1.0000
  C   C473      1.0  0.19729  0.14896  0.75802  1.0000
  C   C474      1.0  0.18073  0.14503  0.75363  1.0000
  C   C475      1.0  0.16802  0.13532  0.76777  1.0000
  C   C476      1.0  0.17182  0.12930  0.78637  1.0000
  C   C477      1.0  0.18818  0.13328  0.79092  1.0000
  C   C478      1.0  0.20082  0.14317  0.77684  1.0000
  H   H388      1.0  0.01610  0.07872  0.50524  1.0000
  C   C479      1.0  0.29758  0.16862  0.59817  1.0000
  Fe  Fe41      1.0  0.10065  0.00225  0.62803  1.0000
  H   H389      1.0  0.99863  0.02946  0.59255  1.0000
  H   H390      1.0  0.00428  0.12188  0.80855  1.0000
  H   H391      1.0  0.28042  0.10836  0.71474  1.0000
  H   H392      1.0  0.25728  0.09802  0.74383  1.0000
  H   H393      1.0  0.22862  0.12058  0.75507  1.0000
  H   H394      1.0  0.20607  0.14475  0.71003  1.0000
  H   H395      1.0  0.08907  0.13698  0.75452  1.0000
  P   P17       1.0  0.04633  0.07652  0.76861  1.0000
  C   C480      1.0  0.02555  0.07336  0.54792  1.0000
  H   H396      1.0  0.25550  0.99039  0.80200  1.0000
  H   H397      1.0  0.17737  0.14956  0.73942  1.0000
  H   H398      1.0  0.15514  0.13258  0.76427  1.0000
  H   H399      1.0  0.16187  0.12184  0.79731  1.0000
  H   H400      1.0  0.19091  0.12887  0.80543  1.0000
  H   H401      1.0  0.21339  0.14625  0.78060  1.0000
  C   C481      1.0  0.00688  0.05140  0.96871  1.0000
  C   C482      1.0  0.13800  0.98410  0.71252  1.0000
  H   H402      1.0  0.02538  0.08860  0.54322  1.0000
  H   H403      1.0  0.22711  0.13059  0.63527  1.0000
  C   C483      1.0  0.04735  0.04505  0.50182  1.0000
  H   H404      1.0  0.08824  0.17849  0.91887  1.0000
  C   C484      1.0  0.19946  0.02611  0.81700  1.0000
  C   C485      1.0  0.03074  0.06427  0.71464  1.0000
  H   H405      1.0  0.14857  0.14313  0.55746  1.0000
  C   C486      1.0  0.17117  0.15416  0.57947  1.0000
  H   H406      1.0  0.99728  0.07482  0.54248  1.0000
  H   H407      1.0  0.11491  0.98812  0.93776  1.0000
  H   H408      1.0  0.17362  0.14106  0.60881  1.0000
  H   H409      1.0  0.08507  0.06542  0.50380  1.0000
  C   C487      1.0  0.07370  0.99843  0.72966  1.0000
  H   H410      1.0  0.24089  0.02491  0.89146  1.0000
  C   C488      1.0  0.45493  0.15191  0.50028  1.0000
  C   C489      1.0  0.13700  0.15641  0.62455  1.0000
  H   H411      1.0  0.35054  0.14860  0.48149  1.0000
  C   C490      1.0  0.20912  0.04144  0.80885  1.0000
  C   C491      1.0  0.05902  0.05424  0.78026  1.0000
  C   C492      1.0  0.12675  0.15698  0.54089  1.0000
  C   C493      1.0  0.14767  0.05673  0.66193  1.0000
  C   C494      1.0  0.13621  0.03315  0.65039  1.0000
  H   H412      1.0  0.12940  0.14564  0.53259  1.0000
  C   C495      1.0  0.07027  0.09722  0.77752  1.0000
  C   C496      1.0  0.05752  0.05043  0.80027  1.0000
  C   C497      1.0  0.19441  0.16813  0.68985  1.0000
  C   C498      1.0  0.22810  0.04016  0.81111  1.0000
  C   C499      1.0  0.37931  0.16999  0.60576  1.0000
  C   C500      1.0  0.18711  0.99578  0.91476  1.0000
  C   C501      1.0  0.00965  0.04580  0.55413  1.0000
  Fe  Fe42      1.0  0.24464  0.17798  0.57393  1.0000
  H   H413      1.0  0.22042  0.99062  0.71696  1.0000
  C   C502      1.0  0.05410  0.06984  0.73115  1.0000
  S   S81       1.0  0.10768  0.99784  0.84121  1.0000
  C   C503      1.0  0.02527  0.08422  0.78565  1.0000
  H   H414      1.0  0.39210  0.15959  0.48383  1.0000
  H   H415      1.0  0.02737  0.06107  0.70198  1.0000
  H   H416      1.0  0.42712  0.17038  0.53906  1.0000
  H   H417      1.0  0.41484  0.98759  0.86578  1.0000
  S   S82       1.0  0.45034  0.17713  0.58404  1.0000
  S   S83       1.0  0.13049  0.98709  0.63222  1.0000
  C   C504      1.0  0.12945  0.17803  0.75392  1.0000
  C   C505      1.0  0.99834  0.07620  0.81062  1.0000
  C   C506      1.0  0.06504  0.98233  0.88275  1.0000
  H   H418      1.0  0.28613  0.17758  0.60623  1.0000
  H   H419      1.0  0.27461  0.14165  0.69681  1.0000
  H   H420      1.0  0.15331  0.17771  0.73038  1.0000
  H   H421      1.0  0.18910  0.13146  0.47661  1.0000
  C   C507      1.0  0.18681  0.17390  0.62444  1.0000
  C   C508      1.0  0.06091  0.17667  0.81350  1.0000
  C   C509      1.0  0.11207  0.17268  0.53783  1.0000
  H   H422      1.0  0.10334  0.17342  0.52724  1.0000
  C   C510      1.0  0.01422  0.08364  0.49050  1.0000
  H   H423      1.0  0.14774  0.16427  0.62557  1.0000
  C   C511      1.0  0.21999  0.17922  0.75035  1.0000
  C   C512      1.0  0.05049  0.99187  0.95633  1.0000
  C   C513      1.0  0.16997  0.98851  0.72591  1.0000
  C   C514      1.0  0.14547  0.98417  0.93681  1.0000
  C   C515      1.0  0.00195  0.00457  0.53415  1.0000
  C   C516      1.0  0.43878  0.14227  0.47839  1.0000
  C   C517      1.0  0.99563  0.08841  0.48621  1.0000
  H   H424      1.0  0.99225  0.05141  0.51320  1.0000
  P   P18       1.0  0.23991  0.98656  0.84303  1.0000
  C   C518      1.0  0.23917  0.18126  0.74896  1.0000
  H   H425      1.0  0.02974  0.98192  0.56204  1.0000
  H   H426      1.0  0.42457  0.98175  0.89721  1.0000
  C   C519      1.0  0.99016  0.01895  0.59228  1.0000
  C   C520      1.0  0.19235  0.18140  0.49164  1.0000
  H   H427      1.0  0.05185  0.15052  0.47609  1.0000
  H   H428      1.0  0.42688  0.28250  0.01262  1.0000
  C   C521      1.0  0.46869  0.27341  0.04118  1.0000
  H   H429      1.0  0.43140  0.26493  0.14978  1.0000
  C   C522      1.0  0.31342  0.18632  0.39502  1.0000
  S   S84       1.0  0.22573  0.22617  0.33526  1.0000
  H   H430      1.0  0.02056  0.35335  0.40981  1.0000
  S   S85       1.0  0.24429  0.18677  0.37750  1.0000
  C   C523      1.0  0.29213  0.18905  0.46106  1.0000
  C   C524      1.0  0.21637  0.34880  0.27092  1.0000
  Fe  Fe43      1.0  0.38246  0.25773  0.13616  1.0000
  S   S86       1.0  0.36703  0.26150  0.11153  1.0000
  S   S87       1.0  0.37645  0.23826  0.16468  1.0000
  Fe  Fe44      1.0  0.40854  0.28625  0.11518  1.0000
  S   S88       1.0  0.39560  0.29212  0.08884  1.0000
  S   S89       1.0  0.43430  0.29901  0.11537  1.0000
  Fe  Fe45      1.0  0.36727  0.29271  0.10896  1.0000
  S   S90       1.0  0.34404  0.31736  0.10086  1.0000
  Fe  Fe46      1.0  0.39666  0.26047  0.09362  1.0000
  S   S91       1.0  0.40437  0.24631  0.06773  1.0000
  S   S92       1.0  0.38020  0.28933  0.13518  1.0000
  S   S93       1.0  0.41213  0.25422  0.11839  1.0000
  Fe  Fe47      1.0  0.19752  0.34889  0.08230  1.0000
  H   H431      1.0  0.27041  0.19762  0.29994  1.0000
  S   S94       1.0  0.17002  0.33829  0.08379  1.0000
  Fe  Fe48      1.0  0.23739  0.33462  0.09417  1.0000
  S   S95       1.0  0.24568  0.36361  0.08396  1.0000
  S   S96       1.0  0.25726  0.30884  0.10728  1.0000
  C   C525      1.0  0.34661  0.18513  0.37856  1.0000
  C   C526      1.0  0.07157  0.25174  0.40180  1.0000
  C   C527      1.0  0.46525  0.25210  0.11030  1.0000
  C   C528      1.0  0.13580  0.37371  0.04764  1.0000
  S   S97       1.0  0.20810  0.34571  0.10984  1.0000
  S   S98       1.0  0.22594  0.33453  0.06797  1.0000
  C   C529      1.0  0.29551  0.30008  0.06221  1.0000
  C   C530      1.0  0.16463  0.33762  0.27878  1.0000
  H   H432      1.0  0.14863  0.24780  0.41167  1.0000
  C   C531      1.0  0.40463  0.20226  0.46002  1.0000
  H   H433      1.0  0.07282  0.20857  0.30325  1.0000
  C   C532      1.0  0.41411  0.35606  0.11271  1.0000
  H   H434      1.0  0.11623  0.20177  0.43418  1.0000
  C   C533      1.0  0.35769  0.36369  0.09499  1.0000
  Fe  Fe49      1.0  0.09962  0.27713  0.32217  1.0000
  S   S99       1.0  0.08024  0.27854  0.30175  1.0000
  S   S100      1.0  0.09450  0.30273  0.33626  1.0000
  Fe  Fe50      1.0  0.12299  0.23870  0.31401  1.0000
  S   S101      1.0  0.10535  0.23725  0.29250  1.0000
  S   S102      1.0  0.14563  0.21333  0.32255  1.0000
  Fe  Fe51      1.0  0.10726  0.26853  0.28229  1.0000
  S   S103      1.0  0.11435  0.28354  0.25166  1.0000
  Fe  Fe52      1.0  0.08001  0.24749  0.31409  1.0000
  S   S104      1.0  0.05083  0.23876  0.32439  1.0000
  S   S105      1.0  0.12696  0.26902  0.30206  1.0000
  S   S106      1.0  0.09743  0.24695  0.33628  1.0000
  H   H435      1.0  0.05613  0.27990  0.24493  1.0000
  C   C534      1.0  0.01888  0.26908  0.28588  1.0000
  S   S107      1.0  0.00880  0.32283  0.37905  1.0000
  C   C535      1.0  0.09166  0.24810  0.39960  1.0000
  H   H436      1.0  0.15556  0.24600  0.44372  1.0000
  C   C536      1.0  0.19851  0.36574  0.24599  1.0000
  C   C537      1.0  0.43853  0.28031  0.02047  1.0000
  H   H437      1.0  0.12575  0.20953  0.36388  1.0000
  C   C538      1.0  0.32674  0.18973  0.37813  1.0000
  S   S108      1.0  0.14280  0.37175  0.24719  1.0000
  C   C539      1.0  0.10818  0.30874  0.24877  1.0000
  C   C540      1.0  0.09099  0.31756  0.25884  1.0000
  C   C541      1.0  0.08590  0.33764  0.25576  1.0000
  C   C542      1.0  0.09836  0.34901  0.24321  1.0000
  C   C543      1.0  0.11573  0.34022  0.23344  1.0000
  C   C544      1.0  0.12041  0.32015  0.23589  1.0000
  H   H438      1.0  0.08127  0.30894  0.26849  1.0000
  H   H439      1.0  0.07234  0.34430  0.26321  1.0000
  H   H440      1.0  0.12552  0.34887  0.22387  1.0000
  H   H441      1.0  0.13379  0.31351  0.22815  1.0000
  C   C545      1.0  0.04681  0.21603  0.32305  1.0000
  C   C546      1.0  0.02971  0.21019  0.33346  1.0000
  H   H442      1.0  0.01962  0.21931  0.34239  1.0000
  C   C547      1.0  0.07012  0.30804  0.34678  1.0000
  C   C548      1.0  0.06003  0.32687  0.34367  1.0000
  C   C549      1.0  0.04101  0.33151  0.35317  1.0000
  C   C550      1.0  0.03210  0.31731  0.36595  1.0000
  C   C551      1.0  0.04200  0.29836  0.36865  1.0000
  C   C552      1.0  0.06091  0.29369  0.35892  1.0000
  H   H443      1.0  0.06691  0.33787  0.33389  1.0000
  H   H444      1.0  0.03345  0.34616  0.35105  1.0000
  H   H445      1.0  0.03502  0.28730  0.37832  1.0000
  H   H446      1.0  0.06854  0.27907  0.36121  1.0000
  C   C553      1.0  0.35738  0.23238  0.03722  1.0000
  C   C554      1.0  0.40401  0.26829  0.47115  1.0000
  H   H447      1.0  0.32261  0.26908  0.02296  1.0000
  H   H448      1.0  0.40279  0.19113  0.41486  1.0000
  H   H449      1.0  0.01998  0.21979  0.40184  1.0000
  C   C555      1.0  0.02189  0.24733  0.25767  1.0000
  H   H450      1.0  0.24056  0.31154  0.19915  1.0000
  H   H451      1.0  0.04601  0.23943  0.40637  1.0000
  H   H452      1.0  0.12320  0.20050  0.46618  1.0000
  H   H453      1.0  0.10010  0.19295  0.35533  1.0000
  C   C556      1.0  0.19200  0.37392  0.18003  1.0000
  C   C557      1.0  0.20307  0.36179  0.16767  1.0000
  C   C558      1.0  0.20886  0.36907  0.14827  1.0000
  C   C559      1.0  0.33993  0.24189  0.03172  1.0000
  H   H454      1.0  0.46352  0.22426  0.47135  1.0000
  H   H455      1.0  0.21738  0.35964  0.13886  1.0000
  C   C560      1.0  0.15227  0.34812  0.06941  1.0000
  H   H456      1.0  0.41347  0.21684  0.17983  1.0000
  C   C561      1.0  0.41706  0.37066  0.04439  1.0000
  C   C562      1.0  0.12177  0.36259  0.04877  1.0000
  C   C563      1.0  0.12311  0.34439  0.06022  1.0000
  C   C564      1.0  0.13819  0.33724  0.07045  1.0000
  H   H457      1.0  0.06042  0.34811  0.21881  1.0000
  C   C565      1.0  0.06158  0.23661  0.40451  1.0000
  H   H458      1.0  0.11238  0.33571  0.06118  1.0000
  H   H459      1.0  0.13890  0.32315  0.07931  1.0000
  H   H460      1.0  0.33972  0.28148  0.99034  1.0000
  C   C566      1.0  0.32032  0.31405  0.10250  1.0000
  C   C567      1.0  0.30772  0.32891  0.09353  1.0000
  C   C568      1.0  0.28835  0.32758  0.09533  1.0000
  C   C569      1.0  0.28138  0.31123  0.10593  1.0000
  C   C570      1.0  0.29406  0.29616  0.11481  1.0000
  C   C571      1.0  0.31354  0.29754  0.11309  1.0000
  H   H461      1.0  0.31303  0.34145  0.08492  1.0000
  H   H462      1.0  0.27908  0.33899  0.08791  1.0000
  H   H463      1.0  0.28884  0.28336  0.12290  1.0000
  H   H464      1.0  0.32321  0.28596  0.12005  1.0000
  C   C572      1.0  0.43248  0.32408  0.11130  1.0000
  C   C573      1.0  0.41494  0.33612  0.11599  1.0000
  H   H465      1.0  0.47283  0.22510  0.12855  1.0000
  C   C574      1.0  0.44810  0.35203  0.09926  1.0000
  C   C575      1.0  0.44905  0.33207  0.10315  1.0000
  H   H466      1.0  0.40208  0.33008  0.12230  1.0000
  H   H467      1.0  0.21709  0.34171  0.28549  1.0000
  H   H468      1.0  0.46262  0.32277  0.09973  1.0000
  C   C576      1.0  0.42836  0.23552  0.06058  1.0000
  C   C577      1.0  0.44099  0.22817  0.07359  1.0000
  C   C578      1.0  0.45929  0.21760  0.06765  1.0000
  C   C579      1.0  0.46533  0.21536  0.04851  1.0000
  C   C580      1.0  0.45328  0.22415  0.03527  1.0000
  C   C581      1.0  0.43465  0.23362  0.04140  1.0000
  H   H469      1.0  0.43648  0.23020  0.08827  1.0000
  H   H470      1.0  0.46877  0.21128  0.07777  1.0000
  H   H471      1.0  0.45801  0.22278  0.02040  1.0000
  H   H472      1.0  0.42507  0.23953  0.03122  1.0000
  C   C582      1.0  0.20386  0.22222  0.33114  1.0000
  C   C583      1.0  0.19165  0.23746  0.32195  1.0000
  C   C584      1.0  0.17371  0.23493  0.31931  1.0000
  C   C585      1.0  0.16801  0.21706  0.32562  1.0000
  C   C586      1.0  0.18046  0.20170  0.33440  1.0000
  C   C587      1.0  0.19827  0.20429  0.33729  1.0000
  H   H473      1.0  0.19596  0.25132  0.31705  1.0000
  H   H474      1.0  0.16433  0.24678  0.31236  1.0000
  H   H475      1.0  0.00323  0.19346  0.42060  1.0000
  H   H476      1.0  0.01248  0.18811  0.34081  1.0000
  H   H477      1.0  0.45459  0.22009  0.16503  1.0000
  C   C588      1.0  0.36134  0.19546  0.14645  1.0000
  C   C589      1.0  0.36594  0.21314  0.14699  1.0000
  C   C590      1.0  0.36945  0.21666  0.16395  1.0000
  C   C591      1.0  0.43261  0.27941  0.47324  1.0000
  H   H478      1.0  0.02300  0.23889  0.24678  1.0000
  C   C592      1.0  0.43807  0.18960  0.15767  1.0000
  H   H479      1.0  0.36704  0.22388  0.13418  1.0000
  H   H480      1.0  0.01810  0.24245  0.30570  1.0000
  H   H481      1.0  0.46096  0.35806  0.09289  1.0000
  C   C593      1.0  0.48979  0.19273  0.19925  1.0000
  Fe  Fe53      1.0  0.24622  0.20012  0.34661  1.0000
  H   H482      1.0  0.08571  0.28848  0.22399  1.0000
  H   H483      1.0  0.44570  0.27609  0.06575  1.0000
  H   H484      1.0  0.18922  0.35523  0.02405  1.0000
  H   H485      1.0  0.40726  0.19248  0.05480  1.0000
  P   P19       1.0  0.31299  0.20641  0.23684  1.0000
  H   H486      1.0  0.19631  0.37110  0.33685  1.0000
  C   C594      1.0  0.31919  0.22666  0.21889  1.0000
  C   C595      1.0  0.30785  0.23465  0.20472  1.0000
  C   C596      1.0  0.31335  0.24936  0.18993  1.0000
  C   C597      1.0  0.33014  0.25625  0.18923  1.0000
  C   C598      1.0  0.34131  0.24862  0.20345  1.0000
  C   C599      1.0  0.33591  0.23387  0.21824  1.0000
  C   C600      1.0  0.08969  0.26590  0.97806  1.0000
  C   C601      1.0  0.41937  0.27787  0.46247  1.0000
  H   H487      1.0  0.11798  0.19245  0.29552  1.0000
  C   C602      1.0  0.11815  0.37387  0.34843  1.0000
  C   C603      1.0  0.44233  0.22017  0.45662  1.0000
  C   C604      1.0  0.29275  0.21400  0.25478  1.0000
  C   C605      1.0  0.28883  0.20176  0.27240  1.0000
  C   C606      1.0  0.06995  0.27212  0.98354  1.0000
  C   C607      1.0  0.26129  0.22499  0.28294  1.0000
  C   C608      1.0  0.26501  0.23731  0.26544  1.0000
  C   C609      1.0  0.28069  0.23188  0.25140  1.0000
  Fe  Fe54      1.0  0.23242  0.36430  0.05872  1.0000
  C   C610      1.0  0.00091  0.29765  0.34551  1.0000
  H   H488      1.0  0.34906  0.31773  0.16560  1.0000
  H   H489      1.0  0.06234  0.26563  0.99713  1.0000
  C   C611      1.0  0.38737  0.19551  0.09021  1.0000
  H   H490      1.0  0.29501  0.22916  0.20485  1.0000
  H   H491      1.0  0.30485  0.25511  0.17874  1.0000
  H   H492      1.0  0.33479  0.26718  0.17741  1.0000
  H   H493      1.0  0.35455  0.25374  0.20255  1.0000
  H   H494      1.0  0.34501  0.22786  0.22883  1.0000
  H   H495      1.0  0.30139  0.36278  0.17736  1.0000
  H   H496      1.0  0.02191  0.27393  0.23775  1.0000
  C   C612      1.0  0.41557  0.19459  0.13594  1.0000
  H   H497      1.0  0.99371  0.34836  0.30578  1.0000
  H   H498      1.0  0.32518  0.20831  0.27253  1.0000
  C   C613      1.0  0.03759  0.31930  0.30251  1.0000
  H   H499      1.0  0.40011  0.22742  0.47288  1.0000
  H   H500      1.0  0.48040  0.23521  0.16945  1.0000
  C   C614      1.0  0.99711  0.20344  0.40915  1.0000
  C   C615      1.0  0.08962  0.36325  0.17391  1.0000
  H   H501      1.0  0.29959  0.32528  0.13941  1.0000
  H   H502      1.0  0.41495  0.22822  0.39625  1.0000
  C   C616      1.0  0.48301  0.25576  0.07770  1.0000
  H   H503      1.0  0.99123  0.33228  0.28031  1.0000
  H   H504      1.0  0.39369  0.26722  0.46282  1.0000
  C   C617      1.0  0.25572  0.33196  0.17869  1.0000
  H   H505      1.0  0.29007  0.29125  0.07548  1.0000
  C   C618      1.0  0.07167  0.21785  0.40515  1.0000
  C   C619      1.0  0.43063  0.36409  0.10418  1.0000
  C   C620      1.0  0.46078  0.24585  0.44606  1.0000
  C   C621      1.0  0.45614  0.22971  0.45924  1.0000
  C   C622      1.0  0.23362  0.34952  0.25780  1.0000
  H   H506      1.0  0.26924  0.32074  0.06237  1.0000
  C   C623      1.0  0.36391  0.37604  0.04780  1.0000
  C   C624      1.0  0.13740  0.20151  0.39006  1.0000
  H   H507      1.0  0.04147  0.21893  0.37107  1.0000
  C   C625      1.0  0.00564  0.33766  0.30081  1.0000
  C   C626      1.0  0.05911  0.33320  0.22381  1.0000
  P   P20       1.0  0.41587  0.21372  0.43694  1.0000
  C   C627      1.0  0.39787  0.22979  0.42449  1.0000
  C   C628      1.0  0.43291  0.22679  0.44081  1.0000
  C   C629      1.0  0.43764  0.24304  0.42763  1.0000
  S   S109      1.0  0.48765  0.20146  0.04065  1.0000
  H   H508      1.0  0.12554  0.37877  0.10392  1.0000
  H   H509      1.0  0.47167  0.25306  0.44806  1.0000
  S   S110      1.0  0.28847  0.19296  0.39540  1.0000
  C   C630      1.0  0.40141  0.23418  0.40441  1.0000
  C   C631      1.0  0.38736  0.24607  0.39461  1.0000
  C   C632      1.0  0.36973  0.25381  0.40477  1.0000
  C   C633      1.0  0.36616  0.24974  0.42474  1.0000
  C   C634      1.0  0.38015  0.23778  0.43459  1.0000
  C   C635      1.0  0.48903  0.30913  0.04057  1.0000
  C   C636      1.0  0.17001  0.25189  0.36199  1.0000
  H   H510      1.0  0.08765  0.36481  0.20356  1.0000
  C   C637      1.0  0.45154  0.25252  0.43026  1.0000
  S   S111      1.0  0.27749  0.20210  0.34227  1.0000
  C   C638      1.0  0.03208  0.35829  0.39885  1.0000
  H   H511      1.0  0.43085  0.24823  0.41517  1.0000
  H   H512      1.0  0.45710  0.19753  0.42629  1.0000
  C   C639      1.0  0.47894  0.22094  0.17705  1.0000
  H   H513      1.0  0.38226  0.21128  0.23741  1.0000
  C   C640      1.0  0.28290  0.20804  0.46194  1.0000
  H   H514      1.0  0.03134  0.18727  0.37712  1.0000
  H   H515      1.0  0.39008  0.24910  0.37911  1.0000
  H   H516      1.0  0.35877  0.26282  0.39714  1.0000
  H   H517      1.0  0.35238  0.25550  0.43261  1.0000
  H   H518      1.0  0.37678  0.23453  0.45000  1.0000
  C   C641      1.0  0.08515  0.19144  0.36015  1.0000
  C   C642      1.0  0.19839  0.29790  0.12706  1.0000
  C   C643      1.0  0.19646  0.29139  0.11099  1.0000
  C   C644      1.0  0.17814  0.29165  0.10747  1.0000
  C   C645      1.0  0.16171  0.29880  0.11977  1.0000
  C   C646      1.0  0.16354  0.30602  0.13556  1.0000
  C   C647      1.0  0.18199  0.30504  0.13942  1.0000
  P   P21       1.0  0.14256  0.31558  0.15146  1.0000
  C   C648      1.0  0.12172  0.32347  0.13997  1.0000
  C   C649      1.0  0.13915  0.29694  0.17218  1.0000
  C   C650      1.0  0.13035  0.28171  0.17147  1.0000
  C   C651      1.0  0.12726  0.26746  0.18760  1.0000
  C   C652      1.0  0.13340  0.26805  0.20437  1.0000
  C   C653      1.0  0.14306  0.28259  0.20484  1.0000
  C   C654      1.0  0.14609  0.29692  0.18878  1.0000
  C   C655      1.0  0.10352  0.31956  0.14958  1.0000
  C   C656      1.0  0.08745  0.32623  0.14063  1.0000
  Fe  Fe55      1.0  0.21573  0.37477  0.09786  1.0000
  H   H519      1.0  0.12726  0.31987  0.34549  1.0000
  C   C657      1.0  0.12332  0.33509  0.12177  1.0000
  C   C658      1.0  0.14626  0.33724  0.15722  1.0000
  C   C659      1.0  0.15839  0.34870  0.14419  1.0000
  C   C660      1.0  0.16078  0.36580  0.14838  1.0000
  C   C661      1.0  0.15062  0.37195  0.16520  1.0000
  C   C662      1.0  0.13827  0.36080  0.17806  1.0000
  C   C663      1.0  0.13595  0.34357  0.17405  1.0000
  H   H520      1.0  0.21263  0.29776  0.12967  1.0000
  H   H521      1.0  0.20918  0.28638  0.10114  1.0000
  H   H522      1.0  0.17668  0.28693  0.09480  1.0000
  H   H523      1.0  0.14769  0.29916  0.11658  1.0000
  H   H524      1.0  0.18373  0.31021  0.15172  1.0000
  H   H525      1.0  0.12579  0.28091  0.15848  1.0000
  H   H526      1.0  0.33772  0.18466  0.08812  1.0000
  H   H527      1.0  0.13081  0.25720  0.21702  1.0000
  H   H528      1.0  0.14804  0.28278  0.21781  1.0000
  H   H529      1.0  0.15387  0.30788  0.18943  1.0000
  H   H530      1.0  0.10161  0.31155  0.16403  1.0000
  H   H531      1.0  0.18347  0.31984  0.30857  1.0000
  C   C664      1.0  0.39817  0.21270  0.47502  1.0000
  H   H532      1.0  0.14533  0.33707  0.30612  1.0000
  H   H533      1.0  0.13706  0.33889  0.11437  1.0000
  H   H534      1.0  0.16595  0.34455  0.13073  1.0000
  H   H535      1.0  0.48633  0.30673  0.02730  1.0000
  C   C665      1.0  0.00423  0.32836  0.28637  1.0000
  H   H536      1.0  0.13048  0.36553  0.19115  1.0000
  H   H537      1.0  0.12606  0.33530  0.18407  1.0000
  H   H538      1.0  0.43110  0.20055  0.02621  1.0000
  C   C666      1.0  0.24581  0.38013  0.17564  1.0000
  C   C667      1.0  0.37209  0.36930  0.03065  1.0000
  H   H539      1.0  0.07351  0.32289  0.14796  1.0000
  C   C668      1.0  0.34378  0.37943  0.05332  1.0000
  H   H540      1.0  0.18109  0.33465  0.25047  1.0000
  Fe  Fe56      1.0  0.99059  0.35092  0.36871  1.0000
  H   H541      1.0  0.24723  0.34314  0.26238  1.0000
  H   H542      1.0  0.05209  0.36795  0.28410  1.0000
  C   C669      1.0  0.42857  0.19607  0.42235  1.0000
  S   S112      1.0  0.20312  0.37882  0.07115  1.0000
  H   H543      1.0  0.23661  0.20018  0.47571  1.0000
  C   C670      1.0  0.31536  0.18829  0.20601  1.0000
  H   H544      1.0  0.48861  0.30318  0.19290  1.0000
  H   H545      1.0  0.14307  0.22203  0.47106  1.0000
  C   C671      1.0  0.47975  0.31340  0.15484  1.0000
  C   C672      1.0  0.19860  0.35708  0.26513  1.0000
  C   C673      1.0  0.30690  0.32979  0.14876  1.0000
  P   P22       1.0  0.07853  0.37885  0.34852  1.0000
  C   C674      1.0  0.19606  0.34089  0.34025  1.0000
  C   C675      1.0  0.42191  0.33485  0.06814  1.0000
  C   C676      1.0  0.99754  0.31278  0.25009  1.0000
  H   H546      1.0  0.12818  0.31307  0.30120  1.0000
  C   C677      1.0  0.04828  0.34521  0.39278  1.0000
  H   H547      1.0  0.00763  0.25275  0.33615  1.0000
  C   C678      1.0  0.32513  0.31978  0.15167  1.0000
  P   P23       1.0  0.48811  0.27037  0.05427  1.0000
  H   H548      1.0  0.08817  0.34833  0.17687  1.0000
  C   C679      1.0  0.30445  0.25726  0.46782  1.0000
  C   C680      1.0  0.27323  0.20723  0.28640  1.0000
  C   C681      1.0  0.05639  0.29478  0.23859  1.0000
  H   H549      1.0  0.46313  0.36875  0.14423  1.0000
  C   C682      1.0  0.04222  0.32844  0.23574  1.0000
  H   H550      1.0  0.01140  0.32504  0.22188  1.0000
  H   H551      1.0  0.04823  0.29943  0.28310  1.0000
  H   H552      1.0  0.42378  0.32089  0.07721  1.0000
  H   H553      1.0  0.00678  0.24191  0.37510  1.0000
  C   C683      1.0  0.42096  0.18297  0.05282  1.0000
  C   C684      1.0  0.16989  0.32989  0.26189  1.0000
  C   C685      1.0  0.01922  0.24934  0.29087  1.0000
  C   C686      1.0  0.07463  0.31877  0.21923  1.0000
  C   C687      1.0  0.14002  0.26789  0.35174  1.0000
  Fe  Fe57      1.0  0.27604  0.18624  0.37229  1.0000
  C   C688      1.0  0.12483  0.21154  0.43605  1.0000
  C   C689      1.0  0.29832  0.34577  0.15747  1.0000
  H   H554      1.0  0.46015  0.20007  0.11131  1.0000
  C   C690      1.0  0.03622  0.30999  0.28807  1.0000
  C   C691      1.0  0.43459  0.35803  0.04185  1.0000
  C   C692      1.0  0.05972  0.20404  0.31154  1.0000
  C   C693      1.0  0.04057  0.30918  0.24295  1.0000
  C   C694      1.0  0.46722  0.27584  0.16704  1.0000
  H   H555      1.0  0.16405  0.31051  0.24612  1.0000
  C   C695      1.0  0.18571  0.33125  0.31480  1.0000
  H   H556      1.0  0.12016  0.25591  0.18714  1.0000
  C   C696      1.0  0.14320  0.23720  0.42331  1.0000
  H   H557      1.0  0.31438  0.33225  0.01491  1.0000
  C   C697      1.0  0.28373  0.31671  0.05480  1.0000
  C   C698      1.0  0.46141  0.26871  0.18655  1.0000
  C   C699      1.0  0.44513  0.25993  0.19266  1.0000
  C   C700      1.0  0.43438  0.25845  0.17940  1.0000
  C   C701      1.0  0.44001  0.26561  0.16002  1.0000
  H   H558      1.0  0.46062  0.27976  0.13883  1.0000
  C   C702      1.0  0.00033  0.26555  0.34173  1.0000
  C   C703      1.0  0.46162  0.32133  0.14978  1.0000
  C   C704      1.0  0.45564  0.34120  0.14620  1.0000
  C   C705      1.0  0.08348  0.37084  0.31167  1.0000
  C   C706      1.0  0.04640  0.18833  0.37262  1.0000
  H   H559      1.0  0.44444  0.28697  0.46657  1.0000
  H   H560      1.0  0.06373  0.26628  0.40151  1.0000
  C   C707      1.0  0.01959  0.31447  0.27986  1.0000
  S   S113      1.0  0.99384  0.36768  0.33883  1.0000
  C   C708      1.0  0.29393  0.24223  0.47190  1.0000
  C   C709      1.0  0.02135  0.26713  0.25261  1.0000
  H   H561      1.0  0.04922  0.33013  0.39899  1.0000
  H   H562      1.0  0.30758  0.18542  0.45700  1.0000
  C   C710      1.0  0.25210  0.19714  0.47163  1.0000
  C   C711      1.0  0.06285  0.35136  0.37810  1.0000
  H   H563      1.0  0.46935  0.26992  0.19711  1.0000
  H   H564      1.0  0.44075  0.25443  0.20771  1.0000
  H   H565      1.0  0.42159  0.25195  0.18410  1.0000
  C   C712      1.0  0.12477  0.33490  0.34654  1.0000
  C   C713      1.0  0.00977  0.28121  0.33792  1.0000
  H   H566      1.0  0.45211  0.31239  0.14817  1.0000
  H   H567      1.0  0.44178  0.34722  0.14199  1.0000
  C   C714      1.0  0.33575  0.19802  0.26528  1.0000
  H   H568      1.0  0.44630  0.36221  0.03068  1.0000
  H   H569      1.0  0.28162  0.34130  0.03226  1.0000
  C   C715      1.0  0.15991  0.26625  0.34987  1.0000
  H   H570      1.0  0.17627  0.18778  0.33909  1.0000
  H   H571      1.0  0.02147  0.22305  0.28088  1.0000
  C   C716      1.0  0.36806  0.37866  0.08690  1.0000
  C   C717      1.0  0.02568  0.19238  0.33274  1.0000
  S   S114      1.0  0.18425  0.36414  0.20406  1.0000
  C   C718      1.0  0.06120  0.37069  0.36914  1.0000
  H   H572      1.0  0.19501  0.31170  0.33924  1.0000
  H   H573      1.0  0.20116  0.33728  0.35375  1.0000
  H   H574      1.0  0.20685  0.34666  0.17307  1.0000
  H   H575      1.0  0.09912  0.25991  0.39812  1.0000
  C   C719      1.0  0.31433  0.29502  0.05272  1.0000
  C   C720      1.0  0.32123  0.30614  0.03523  1.0000
  P   P24       1.0  0.34494  0.29849  0.02214  1.0000
  C   C721      1.0  0.34490  0.30746  0.99693  1.0000
  C   C722      1.0  0.36285  0.30825  0.02893  1.0000
  C   C723      1.0  0.38054  0.30947  0.01647  1.0000
  C   C724      1.0  0.39455  0.31713  0.02136  1.0000
  C   C725      1.0  0.39116  0.32328  0.03884  1.0000
  C   C726      1.0  0.37365  0.32203  0.05138  1.0000
  C   C727      1.0  0.35949  0.31451  0.04649  1.0000
  C   C728      1.0  0.26278  0.21199  0.46699  1.0000
  C   C729      1.0  0.05717  0.37068  0.29604  1.0000
  C   C730      1.0  0.13987  0.22306  0.45696  1.0000
  H   H576      1.0  0.16223  0.37470  0.05675  1.0000
  C   C731      1.0  0.34753  0.32641  0.98924  1.0000
  C   C732      1.0  0.35031  0.27256  0.02722  1.0000
  C   C733      1.0  0.33637  0.26189  0.02680  1.0000
  H   H577      1.0  0.38743  0.22943  0.20412  1.0000
  H   H578      1.0  0.01748  0.27717  0.29709  1.0000
  C   C734      1.0  0.37129  0.24285  0.03775  1.0000
  C   C735      1.0  0.36780  0.26285  0.03284  1.0000
  C   C736      1.0  0.29075  0.32831  0.03787  1.0000
  H   H579      1.0  0.32335  0.28231  0.05898  1.0000
  H   H580      1.0  0.38345  0.30459  0.00291  1.0000
  H   H581      1.0  0.40804  0.31839  0.01159  1.0000
  H   H582      1.0  0.40205  0.32922  0.04249  1.0000
  H   H583      1.0  0.37099  0.32694  0.06490  1.0000
  H   H584      1.0  0.34605  0.31362  0.05645  1.0000
  C   C737      1.0  0.39683  0.21600  0.20811  1.0000
  C   C738      1.0  0.41152  0.20866  0.19425  1.0000
  H   H585      1.0  0.34189  0.34912  0.12054  1.0000
  C   C739      1.0  0.34039  0.36802  0.02556  1.0000
  H   H586      1.0  0.34972  0.33558  0.99819  1.0000
  C   C740      1.0  0.39394  0.20579  0.22679  1.0000
  C   C741      1.0  0.23330  0.35834  0.23877  1.0000
  C   C742      1.0  0.41828  0.18733  0.41339  1.0000
  C   C743      1.0  0.43445  0.18758  0.03638  1.0000
  H   H587      1.0  0.37867  0.27056  0.03391  1.0000
  C   C744      1.0  0.16022  0.31619  0.25929  1.0000
  C   C745      1.0  0.05206  0.20612  0.36949  1.0000
  C   C746      1.0  0.29467  0.37826  0.09602  1.0000
  H   H588      1.0  0.48905  0.33933  0.03007  1.0000
  C   C747      1.0  0.40446  0.34757  0.07095  1.0000
  C   C748      1.0  0.13242  0.22448  0.42036  1.0000
  H   H589      1.0  0.33125  0.36520  0.01686  1.0000
  C   C749      1.0  0.10196  0.22939  0.39928  1.0000
  C   C750      1.0  0.19251  0.32652  0.33213  1.0000
  P   P25       1.0  0.17607  0.35630  0.28188  1.0000
  C   C751      1.0  0.20273  0.37503  0.00118  1.0000
  H   H590      1.0  0.28323  0.24165  0.23800  1.0000
  C   C752      1.0  0.30943  0.32309  0.02808  1.0000
  C   C753      1.0  0.35041  0.19930  0.45911  1.0000
  C   C754      1.0  0.35970  0.19941  0.44017  1.0000
  C   C755      1.0  0.35015  0.20927  0.42522  1.0000
  C   C756      1.0  0.33103  0.21850  0.42917  1.0000
  C   C757      1.0  0.32147  0.21810  0.44821  1.0000
  C   C758      1.0  0.33139  0.20868  0.46314  1.0000
  P   P26       1.0  0.29619  0.22763  0.45407  1.0000
  C   C759      1.0  0.19331  0.35991  0.33078  1.0000
  C   C760      1.0  0.30791  0.35104  0.16984  1.0000
  H   H591      1.0  0.38470  0.23550  0.04230  1.0000
  H   H592      1.0  0.48732  0.27263  0.01354  1.0000
  C   C761      1.0  0.48570  0.34561  0.15256  1.0000
  H   H593      1.0  0.34555  0.37081  0.14107  1.0000
  H   H594      1.0  0.13188  0.36782  0.29138  1.0000
  C   C762      1.0  0.18726  0.36628  0.01161  1.0000
  H   H595      1.0  0.09327  0.36559  0.14349  1.0000
  C   C763      1.0  0.44880  0.19737  0.12338  1.0000
  H   H596      1.0  0.24661  0.35882  0.22854  1.0000
  C   C764      1.0  0.47265  0.27429  0.02125  1.0000
  C   C765      1.0  0.28669  0.24158  0.43332  1.0000
  C   C766      1.0  0.28527  0.23219  0.41889  1.0000
  C   C767      1.0  0.27736  0.24238  0.40297  1.0000
  C   C768      1.0  0.27057  0.26205  0.40140  1.0000
  C   C769      1.0  0.27160  0.27152  0.41586  1.0000
  C   C770      1.0  0.27952  0.26133  0.43183  1.0000
  C   C771      1.0  0.24422  0.18435  0.42676  1.0000
  H   H597      1.0  0.37415  0.19152  0.43705  1.0000
  H   H598      1.0  0.35736  0.20911  0.41053  1.0000
  H   H599      1.0  0.32377  0.22538  0.41731  1.0000
  H   H600      1.0  0.36689  0.35995  0.00647  1.0000
  H   H601      1.0  0.31379  0.26006  0.45410  1.0000
  C   C772      1.0  0.14900  0.18709  0.40093  1.0000
  C   C773      1.0  0.30656  0.18982  0.22499  1.0000
  H   H602      1.0  0.00830  0.30968  0.34286  1.0000
  H   H603      1.0  0.30789  0.37615  0.08578  1.0000
  H   H604      1.0  0.46755  0.19143  0.14386  1.0000
  H   H605      1.0  0.25543  0.22660  0.46710  1.0000
  C   C774      1.0  0.35322  0.20604  0.09047  1.0000
  H   H606      1.0  0.18983  0.20470  0.42800  1.0000
  C   C775      1.0  0.36385  0.18465  0.17978  1.0000
  H   H607      1.0  0.29032  0.21690  0.42002  1.0000
  H   H608      1.0  0.27646  0.23491  0.39188  1.0000
  H   H609      1.0  0.26440  0.26989  0.38904  1.0000
  H   H610      1.0  0.26611  0.28675  0.41474  1.0000
  H   H611      1.0  0.27969  0.26892  0.44300  1.0000
  H   H612      1.0  0.34059  0.21719  0.09153  1.0000
  C   C776      1.0  0.14702  0.23637  0.44155  1.0000
  C   C777      1.0  0.37110  0.20993  0.09126  1.0000
  C   C778      1.0  0.35168  0.37310  0.12598  1.0000
  H   H613      1.0  0.11489  0.25650  0.36645  1.0000
  H   H614      1.0  0.42725  0.20108  0.10598  1.0000
  C   C779      1.0  0.13409  0.19835  0.37282  1.0000
  C   C780      1.0  0.23574  0.31316  0.17064  1.0000
  C   C781      1.0  0.18247  0.35044  0.30541  1.0000
  H   H615      1.0  0.16762  0.27560  0.33852  1.0000
  C   C782      1.0  0.13676  0.36317  0.34770  1.0000
  H   H616      1.0  0.43936  0.20741  0.46680  1.0000
  H   H617      1.0  0.46135  0.27777  0.08947  1.0000
  H   H618      1.0  0.35872  0.19277  0.13326  1.0000
  C   C783      1.0  0.07140  0.20761  0.36349  1.0000
  C   C784      1.0  0.46768  0.35335  0.14750  1.0000
  H   H619      1.0  0.32174  0.19623  0.36482  1.0000
  H   H620      1.0  0.15227  0.18920  0.41405  1.0000
  H   H621      1.0  0.32906  0.23378  0.03148  1.0000
  H   H622      1.0  0.17063  0.37425  0.13862  1.0000
  H   H623      1.0  0.30631  0.35818  0.11852  1.0000
  C   C785      1.0  0.33483  0.32542  0.16355  1.0000
  H   H624      1.0  0.08806  0.32244  0.21077  1.0000
  H   H625      1.0  0.40062  0.36531  0.11669  1.0000
  C   C786      1.0  0.16017  0.23930  0.37613  1.0000
  H   H626      1.0  0.09484  0.33882  0.34564  1.0000
  P   P27       1.0  0.12787  0.22459  0.39691  1.0000
  C   C787      1.0  0.14527  0.31012  0.27346  1.0000
  H   H627      1.0  0.35689  0.18802  0.36554  1.0000
  H   H628      1.0  0.09741  0.25456  0.98739  1.0000
  H   H629      1.0  0.39305  0.34313  0.08228  1.0000
  C   C788      1.0  0.10717  0.34197  0.11297  1.0000
  H   H630      1.0  0.43408  0.38055  0.99300  1.0000
  C   C789      1.0  0.02023  0.27808  0.26665  1.0000
  H   H631      1.0  0.06398  0.20600  0.40774  1.0000
  H   H632      1.0  0.37014  0.20520  0.19375  1.0000
  H   H633      1.0  0.05049  0.31578  0.30881  1.0000
  C   C790      1.0  0.24375  0.31820  0.18426  1.0000
  C   C791      1.0  0.13998  0.31765  0.29033  1.0000
  C   C792      1.0  0.07328  0.29959  0.22666  1.0000
  H   H634      1.0  0.42097  0.28419  0.44742  1.0000
  C   C793      1.0  0.15975  0.37923  0.27855  1.0000
  C   C794      1.0  0.45284  0.19276  0.14192  1.0000
  H   H635      1.0  0.25567  0.25104  0.26277  1.0000
  H   H636      1.0  0.45057  0.33035  0.05197  1.0000
  C   C795      1.0  0.14006  0.24129  0.37860  1.0000
  H   H637      1.0  0.13226  0.27858  0.34191  1.0000
  C   C796      1.0  0.14968  0.33128  0.29302  1.0000
  H   H638      1.0  0.18557  0.25000  0.35993  1.0000
  H   H639      1.0  0.16829  0.22783  0.38497  1.0000
  C   C797      1.0  0.25175  0.33559  0.14580  1.0000
  H   H640      1.0  0.35233  0.19019  0.28793  1.0000
  H   H641      1.0  0.13767  0.29972  0.27122  1.0000
  S   S115      1.0  0.10210  0.37035  0.03652  1.0000
  C   C798      1.0  0.43702  0.34014  0.05377  1.0000
  H   H642      1.0  0.08712  0.36232  0.28432  1.0000
  H   H643      1.0  0.40113  0.19879  0.09082  1.0000
  H   H644      1.0  0.99719  0.38021  0.43423  1.0000
  C   C799      1.0  0.21748  0.21086  0.42892  1.0000
  C   C800      1.0  0.23705  0.20349  0.42849  1.0000
  H   H645      1.0  0.31655  0.37817  0.04639  1.0000
  C   C801      1.0  0.13804  0.38052  0.28532  1.0000
  S   S116      1.0  0.09184  0.37417  0.23937  1.0000
  H   H646      1.0  0.07494  0.34079  0.37359  1.0000
  C   C802      1.0  0.45763  0.27751  0.01101  1.0000
  C   C803      1.0  0.13013  0.25535  0.36591  1.0000
  H   H647      1.0  0.33184  0.30779  0.14443  1.0000
  C   C804      1.0  0.10259  0.36505  0.34852  1.0000
  H   H648      1.0  0.35768  0.19138  0.47069  1.0000
  H   H649      1.0  0.21194  0.22567  0.43029  1.0000
  H   H650      1.0  0.24682  0.21257  0.42934  1.0000
  C   C805      1.0  0.40612  0.18849  0.23176  1.0000
  H   H651      1.0  0.15745  0.36457  0.01364  1.0000
  C   C806      1.0  0.43443  0.28004  0.04016  1.0000
  H   H652      1.0  0.07559  0.22144  0.36114  1.0000
  C   C807      1.0  0.07690  0.36751  0.29618  1.0000
  C   C808      1.0  0.08931  0.33729  0.12226  1.0000
  C   C809      1.0  0.43022  0.19814  0.12038  1.0000
  H   H653      1.0  0.26183  0.33576  0.18938  1.0000
  C   C810      1.0  0.03049  0.37760  0.39033  1.0000
  H   H654      1.0  0.10850  0.35092  0.09889  1.0000
  C   C811      1.0  0.16934  0.37161  0.00584  1.0000
  C   C812      1.0  0.09177  0.21423  0.40246  1.0000
  H   H655      1.0  0.07693  0.34238  0.11523  1.0000
  C   C813      1.0  0.33363  0.19435  0.24774  1.0000
  C   C814      1.0  0.25958  0.34093  0.15946  1.0000
  C   C815      1.0  0.10624  0.34564  0.34695  1.0000
  H   H656      1.0  0.20761  0.19247  0.34436  1.0000
  C   C816      1.0  0.00661  0.21820  0.39846  1.0000
  H   H657      1.0  0.32574  0.19720  0.19815  1.0000
  H   H658      1.0  0.02418  0.28040  0.32948  1.0000
  C   C817      1.0  0.12864  0.21082  0.45422  1.0000
  H   H659      1.0  0.40133  0.19468  0.13350  1.0000
  H   H660      1.0  0.23335  0.31806  0.14097  1.0000
  C   C818      1.0  0.36794  0.20251  0.18046  1.0000
  H   H661      1.0  0.25478  0.34199  0.13081  1.0000
  C   C819      1.0  0.41942  0.19027  0.15456  1.0000
  C   C820      1.0  0.46286  0.19348  0.18392  1.0000
  C   C821      1.0  0.14000  0.34363  0.34711  1.0000
  H   H662      1.0  0.46081  0.27779  0.99572  1.0000
  C   C822      1.0  0.32616  0.34094  0.17277  1.0000
  H   H663      1.0  0.15432  0.33534  0.34678  1.0000
  C   C823      1.0  0.02096  0.23841  0.27681  1.0000
  C   C824      1.0  0.15121  0.36636  0.05783  1.0000
  P   P28       1.0  0.01932  0.30361  0.25987  1.0000
  H   H664      1.0  0.35613  0.35393  0.08632  1.0000
  H   H665      1.0  0.37241  0.22412  0.09273  1.0000
  P   P29       1.0  0.27501  0.35865  0.15276  1.0000
  C   C825      1.0  0.34956  0.36093  0.11443  1.0000
  C   C826      1.0  0.02235  0.33321  0.30879  1.0000
  H   H666      1.0  0.09920  0.19953  0.40328  1.0000
  H   H667      1.0  0.22636  0.30260  0.17491  1.0000
  C   C827      1.0  0.46449  0.21221  0.17442  1.0000
  H   H668      1.0  0.04814  0.37728  0.11000  1.0000
  C   C828      1.0  0.47552  0.23356  0.11437  1.0000
  H   H669      1.0  0.03059  0.33981  0.23978  1.0000
  H   H670      1.0  0.33361  0.34515  0.18217  1.0000
  H   H671      1.0  0.02349  0.34038  0.31995  1.0000
  H   H672      1.0  0.45530  0.26494  0.41996  1.0000
  H   H673      1.0  0.09880  0.36809  0.31156  1.0000
  C   C829      1.0  0.35164  0.18774  0.08849  1.0000
  H   H674      1.0  0.21667  0.37050  0.00557  1.0000
  C   C830      1.0  0.44940  0.27648  0.05051  1.0000
  C   C831      1.0  0.45646  0.27409  0.15386  1.0000
  C   C832      1.0  0.40195  0.36567  0.05918  1.0000
  H   H675      1.0  0.45423  0.25793  0.12114  1.0000
  C   C833      1.0  0.44871  0.19095  0.41976  1.0000
  H   H676      1.0  0.41960  0.28203  0.04755  1.0000
  C   C834      1.0  0.46910  0.26323  0.09215  1.0000
  H   H677      1.0  0.40793  0.18706  0.16640  1.0000
  H   H678      1.0  0.14869  0.37022  0.34719  1.0000
  C   C835      1.0  0.20508  0.19913  0.42744  1.0000
  H   H679      1.0  0.27919  0.37309  0.99781  1.0000
  C   C836      1.0  0.23970  0.32188  0.15148  1.0000
  C   C837      1.0  0.99798  0.32261  0.23115  1.0000
  H   H680      1.0  0.38747  0.36749  0.02552  1.0000
  H   H681      1.0  0.24914  0.22913  0.29385  1.0000
  C   C838      1.0  0.29362  0.36791  0.11471  1.0000
  C   C839      1.0  0.36038  0.36509  0.01971  1.0000
  H   H682      1.0  0.20609  0.22244  0.47163  1.0000
  C   C840      1.0  0.21574  0.36639  0.23289  1.0000
  H   H683      1.0  0.21535  0.37286  0.21808  1.0000
  C   C841      1.0  0.07030  0.37710  0.32731  1.0000
  C   C842      1.0  0.47549  0.18384  0.19650  1.0000
  H   H684      1.0  0.23691  0.36971  0.17628  1.0000
  H   H685      1.0  0.18588  0.37923  0.30567  1.0000
  C   C843      1.0  0.05547  0.18623  0.31059  1.0000
  C   C844      1.0  0.99900  0.23076  0.38330  1.0000
  C   C845      1.0  0.27640  0.37026  0.12802  1.0000
  C   C846      1.0  0.35131  0.18792  0.27398  1.0000
  C   C847      1.0  0.26501  0.37804  0.16593  1.0000
  S   S117      1.0  0.24707  0.37048  0.02824  1.0000
  P   P30       1.0  0.48790  0.28770  0.15896  1.0000
  H   H686      1.0  0.36008  0.21691  0.04127  1.0000
  C   C848      1.0  0.33209  0.37531  0.04228  1.0000
  H   H687      1.0  0.16027  0.37645  0.09191  1.0000
  C   C849      1.0  0.48924  0.22589  0.10006  1.0000
  C   C850      1.0  0.05053  0.38093  0.32670  1.0000
  C   C851      1.0  0.42339  0.19094  0.19897  1.0000
  H   H688      1.0  0.18505  0.37160  0.24111  1.0000
  C   C852      1.0  0.18694  0.36459  0.31326  1.0000
  C   C853      1.0  0.34178  0.29610  0.98493  1.0000
  C   C854      1.0  0.04402  0.37772  0.31112  1.0000
  C   C855      1.0  0.08929  0.37252  0.18895  1.0000
  C   C856      1.0  0.09233  0.37312  0.15503  1.0000
  H   H689      1.0  0.29783  0.18791  0.27529  1.0000
  H   H690      1.0  0.02873  0.38065  0.31085  1.0000
  P   P31       1.0  0.44352  0.18264  0.18149  1.0000
  H   H691      1.0  0.14849  0.34363  0.47524  1.0000
  C   C857      1.0  0.40225  0.18306  0.46330  1.0000
  H   H692      1.0  0.03081  0.29174  0.88309  1.0000
  Fe  Fe58      1.0  0.35667  0.30110  0.62799  1.0000
  S   S118      1.0  0.33961  0.30557  0.60423  1.0000
  S   S119      1.0  0.34644  0.31305  0.65589  1.0000
  Fe  Fe59      1.0  0.38993  0.27403  0.60832  1.0000
  S   S120      1.0  0.37578  0.27663  0.58327  1.0000
  S   S121      1.0  0.42064  0.25859  0.60872  1.0000
  Fe  Fe60      1.0  0.36828  0.30793  0.58480  1.0000
  S   S122      1.0  0.37132  0.32935  0.55721  1.0000
  Fe  Fe61      1.0  0.34828  0.27376  0.60438  1.0000
  S   S123      1.0  0.33117  0.25105  0.60234  1.0000
  S   S124      1.0  0.38449  0.30570  0.60832  1.0000
  S   S125      1.0  0.36331  0.26892  0.62978  1.0000
  C   C858      1.0  0.22839  0.20747  0.76666  1.0000
  H   H693      1.0  0.16111  0.26130  0.89420  1.0000
  H   H694      1.0  0.04868  0.20634  0.80514  1.0000
  H   H695      1.0  0.02750  0.35088  0.77603  1.0000
  Fe  Fe62      1.0  0.25222  0.21926  0.55925  1.0000
  H   H696      1.0  0.47230  0.20937  0.65050  1.0000
  S   S126      1.0  0.26132  0.24657  0.56269  1.0000
  Fe  Fe63      1.0  0.22380  0.20222  0.54301  1.0000
  S   S127      1.0  0.19387  0.20791  0.53526  1.0000
  H   H697      1.0  0.14289  0.23934  0.88683  1.0000
  C   C859      1.0  0.41916  0.35134  0.62954  1.0000
  H   H698      1.0  0.22659  0.23416  0.48844  1.0000
  S   S128      1.0  0.22530  0.20673  0.57233  1.0000
  S   S129      1.0  0.24824  0.21808  0.52973  1.0000
  H   H699      1.0  0.38132  0.19182  0.62080  1.0000
  C   C860      1.0  0.06797  0.23430  0.95353  1.0000
  H   H700      1.0  0.44967  0.29854  0.59171  1.0000
  S   S130      1.0  0.25078  0.35866  0.85694  1.0000
  H   H701      1.0  0.03665  0.31929  0.76566  1.0000
  H   H702      1.0  0.26510  0.36745  0.81716  1.0000
  S   S131      1.0  0.21667  0.35317  0.89456  1.0000
  S   S132      1.0  0.47773  0.20091  0.53720  1.0000
  C   C861      1.0  0.15284  0.33030  0.48460  1.0000
  H   H703      1.0  0.10382  0.19600  0.82183  1.0000
  Fe  Fe64      1.0  0.22542  0.34280  0.86627  1.0000
  S   S133      1.0  0.22375  0.31202  0.86493  1.0000
  C   C862      1.0  0.46381  0.29039  0.59345  1.0000
  S   S134      1.0  0.20540  0.36600  0.85115  1.0000
  S   S135      1.0  0.06063  0.36317  0.84144  1.0000
  Fe  Fe65      1.0  0.15370  0.26806  0.81642  1.0000
  S   S136      1.0  0.14044  0.27071  0.79038  1.0000
  S   S137      1.0  0.17291  0.29041  0.81325  1.0000
  Fe  Fe66      1.0  0.13032  0.23686  0.83850  1.0000
  S   S138      1.0  0.11518  0.23758  0.81450  1.0000
  S   S139      1.0  0.12556  0.21762  0.86747  1.0000
  Fe  Fe67      1.0  0.14425  0.23853  0.79589  1.0000
  S   S140      1.0  0.15669  0.22223  0.77115  1.0000
  Fe  Fe68      1.0  0.11258  0.26956  0.81082  1.0000
  S   S141      1.0  0.08507  0.28885  0.80402  1.0000
  S   S142      1.0  0.16001  0.23579  0.82026  1.0000
  S   S143      1.0  0.12526  0.26886  0.83657  1.0000
  H   H704      1.0  0.06175  0.30663  0.94515  1.0000
  C   C863      1.0  0.06679  0.34205  0.83189  1.0000
  C   C864      1.0  0.08562  0.33183  0.83110  1.0000
  C   C865      1.0  0.09133  0.31539  0.82270  1.0000
  C   C866      1.0  0.07825  0.30933  0.81473  1.0000
  C   C867      1.0  0.05934  0.31947  0.81567  1.0000
  C   C868      1.0  0.05351  0.33568  0.82449  1.0000
  H   H705      1.0  0.09584  0.33676  0.83690  1.0000
  H   H706      1.0  0.10597  0.30776  0.82192  1.0000
  H   H707      1.0  0.04918  0.31466  0.80976  1.0000
  H   H708      1.0  0.03891  0.34350  0.82518  1.0000
  C   C869      1.0  0.18617  0.29617  0.82861  1.0000
  C   C870      1.0  0.19144  0.31439  0.82437  1.0000
  C   C871      1.0  0.20239  0.31958  0.83563  1.0000
  C   C872      1.0  0.20887  0.30638  0.85101  1.0000
  C   C873      1.0  0.20380  0.28804  0.85516  1.0000
  C   C874      1.0  0.19228  0.28304  0.84423  1.0000
  H   H709      1.0  0.18709  0.32462  0.81225  1.0000
  H   H710      1.0  0.20605  0.33372  0.83215  1.0000
  H   H711      1.0  0.20880  0.27766  0.86693  1.0000
  H   H712      1.0  0.18856  0.26889  0.84756  1.0000
  C   C875      1.0  0.14624  0.18395  0.74286  1.0000
  C   C876      1.0  0.11646  0.37915  0.84016  1.0000
  C   C877      1.0  0.46581  0.27578  0.60931  1.0000
  C   C878      1.0  0.29090  0.26534  0.49914  1.0000
  C   C879      1.0  0.29194  0.36543  0.90589  1.0000
  C   C880      1.0  0.11875  0.31448  0.93007  1.0000
  H   H713      1.0  0.30226  0.22020  0.52729  1.0000
  H   H714      1.0  0.29017  0.35509  0.89802  1.0000
  C   C881      1.0  0.36422  0.20321  0.59879  1.0000
  C   C882      1.0  0.00392  0.28482  0.93208  1.0000
  H   H715      1.0  0.16242  0.35825  0.85817  1.0000
  P   P32       1.0  0.00145  0.28528  0.82465  1.0000
  H   H716      1.0  0.99519  0.32585  0.82856  1.0000
  S   S144      1.0  0.01554  0.34996  0.88043  1.0000
  C   C883      1.0  0.48363  0.30278  0.64333  1.0000
  H   H717      1.0  0.19283  0.30235  0.49959  1.0000
  C   C884      1.0  0.28242  0.23849  0.48999  1.0000
  C   C885      1.0  0.99637  0.29726  0.85948  1.0000
  C   C886      1.0  0.06082  0.19638  0.81007  1.0000
  C   C887      1.0  0.28024  0.31851  0.80313  1.0000
  C   C888      1.0  0.15956  0.18999  0.50757  1.0000
  C   C889      1.0  0.14511  0.20620  0.76423  1.0000
  C   C890      1.0  0.12790  0.20086  0.77484  1.0000
  C   C891      1.0  0.13856  0.27733  0.55173  1.0000
  C   C892      1.0  0.16567  0.19846  0.58160  1.0000
  C   C893      1.0  0.37557  0.18864  0.60949  1.0000
  H   H718      1.0  0.12080  0.20722  0.78722  1.0000
  C   C894      1.0  0.02332  0.28071  0.92335  1.0000
  H   H719      1.0  0.32432  0.24357  0.51333  1.0000
  C   C895      1.0  0.10607  0.20511  0.87674  1.0000
  H   H720      1.0  0.31305  0.19012  0.54791  1.0000
  H   H721      1.0  0.36848  0.20626  0.54148  1.0000
  C   C896      1.0  0.47936  0.19145  0.62929  1.0000
  C   C897      1.0  0.31181  0.25041  0.59091  1.0000
  C   C898      1.0  0.30154  0.26685  0.58115  1.0000
  C   C899      1.0  0.28629  0.26542  0.57247  1.0000
  C   C900      1.0  0.28114  0.24757  0.57330  1.0000
  C   C901      1.0  0.29157  0.23113  0.58286  1.0000
  C   C902      1.0  0.30668  0.23258  0.59166  1.0000
  H   H722      1.0  0.30508  0.28070  0.58063  1.0000
  H   H723      1.0  0.27828  0.27828  0.56527  1.0000
  H   H724      1.0  0.28768  0.21735  0.58383  1.0000
  H   H725      1.0  0.31431  0.21982  0.59940  1.0000
  C   C903      1.0  0.42805  0.23652  0.60053  1.0000
  C   C904      1.0  0.41565  0.22328  0.60397  1.0000
  C   C905      1.0  0.42263  0.20505  0.59893  1.0000
  C   C906      1.0  0.44166  0.20034  0.58956  1.0000
  C   C907      1.0  0.45369  0.21397  0.58526  1.0000
  C   C908      1.0  0.44715  0.23167  0.59141  1.0000
  H   H726      1.0  0.40094  0.22681  0.61118  1.0000
  H   H727      1.0  0.00646  0.35399  0.80763  1.0000
  H   H728      1.0  0.46824  0.21065  0.57769  1.0000
  H   H729      1.0  0.45692  0.24165  0.58903  1.0000
  C   C909      1.0  0.38906  0.34407  0.55119  1.0000
  C   C910      1.0  0.40341  0.34217  0.56210  1.0000
  C   C911      1.0  0.41686  0.35479  0.55677  1.0000
  C   C912      1.0  0.08917  0.18578  0.90417  1.0000
  C   C913      1.0  0.19109  0.19985  0.69683  1.0000
  C   C914      1.0  0.38850  0.35832  0.53485  1.0000
  H   H730      1.0  0.40409  0.33109  0.57464  1.0000
  H   H731      1.0  0.42773  0.35347  0.56532  1.0000
  C   C915      1.0  0.04379  0.28166  0.87931  1.0000
  H   H732      1.0  0.36688  0.37300  0.84839  1.0000
  C   C916      1.0  0.36156  0.36690  0.66929  1.0000
  C   C917      1.0  0.35262  0.35390  0.68381  1.0000
  C   C918      1.0  0.34806  0.33754  0.67947  1.0000
  C   C919      1.0  0.35243  0.33392  0.66062  1.0000
  C   C920      1.0  0.36124  0.34699  0.64613  1.0000
  C   C921      1.0  0.36585  0.36332  0.65046  1.0000
  H   H733      1.0  0.34120  0.32755  0.69080  1.0000
  H   H734      1.0  0.36434  0.34458  0.63155  1.0000
  H   H735      1.0  0.23922  0.34514  0.93616  1.0000
  C   C922      1.0  0.13391  0.20057  0.60129  1.0000
  H   H736      1.0  0.11309  0.28042  0.57343  1.0000
  H   H737      1.0  0.05483  0.26272  0.94234  1.0000
  C   C923      1.0  0.12056  0.25185  0.56706  1.0000
  H   H738      1.0  0.01061  0.30090  0.85458  1.0000
  P   P33       1.0  0.10285  0.30010  0.92619  1.0000
  H   H739      1.0  0.09016  0.26938  0.91471  1.0000
  C   C924      1.0  0.18619  0.19667  0.51955  1.0000
  H   H740      1.0  0.38464  0.21221  0.50448  1.0000
  C   C925      1.0  0.22087  0.37382  0.74730  1.0000
  H   H741      1.0  0.12424  0.32361  0.49292  1.0000
  C   C926      1.0  0.07705  0.19417  0.87446  1.0000
  H   H742      1.0  0.07653  0.21845  0.81002  1.0000
  C   C927      1.0  0.48406  0.26512  0.61185  1.0000
  C   C928      1.0  0.10210  0.37594  0.90691  1.0000
  C   C929      1.0  0.13582  0.21790  0.60551  1.0000
  C   C930      1.0  0.34787  0.22625  0.52635  1.0000
  H   H743      1.0  0.05344  0.35474  0.88193  1.0000
  H   H744      1.0  0.44670  0.23899  0.63726  1.0000
  C   C931      1.0  0.17129  0.25085  0.49762  1.0000
  H   H745      1.0  0.37831  0.30124  0.69155  1.0000
  C   C932      1.0  0.13369  0.23935  0.55632  1.0000
  H   H746      1.0  0.29627  0.35842  0.79640  1.0000
  H   H747      1.0  0.06269  0.19340  0.94107  1.0000
  C   C933      1.0  0.00807  0.31633  0.93471  1.0000
  C   C934      1.0  0.01059  0.34024  0.80296  1.0000
  H   H748      1.0  0.21210  0.25653  0.51052  1.0000
  H   H749      1.0  0.46193  0.36130  0.68717  1.0000
  H   H750      1.0  0.16688  0.20245  0.73942  1.0000
  H   H751      1.0  0.14412  0.28733  0.91175  1.0000
  C   C935      1.0  0.43349  0.25553  0.67925  1.0000
  C   C936      1.0  0.17215  0.32425  0.48647  1.0000
  C   C937      1.0  0.00613  0.25302  0.89425  1.0000
  Fe  Fe69      1.0  0.26733  0.18935  0.53408  1.0000
  H   H752      1.0  0.41621  0.18737  0.56664  1.0000
  H   H753      1.0  0.06844  0.23713  0.89448  1.0000
  C   C938      1.0  0.28084  0.25011  0.50350  1.0000
  H   H754      1.0  0.35745  0.23645  0.52024  1.0000
  C   C939      1.0  0.44829  0.35996  0.68417  1.0000
  C   C940      1.0  0.04814  0.26401  0.89140  1.0000
  C   C941      1.0  0.11578  0.28068  0.91405  1.0000
  H   H755      1.0  0.45185  0.26653  0.69229  1.0000
  H   H756      1.0  0.18666  0.21522  0.69317  1.0000
  H   H757      1.0  0.48554  0.32524  0.59700  1.0000
  H   H758      1.0  0.10867  0.24674  0.57734  1.0000
  C   C942      1.0  0.39909  0.35986  0.60510  1.0000
  C   C943      1.0  0.45091  0.26026  0.68038  1.0000
  H   H759      1.0  0.06938  0.32447  0.87064  1.0000
  H   H760      1.0  0.05303  0.30027  0.85312  1.0000
  C   C944      1.0  0.42574  0.36886  0.62290  1.0000
  C   C945      1.0  0.14893  0.19060  0.58943  1.0000
  C   C946      1.0  0.31674  0.21723  0.53034  1.0000
  C   C947      1.0  0.17043  0.36971  0.80439  1.0000
  H   H761      1.0  0.99266  0.30649  0.88647  1.0000
  H   H762      1.0  0.19024  0.19028  0.76110  1.0000
  Fe  Fe70      1.0  0.23977  0.37152  0.88363  1.0000
  C   C948      1.0  0.46077  0.32838  0.61914  1.0000
  C   C949      1.0  0.45315  0.32330  0.63858  1.0000
  C   C950      1.0  0.46447  0.30992  0.65052  1.0000
  P   P34       1.0  0.42926  0.33417  0.64839  1.0000
  C   C951      1.0  0.41518  0.31520  0.65683  1.0000
  C   C952      1.0  0.43027  0.34742  0.66646  1.0000
  C   C953      1.0  0.19919  0.18811  0.50527  1.0000
  H   H763      1.0  0.13218  0.22451  0.55837  1.0000
  C   C954      1.0  0.07525  0.18514  0.89375  1.0000
  C   C955      1.0  0.46706  0.25700  0.66612  1.0000
  C   C956      1.0  0.44793  0.34926  0.67043  1.0000
  C   C957      1.0  0.40158  0.31462  0.67389  1.0000
  C   C958      1.0  0.38944  0.30102  0.67890  1.0000
  C   C959      1.0  0.39079  0.28789  0.66702  1.0000
  C   C960      1.0  0.40466  0.28799  0.65036  1.0000
  C   C961      1.0  0.41695  0.30142  0.64537  1.0000
  C   C962      1.0  0.48733  0.22332  0.62367  1.0000
  C   C963      1.0  0.13537  0.25074  0.89461  1.0000
  C   C964      1.0  0.13588  0.27801  0.90855  1.0000
  H   H764      1.0  0.20061  0.20151  0.72219  1.0000
  C   C965      1.0  0.30281  0.26885  0.48134  1.0000
  P   P35       1.0  0.03278  0.25860  0.91423  1.0000
  H   H765      1.0  0.45221  0.33803  0.60940  1.0000
  H   H766      1.0  0.45863  0.30555  0.66549  1.0000
  H   H767      1.0  0.29401  0.30930  0.80438  1.0000
  C   C966      1.0  0.18276  0.25724  0.50739  1.0000
  H   H768      1.0  0.19717  0.37398  0.78556  1.0000
  H   H769      1.0  0.32021  0.35092  0.91118  1.0000
  H   H770      1.0  0.15361  0.32951  0.81168  1.0000
  C   C967      1.0  0.40581  0.34692  0.62045  1.0000
  H   H771      1.0  0.46147  0.34284  0.66278  1.0000
  H   H772      1.0  0.38069  0.27804  0.67041  1.0000
  H   H773      1.0  0.40552  0.27797  0.64101  1.0000
  H   H774      1.0  0.42716  0.30161  0.63205  1.0000
  H   H775      1.0  0.40038  0.33364  0.62516  1.0000
  H   H776      1.0  0.10394  0.35727  0.86151  1.0000
  C   C968      1.0  0.20930  0.20552  0.76808  1.0000
  H   H777      1.0  0.18279  0.33285  0.47849  1.0000
  H   H778      1.0  0.16846  0.35893  0.79721  1.0000
  H   H779      1.0  0.11417  0.33152  0.77480  1.0000
  H   H780      1.0  0.09385  0.21124  0.85118  1.0000
  C   C969      1.0  0.02230  0.33850  0.78520  1.0000
  H   H781      1.0  0.15580  0.25519  0.50026  1.0000
  C   C970      1.0  0.17250  0.18232  0.49269  1.0000
  H   H782      1.0  0.12754  0.32378  0.84379  1.0000
  C   C971      1.0  0.15715  0.37482  0.82045  1.0000
  H   H783      1.0  0.43071  0.18887  0.50601  1.0000
  H   H784      1.0  0.38870  0.35639  0.59824  1.0000
  H   H785      1.0  0.11592  0.19689  0.57144  1.0000
  H   H786      1.0  0.17763  0.19103  0.57269  1.0000
  H   H787      1.0  0.31080  0.28054  0.47808  1.0000
  C   C972      1.0  0.99637  0.30256  0.93775  1.0000
  S   S145      1.0  0.48759  0.37551  0.53104  1.0000
  C   C973      1.0  0.32003  0.35993  0.85120  1.0000
  C   C974      1.0  0.30592  0.35484  0.84366  1.0000
  C   C975      1.0  0.30007  0.33713  0.85069  1.0000
  C   C976      1.0  0.30802  0.32443  0.86549  1.0000
  C   C977      1.0  0.32200  0.32940  0.87316  1.0000
  C   C978      1.0  0.32803  0.34706  0.86605  1.0000
  H   H788      1.0  0.44083  0.27302  0.50079  1.0000
  C   C979      1.0  0.23122  0.36849  0.95179  1.0000
  H   H789      1.0  0.47847  0.30578  0.56757  1.0000
  H   H790      1.0  0.28966  0.27417  0.50977  1.0000
  C   C980      1.0  0.35438  0.37220  0.78931  1.0000
  H   H791      1.0  0.43649  0.37236  0.62922  1.0000
  C   C981      1.0  0.06093  0.20854  0.94144  1.0000
  H   H792      1.0  0.09122  0.30068  0.88911  1.0000
  C   C982      1.0  0.32284  0.20019  0.54230  1.0000
  H   H793      1.0  0.02529  0.29084  0.78674  1.0000
  H   H794      1.0  0.28371  0.35584  0.96112  1.0000
  H   H795      1.0  0.05183  0.38047  0.97357  1.0000
  C   C983      1.0  0.14472  0.30184  0.50671  1.0000
  C   C984      1.0  0.12823  0.32598  0.91428  1.0000
  H   H796      1.0  0.29929  0.36465  0.83244  1.0000
  H   H797      1.0  0.28913  0.33340  0.84484  1.0000
  H   H798      1.0  0.30321  0.31084  0.87111  1.0000
  H   H799      1.0  0.32801  0.31967  0.88479  1.0000
  H   H800      1.0  0.33865  0.35065  0.87245  1.0000
  C   C985      1.0  0.43217  0.24761  0.66382  1.0000
  H   H801      1.0  0.42091  0.25825  0.69018  1.0000
  C   C986      1.0  0.07318  0.27386  0.85711  1.0000
  C   C987      1.0  0.15749  0.34490  0.85962  1.0000
  C   C988      1.0  0.12010  0.18690  0.76968  1.0000
  H   H802      1.0  0.37754  0.35986  0.52632  1.0000
  H   H803      1.0  0.07928  0.20437  0.96217  1.0000
  H   H804      1.0  0.11323  0.30729  0.96109  1.0000
  C   C989      1.0  0.07022  0.21474  0.95330  1.0000
  C   C990      1.0  0.30891  0.36309  0.91342  1.0000
  H   H805      1.0  0.06657  0.19346  0.86619  1.0000
  Fe  Fe71      1.0  0.03037  0.37044  0.85732  1.0000
  H   H806      1.0  0.34889  0.34854  0.96420  1.0000
  S   S146      1.0  0.27155  0.19082  0.56326  1.0000
  C   C991      1.0  0.19968  0.23250  0.48124  1.0000
  H   H807      1.0  0.43130  0.37755  0.70437  1.0000
  P   P36       1.0  0.24994  0.34534  0.76050  1.0000
  C   C992      1.0  0.23631  0.32728  0.76033  1.0000
  C   C993      1.0  0.26993  0.34765  0.74092  1.0000
  C   C994      1.0  0.28538  0.35554  0.74283  1.0000
  C   C995      1.0  0.30033  0.35863  0.72733  1.0000
  C   C996      1.0  0.29984  0.35410  0.70976  1.0000
  C   C997      1.0  0.28437  0.34653  0.70765  1.0000
  C   C998      1.0  0.26932  0.34353  0.72310  1.0000
  C   C999      1.0  0.24539  0.31062  0.75295  1.0000
  C   C1000     1.0  0.23510  0.29596  0.75430  1.0000
  C   C1001     1.0  0.21584  0.29764  0.76342  1.0000
  C   C1002     1.0  0.20685  0.31397  0.77118  1.0000
  C   C1003     1.0  0.21705  0.32869  0.76976  1.0000
  C   C1004     1.0  0.25751  0.33796  0.78339  1.0000
  C   C1005     1.0  0.27545  0.32621  0.78506  1.0000
  C   C1006     1.0  0.43053  0.27141  0.49271  1.0000
  C   C1007     1.0  0.09712  0.37223  0.92685  1.0000
  C   C1008     1.0  0.24929  0.33404  0.81799  1.0000
  C   C1009     1.0  0.24446  0.34184  0.80000  1.0000
  C   C1010     1.0  0.16741  0.21591  0.58560  1.0000
  H   H808      1.0  0.37273  0.37329  0.63913  1.0000
  C   C1011     1.0  0.17974  0.23839  0.48471  1.0000
  H   H809      1.0  0.10708  0.36422  0.89906  1.0000
  C   C1012     1.0  0.13916  0.31905  0.49462  1.0000
  H   H810      1.0  0.28580  0.35962  0.75618  1.0000
  H   H811      1.0  0.31218  0.36480  0.72890  1.0000
  H   H812      1.0  0.31132  0.35672  0.69770  1.0000
  H   H813      1.0  0.28399  0.34322  0.69392  1.0000
  H   H814      1.0  0.25714  0.33830  0.72098  1.0000
  H   H815      1.0  0.26051  0.30871  0.74656  1.0000
  H   H816      1.0  0.24216  0.28311  0.74862  1.0000
  H   H817      1.0  0.20794  0.28612  0.76488  1.0000
  H   H818      1.0  0.19209  0.31492  0.77876  1.0000
  Fe  Fe72      1.0  0.19761  0.37695  0.87884  1.0000
  H   H819      1.0  0.28554  0.32258  0.77249  1.0000
  S   S147      1.0  0.31723  0.37871  0.76339  1.0000
  H   H820      1.0  0.11493  0.19607  0.90414  1.0000
  C   C1013     1.0  0.41356  0.36786  0.68954  1.0000
  H   H821      1.0  0.23036  0.35048  0.79916  1.0000
  H   H822      1.0  0.25811  0.19690  0.75598  1.0000
  H   H823      1.0  0.14669  0.34731  0.90477  1.0000
  C   C1014     1.0  0.14920  0.24581  0.54326  1.0000
  C   C1015     1.0  0.40177  0.37085  0.52960  1.0000
  H   H824      1.0  0.00065  0.24837  0.81343  1.0000
  C   C1016     1.0  0.41591  0.36929  0.54055  1.0000
  C   C1017     1.0  0.02739  0.31233  0.92619  1.0000
  C   C1018     1.0  0.24392  0.35314  0.94471  1.0000
  C   C1019     1.0  0.18776  0.27558  0.53882  1.0000
  C   C1020     1.0  0.09952  0.27435  0.96058  1.0000
  C   C1021     1.0  0.21099  0.26054  0.55960  1.0000
  C   C1022     1.0  0.21282  0.27849  0.56220  1.0000
  C   C1023     1.0  0.20173  0.29501  0.55362  1.0000
  C   C1024     1.0  0.18909  0.29358  0.54210  1.0000
  H   H825      1.0  0.43330  0.28781  0.56651  1.0000
  H   H826      1.0  0.15951  0.23573  0.53557  1.0000
  H   H827      1.0  0.00178  0.24780  0.84816  1.0000
  H   H828      1.0  0.11484  0.26939  0.95649  1.0000
  H   H829      1.0  0.04305  0.21670  0.92008  1.0000
  H   H830      1.0  0.35325  0.36338  0.77948  1.0000
  C   C1025     1.0  0.09195  0.19036  0.81965  1.0000
  H   H831      1.0  0.03828  0.35950  0.95894  1.0000
  H   H832      1.0  0.22285  0.27949  0.57095  1.0000
  H   H833      1.0  0.20295  0.30890  0.55595  1.0000
  H   H834      1.0  0.18037  0.30653  0.53594  1.0000
  C   C1026     1.0  0.46583  0.24905  0.65056  1.0000
  C   C1027     1.0  0.11887  0.33796  0.78471  1.0000
  C   C1028     1.0  0.10842  0.18717  0.54869  1.0000
  H   H835      1.0  0.27208  0.24716  0.51757  1.0000
  C   C1029     1.0  0.07642  0.20320  0.81300  1.0000
  C   C1030     1.0  0.07728  0.33388  0.91852  1.0000
  C   C1031     1.0  0.35647  0.19917  0.58442  1.0000
  C   C1032     1.0  0.24331  0.19534  0.75712  1.0000
  C   C1033     1.0  0.34366  0.32258  0.95817  1.0000
  H   H836      1.0  0.14049  0.29198  0.55033  1.0000
  H   H837      1.0  0.36110  0.21763  0.60192  1.0000
  C   C1034     1.0  0.09245  0.20423  0.86597  1.0000
  C   C1035     1.0  0.07169  0.32702  0.88402  1.0000
  C   C1036     1.0  0.26281  0.34854  0.94812  1.0000
  C   C1037     1.0  0.05634  0.28658  0.86230  1.0000
  C   C1038     1.0  0.14561  0.26316  0.89874  1.0000
  H   H838      1.0  0.14174  0.29591  0.86521  1.0000
  C   C1039     1.0  0.11542  0.25297  0.90052  1.0000
  H   H839      1.0  0.48039  0.26082  0.66721  1.0000
  C   C1040     1.0  0.13960  0.33821  0.91695  1.0000
  H   H840      1.0  0.15013  0.34887  0.93736  1.0000
  C   C1041     1.0  0.16534  0.32900  0.87195  1.0000
  C   C1042     1.0  0.13790  0.32558  0.85168  1.0000
  C   C1043     1.0  0.47915  0.20819  0.63593  1.0000
  H   H841      1.0  0.47653  0.24544  0.54119  1.0000
  C   C1044     1.0  0.01295  0.24849  0.91160  1.0000
  C   C1045     1.0  0.34134  0.19630  0.54682  1.0000
  H   H842      1.0  0.09844  0.35768  0.93461  1.0000
  H   H843      1.0  0.09029  0.24616  0.86442  1.0000
  C   C1046     1.0  0.06983  0.29532  0.95410  1.0000
  H   H844      1.0  0.07900  0.33666  0.93202  1.0000
  C   C1047     1.0  0.16635  0.19739  0.52072  1.0000
  C   C1048     1.0  0.10232  0.37229  0.85502  1.0000
  H   H845      1.0  0.39962  0.35688  0.67212  1.0000
  C   C1049     1.0  0.13543  0.32907  0.79223  1.0000
  C   C1050     1.0  0.12307  0.27081  0.56485  1.0000
  H   H846      1.0  0.27498  0.22640  0.49384  1.0000
  C   C1051     1.0  0.45657  0.26751  0.55431  1.0000
  C   C1052     1.0  0.14582  0.30969  0.86401  1.0000
  H   H847      1.0  0.33150  0.36231  0.81054  1.0000
  C   C1053     1.0  0.17776  0.30704  0.49853  1.0000
  C   C1054     1.0  0.44820  0.24456  0.64944  1.0000
  H   H848      1.0  0.16671  0.29887  0.88265  1.0000
  C   C1055     1.0  0.34113  0.30368  0.96562  1.0000
  H   H849      1.0  0.39976  0.32484  0.68316  1.0000
  C   C1056     1.0  0.08659  0.31672  0.91223  1.0000
  C   C1057     1.0  0.26898  0.35922  0.95870  1.0000
  H   H850      1.0  0.12650  0.32581  0.89990  1.0000
  C   C1058     1.0  0.03507  0.29456  0.92066  1.0000
  H   H851      1.0  0.31501  0.19047  0.58794  1.0000
  C   C1059     1.0  0.06487  0.25107  0.88580  1.0000
  Fe  Fe73      1.0  0.00911  0.37373  0.89778  1.0000
  H   H852      1.0  0.27034  0.31573  0.83365  1.0000
  C   C1060     1.0  0.02097  0.26623  0.83054  1.0000
  C   C1061     1.0  0.01661  0.24948  0.84299  1.0000
  C   C1062     1.0  0.03125  0.23476  0.84872  1.0000
  C   C1063     1.0  0.05045  0.23669  0.84198  1.0000
  C   C1064     1.0  0.05499  0.25331  0.82957  1.0000
  C   C1065     1.0  0.04033  0.26817  0.82403  1.0000
  C   C1066     1.0  0.06554  0.34760  0.90750  1.0000
  S   S148      1.0  0.46280  0.36570  0.57503  1.0000
  C   C1067     1.0  0.05630  0.24767  0.94202  1.0000
  C   C1068     1.0  0.32919  0.23031  0.52244  1.0000
  C   C1069     1.0  0.23743  0.37951  0.96214  1.0000
  C   C1070     1.0  0.00992  0.30610  0.80952  1.0000
  C   C1071     1.0  0.00437  0.32412  0.81502  1.0000
  C   C1072     1.0  0.02749  0.32069  0.77937  1.0000
  C   C1073     1.0  0.02118  0.30457  0.79141  1.0000
  C   C1074     1.0  0.21121  0.23909  0.49064  1.0000
  C   C1075     1.0  0.11353  0.36255  0.80406  1.0000
  H   H853      1.0  0.05853  0.36093  0.91231  1.0000
  H   H854      1.0  0.17083  0.23285  0.47780  1.0000
  H   H855      1.0  0.34702  0.21061  0.57698  1.0000
  H   H856      1.0  0.23156  0.21844  0.77289  1.0000
  H   H857      1.0  0.02764  0.22187  0.85835  1.0000
  H   H858      1.0  0.06179  0.22531  0.84634  1.0000
  H   H859      1.0  0.06992  0.25480  0.82439  1.0000
  H   H860      1.0  0.04430  0.28108  0.81487  1.0000
  C   C1076     1.0  0.14101  0.33685  0.80570  1.0000
  H   H861      1.0  0.13342  0.32878  0.96549  1.0000
  C   C1077     1.0  0.19841  0.25901  0.54809  1.0000
  H   H862      1.0  0.13398  0.29313  0.51396  1.0000
  H   H863      1.0  0.21951  0.24783  0.56648  1.0000
  H   H864      1.0  0.00213  0.33025  0.93874  1.0000
  C   C1078     1.0  0.42564  0.19631  0.51803  1.0000
  C   C1079     1.0  0.42351  0.18587  0.53665  1.0000
  C   C1080     1.0  0.41745  0.19545  0.55218  1.0000
  C   C1081     1.0  0.41385  0.21547  0.54912  1.0000
  C   C1082     1.0  0.41563  0.22608  0.53044  1.0000
  C   C1083     1.0  0.42185  0.21633  0.51489  1.0000
  P   P37       1.0  0.41156  0.25194  0.52680  1.0000
  C   C1084     1.0  0.38701  0.26188  0.53611  1.0000
  C   C1085     1.0  0.42891  0.25822  0.53780  1.0000
  C   C1086     1.0  0.42372  0.27253  0.54912  1.0000
  C   C1087     1.0  0.44806  0.24856  0.53492  1.0000
  C   C1088     1.0  0.37386  0.25008  0.54664  1.0000
  C   C1089     1.0  0.35470  0.25805  0.55282  1.0000
  C   C1090     1.0  0.34854  0.27784  0.54876  1.0000
  C   C1091     1.0  0.36150  0.28969  0.53831  1.0000
  C   C1092     1.0  0.38061  0.28176  0.53187  1.0000
  C   C1093     1.0  0.41511  0.26179  0.50154  1.0000
  H   H865      1.0  0.45295  0.27286  0.61935  1.0000
  C   C1094     1.0  0.23507  0.36873  0.75883  1.0000
  H   H866      1.0  0.12092  0.19475  0.60769  1.0000
  C   C1095     1.0  0.40182  0.26037  0.49064  1.0000
  C   C1096     1.0  0.04953  0.22185  0.92970  1.0000
  C   C1097     1.0  0.12070  0.31555  0.94859  1.0000
  S   S149      1.0  0.29453  0.18787  0.51218  1.0000
  H   H867      1.0  0.40997  0.22269  0.56136  1.0000
  H   H868      1.0  0.42433  0.22400  0.50035  1.0000
  H   H869      1.0  0.19764  0.21503  0.77530  1.0000
  H   H870      1.0  0.45233  0.23741  0.52633  1.0000
  H   H871      1.0  0.37818  0.23478  0.55028  1.0000
  H   H872      1.0  0.34470  0.24894  0.56123  1.0000
  H   H873      1.0  0.33387  0.28403  0.55420  1.0000
  H   H874      1.0  0.35689  0.30512  0.53572  1.0000
  H   H875      1.0  0.39049  0.29123  0.52396  1.0000
  C   C1098     1.0  0.13006  0.35356  0.81187  1.0000
  H   H876      1.0  0.15616  0.20375  0.53183  1.0000
  H   H877      1.0  0.38970  0.25323  0.49732  1.0000
  C   C1099     1.0  0.15978  0.31134  0.87388  1.0000
  H   H878      1.0  0.32409  0.20789  0.47791  1.0000
  H   H879      1.0  0.05001  0.29187  0.91378  1.0000
  S   S150      1.0  0.01758  0.36678  0.92753  1.0000
  C   C1100     1.0  0.46183  0.25320  0.54314  1.0000
  H   H880      1.0  0.12444  0.22522  0.61513  1.0000
  C   C1101     1.0  0.13208  0.32782  0.95118  1.0000
  C   C1102     1.0  0.26705  0.32224  0.81960  1.0000
  H   H881      1.0  0.09479  0.36130  0.78519  1.0000
  H   H882      1.0  0.17637  0.33022  0.87943  1.0000
  C   C1103     1.0  0.15257  0.22557  0.59767  1.0000
  H   H883      1.0  0.15413  0.23890  0.60104  1.0000
  P   P38       1.0  0.17164  0.27340  0.52392  1.0000
  H   H884      1.0  0.14369  0.31581  0.78807  1.0000
  C   C1104     1.0  0.35401  0.20923  0.53842  1.0000
  H   H885      1.0  0.23908  0.33683  0.83076  1.0000
  C   C1105     1.0  0.10565  0.26779  0.91033  1.0000
  C   C1106     1.0  0.14419  0.34318  0.84884  1.0000
  H   H886      1.0  0.41860  0.24425  0.66269  1.0000
  H   H887      1.0  0.10759  0.24321  0.89732  1.0000
  C   C1107     1.0  0.31136  0.37640  0.92378  1.0000
  C   C1108     1.0  0.10798  0.35474  0.79055  1.0000
  C   C1109     1.0  0.15152  0.26495  0.54055  1.0000
  H   H888      1.0  0.34937  0.35636  0.69839  1.0000
  C   C1110     1.0  0.18876  0.18793  0.68510  1.0000
  C   C1111     1.0  0.07736  0.25608  0.86873  1.0000
  H   H889      1.0  0.03622  0.32329  0.92355  1.0000
  C   C1112     1.0  0.25633  0.37461  0.96574  1.0000
  C   C1113     1.0  0.06264  0.34410  0.89036  1.0000
  P   P39       1.0  0.13679  0.36273  0.83028  1.0000
  H   H890      1.0  0.46718  0.27073  0.56101  1.0000
  C   C1114     1.0  0.03731  0.37457  0.95287  1.0000
  C   C1115     1.0  0.14151  0.33914  0.93538  1.0000
  C   C1116     1.0  0.15396  0.19795  0.74802  1.0000
  C   C1117     1.0  0.41322  0.35728  0.67574  1.0000
  C   C1118     1.0  0.38699  0.18512  0.49605  1.0000
  C   C1119     1.0  0.10439  0.19569  0.89577  1.0000
  H   H891      1.0  0.14425  0.19096  0.50846  1.0000
  S   S151      1.0  0.33293  0.37298  0.93302  1.0000
  H   H892      1.0  0.19715  0.24492  0.54631  1.0000
  H   H893      1.0  0.27276  0.33695  0.94224  1.0000
  C   C1120     1.0  0.38934  0.20417  0.49292  1.0000
  C   C1121     1.0  0.16400  0.29598  0.50914  1.0000
  H   H894      1.0  0.01285  0.26223  0.88203  1.0000
  H   H895      1.0  0.08289  0.27763  0.84394  1.0000
  C   C1122     1.0  0.18681  0.37823  0.79769  1.0000
  C   C1123     1.0  0.28837  0.37291  0.79384  1.0000
  C   C1124     1.0  0.08389  0.31344  0.89474  1.0000
  C   C1125     1.0  0.08972  0.28929  0.94857  1.0000
  H   H896      1.0  0.40910  0.28011  0.55183  1.0000
  C   C1126     1.0  0.04680  0.24150  0.93017  1.0000
  C   C1127     1.0  0.43109  0.36913  0.69384  1.0000
  H   H897      1.0  0.18046  0.22174  0.57954  1.0000
  C   C1128     1.0  0.43752  0.27710  0.55737  1.0000
  H   H898      1.0  0.21446  0.18740  0.50427  1.0000
  H   H899      1.0  0.18250  0.19393  0.67236  1.0000
  H   H900      1.0  0.15393  0.19446  0.84265  1.0000
  C   C1129     1.0  0.00385  0.23637  0.92711  1.0000
  C   C1130     1.0  0.40577  0.37719  0.59855  1.0000
  C   C1131     1.0  0.20284  0.25159  0.50349  1.0000
  C   C1132     1.0  0.19892  0.19196  0.71340  1.0000
  H   H901      1.0  0.21003  0.34086  0.77653  1.0000
  C   C1133     1.0  0.11934  0.18587  0.56276  1.0000
  H   H902      1.0  0.07432  0.37932  0.87216  1.0000
  P   P40       1.0  0.48644  0.24534  0.63176  1.0000
  H   H903      1.0  0.20594  0.18172  0.59830  1.0000
  H   H904      1.0  0.09689  0.19923  0.54640  1.0000
  H   H905      1.0  0.41335  0.19454  0.60226  1.0000
  C   C1134     1.0  0.34204  0.37164  0.80702  1.0000
  H   H906      1.0  0.38302  0.37848  0.87280  1.0000
  C   C1135     1.0  0.47978  0.32109  0.61199  1.0000
  Fe  Fe74      1.0  0.00091  0.18498  0.87052  1.0000
  H   H907      1.0  0.33852  0.29496  0.95644  1.0000
  C   C1136     1.0  0.48815  0.18951  0.61058  1.0000
  H   H908      1.0  0.34292  0.32863  0.94329  1.0000
  H   H909      1.0  0.99445  0.27457  0.93425  1.0000
  H   H910      1.0  0.21823  0.36351  0.73985  1.0000
  H   H911      1.0  0.00868  0.23284  0.94073  1.0000
  C   C1137     1.0  0.15164  0.18619  0.83287  1.0000
  C   C1138     1.0  0.99047  0.24553  0.89247  1.0000
  H   H912      1.0  0.07535  0.23908  0.96258  1.0000
  H   H913      1.0  0.10682  0.18284  0.77806  1.0000
  C   C1139     1.0  0.20512  0.19145  0.76000  1.0000
  H   H914      1.0  0.25050  0.37923  0.77557  1.0000
  H   H915      1.0  0.40019  0.37536  0.69662  1.0000
  H   H916      1.0  0.17542  0.19401  0.81102  1.0000
  C   C1140     1.0  0.34697  0.33387  0.96997  1.0000
  H   H917      1.0  0.21669  0.37205  0.94883  1.0000
  C   C1141     1.0  0.47996  0.29434  0.57982  1.0000
  H   H918      1.0  0.04470  0.29161  0.97576  1.0000
  H   H919      1.0  0.10441  0.37514  0.80881  1.0000
  C   C1142     1.0  0.35866  0.38122  0.85916  1.0000
  C   C1143     1.0  0.16380  0.18585  0.81515  1.0000
  C   C1144     1.0  0.27074  0.37802  0.80570  1.0000
  C   C1145     1.0  0.06002  0.28675  0.97152  1.0000
  H   H920      1.0  0.17569  0.18615  0.62142  1.0000
  S   S152      1.0  0.47481  0.18270  0.48998  1.0000
  C   C1146     1.0  0.27720  0.38108  0.90883  1.0000
  Fe  Fe75      1.0  0.45364  0.40125  0.07985  1.0000
  H   H921      1.0  0.04003  0.38612  0.33833  1.0000
  H   H922      1.0  0.00429  0.53771  0.25360  1.0000
  H   H923      1.0  0.44038  0.51743  0.98820  1.0000
  P   P41       1.0  0.46217  0.55840  0.39593  1.0000
  Fe  Fe76      1.0  0.46072  0.42303  0.03906  1.0000
  S   S153      1.0  0.44385  0.43709  0.01482  1.0000
  S   S154      1.0  0.44902  0.43261  0.06740  1.0000
  C   C1147     1.0  0.00202  0.56947  0.05041  1.0000
  S   S155      1.0  0.11300  0.42220  0.01294  1.0000
  C   C1148     1.0  0.16679  0.38590  0.98986  1.0000
  Fe  Fe77      1.0  0.08383  0.44081  0.01274  1.0000
  S   S156      1.0  0.07015  0.46223  0.03302  1.0000
  H   H924      1.0  0.26838  0.43516  0.97922  1.0000
  H   H925      1.0  0.01427  0.50612  0.32379  1.0000
  S   S157      1.0  0.31056  0.42245  0.00758  1.0000
  H   H926      1.0  0.46971  0.51625  0.34838  1.0000
  H   H927      1.0  0.10571  0.40805  0.08521  1.0000
  H   H928      1.0  0.07496  0.57216  0.31160  1.0000
  S   S158      1.0  0.00471  0.41730  0.33971  1.0000
  Fe  Fe78      1.0  0.06243  0.49461  0.35790  1.0000
  S   S159      1.0  0.08616  0.49372  0.37409  1.0000
  S   S160      1.0  0.04003  0.47516  0.37191  1.0000
  Fe  Fe79      1.0  0.07850  0.52428  0.32448  1.0000
  S   S161      1.0  0.10322  0.52485  0.33799  1.0000
  S   S162      1.0  0.07763  0.53926  0.29379  1.0000
  Fe  Fe80      1.0  0.10548  0.49297  0.34545  1.0000
  S   S163      1.0  0.13508  0.47472  0.34179  1.0000
  Fe  Fe81      1.0  0.08195  0.52588  0.36543  1.0000
  S   S164      1.0  0.08217  0.55006  0.38115  1.0000
  S   S165      1.0  0.08226  0.49214  0.32984  1.0000
  S   S166      1.0  0.05650  0.52707  0.35132  1.0000
  Fe  Fe82      1.0  0.14403  0.39835  0.25984  1.0000
  S   S167      1.0  0.11716  0.41444  0.24575  1.0000
  S   S168      1.0  0.14957  0.39954  0.30607  1.0000
  C   C1149     1.0  0.04594  0.50784  0.20548  1.0000
  Fe  Fe83      1.0  0.13729  0.42282  0.21883  1.0000
  S   S169      1.0  0.13853  0.45288  0.20362  1.0000
  S   S170      1.0  0.16369  0.40850  0.23084  1.0000
  H   H929      1.0  0.37856  0.40210  0.09306  1.0000
  H   H930      1.0  0.04111  0.51392  0.19198  1.0000
  C   C1150     1.0  0.12617  0.46897  0.24995  1.0000
  C   C1151     1.0  0.46626  0.53460  0.36902  1.0000
  Fe  Fe84      1.0  0.06229  0.55597  0.11673  1.0000
  S   S171      1.0  0.09004  0.56117  0.09746  1.0000
  C   C1152     1.0  0.04650  0.51156  0.01502  1.0000
  Fe  Fe85      1.0  0.08066  0.51726  0.13607  1.0000
  S   S172      1.0  0.11024  0.51968  0.11887  1.0000
  S   S173      1.0  0.07180  0.49220  0.15777  1.0000
  Fe  Fe86      1.0  0.10321  0.55028  0.12408  1.0000
  S   S174      1.0  0.11863  0.57172  0.13081  1.0000
  Fe  Fe87      1.0  0.09422  0.53023  0.09411  1.0000
  S   S175      1.0  0.10544  0.51939  0.06583  1.0000
  S   S176      1.0  0.07511  0.54648  0.14333  1.0000
  S   S177      1.0  0.06524  0.52623  0.11120  1.0000
  H   H931      1.0  0.03286  0.50100  0.99692  1.0000
  S   S178      1.0  0.12132  0.56179  0.44797  1.0000
  C   C1153     1.0  0.01172  0.53680  0.02218  1.0000
  C   C1154     1.0  0.09429  0.40157  0.16627  1.0000
  C   C1155     1.0  0.47701  0.47992  0.46411  1.0000
  C   C1156     1.0  0.09176  0.39161  0.18513  1.0000
  C   C1157     1.0  0.12889  0.57052  0.15120  1.0000
  C   C1158     1.0  0.13883  0.55337  0.16010  1.0000
  C   C1159     1.0  0.14860  0.55336  0.17491  1.0000
  C   C1160     1.0  0.04520  0.56323  0.04228  1.0000
  H   H932      1.0  0.09028  0.39783  0.06302  1.0000
  C   C1161     1.0  0.06597  0.45254  0.26246  1.0000
  C   C1162     1.0  0.35635  0.48000  0.98863  1.0000
  C   C1163     1.0  0.11966  0.46352  0.19129  1.0000
  C   C1164     1.0  0.12048  0.48138  0.17947  1.0000
  C   C1165     1.0  0.10588  0.49003  0.16895  1.0000
  C   C1166     1.0  0.09031  0.48096  0.17045  1.0000
  C   C1167     1.0  0.08931  0.46317  0.18248  1.0000
  C   C1168     1.0  0.10409  0.45435  0.19285  1.0000
  H   H933      1.0  0.13257  0.48842  0.17824  1.0000
  H   H934      1.0  0.10655  0.50388  0.15991  1.0000
  H   H935      1.0  0.07716  0.45623  0.18371  1.0000
  H   H936      1.0  0.10345  0.44055  0.20205  1.0000
  C   C1169     1.0  0.09406  0.55273  0.39928  1.0000
  C   C1170     1.0  0.10263  0.53709  0.41147  1.0000
  C   C1171     1.0  0.11096  0.54010  0.42622  1.0000
  C   C1172     1.0  0.11108  0.55874  0.42883  1.0000
  H   H937      1.0  0.32511  0.57923  0.42568  1.0000
  H   H938      1.0  0.09640  0.58014  0.19807  1.0000
  H   H939      1.0  0.10243  0.52269  0.40984  1.0000
  H   H940      1.0  0.11722  0.52790  0.43576  1.0000
  C   C1173     1.0  0.42617  0.58047  0.39080  1.0000
  C   C1174     1.0  0.20027  0.38941  0.98509  1.0000
  C   C1175     1.0  0.08711  0.56072  0.28582  1.0000
  C   C1176     1.0  0.47657  0.52506  0.35414  1.0000
  S   S179      1.0  0.16248  0.56998  0.19854  1.0000
  S   S180      1.0  0.03438  0.57700  0.11980  1.0000
  H   H941      1.0  0.06402  0.42661  0.14841  1.0000
  C   C1177     1.0  0.09767  0.56436  0.26719  1.0000
  Fe  Fe88      1.0  0.33004  0.41748  0.97982  1.0000
  C   C1178     1.0  0.24689  0.43120  0.00464  1.0000
  H   H942      1.0  0.10077  0.55365  0.25819  1.0000
  C   C1179     1.0  0.13871  0.45427  0.33129  1.0000
  C   C1180     1.0  0.12423  0.45003  0.32374  1.0000
  C   C1181     1.0  0.12746  0.43343  0.31573  1.0000
  C   C1182     1.0  0.14531  0.42111  0.31500  1.0000
  C   C1183     1.0  0.15974  0.42530  0.32268  1.0000
  C   C1184     1.0  0.15650  0.44190  0.33065  1.0000
  H   H943      1.0  0.11049  0.45943  0.32426  1.0000
  H   H944      1.0  0.11595  0.42992  0.31064  1.0000
  H   H945      1.0  0.17345  0.41572  0.32246  1.0000
  H   H946      1.0  0.16774  0.44507  0.33653  1.0000
  C   C1185     1.0  0.01550  0.43207  0.34945  1.0000
  C   C1186     1.0  0.02734  0.44416  0.33682  1.0000
  C   C1187     1.0  0.03522  0.45714  0.34348  1.0000
  C   C1188     1.0  0.03149  0.45813  0.36293  1.0000
  C   C1189     1.0  0.02012  0.44561  0.37567  1.0000
  C   C1190     1.0  0.01227  0.43257  0.36903  1.0000
  H   H947      1.0  0.03029  0.44361  0.32173  1.0000
  H   H948      1.0  0.04411  0.46647  0.33355  1.0000
  H   H949      1.0  0.01723  0.44615  0.39078  1.0000
  H   H950      1.0  0.01547  0.54443  0.11898  1.0000
  C   C1191     1.0  0.09539  0.50350  0.05694  1.0000
  C   C1192     1.0  0.10527  0.49651  0.04023  1.0000
  C   C1193     1.0  0.09791  0.48374  0.03279  1.0000
  C   C1194     1.0  0.08047  0.47787  0.04194  1.0000
  C   C1195     1.0  0.07050  0.48502  0.05854  1.0000
  C   C1196     1.0  0.07791  0.49769  0.06604  1.0000
  H   H951      1.0  0.11876  0.50094  0.03303  1.0000
  H   H952      1.0  0.10571  0.47844  0.01997  1.0000
  H   H953      1.0  0.05699  0.48060  0.06570  1.0000
  H   H954      1.0  0.07008  0.50299  0.07883  1.0000
  H   H955      1.0  0.09195  0.39859  0.19683  1.0000
  C   C1197     1.0  0.29413  0.40662  0.01443  1.0000
  C   C1198     1.0  0.34120  0.48063  0.97930  1.0000
  C   C1199     1.0  0.01817  0.53700  0.10699  1.0000
  C   C1200     1.0  0.15469  0.41697  0.27021  1.0000
  C   C1201     1.0  0.99428  0.49799  0.39779  1.0000
  C   C1202     1.0  0.28107  0.40673  0.03175  1.0000
  H   H956      1.0  0.24922  0.40392  0.09964  1.0000
  H   H957      1.0  0.04164  0.56819  0.98396  1.0000
  H   H958      1.0  0.28158  0.41626  0.04109  1.0000
  H   H959      1.0  0.11421  0.52728  0.17914  1.0000
  H   H960      1.0  0.17849  0.39744  0.10054  1.0000
  C   C1203     1.0  0.06984  0.38916  0.11751  1.0000
  C   C1204     1.0  0.43118  0.42404  0.00513  1.0000
  C   C1205     1.0  0.43802  0.40480  0.00355  1.0000
  H   H961      1.0  0.19591  0.56758  0.27132  1.0000
  C   C1206     1.0  0.47512  0.54596  0.37661  1.0000
  H   H962      1.0  0.21149  0.57767  0.39924  1.0000
  C   C1207     1.0  0.41450  0.43351  0.99776  1.0000
  H   H963      1.0  0.00447  0.50768  0.39511  1.0000
  C   C1208     1.0  0.08650  0.39736  0.11071  1.0000
  Fe  Fe89      1.0  0.07333  0.41907  0.98452  1.0000
  S   S181      1.0  0.48641  0.45432  0.08487  1.0000
  H   H964      1.0  0.40886  0.44823  0.99919  1.0000
  Fe  Fe90      1.0  0.16024  0.38350  0.21952  1.0000
  C   C1209     1.0  0.43218  0.49235  0.98329  1.0000
  H   H965      1.0  0.13756  0.46368  0.23899  1.0000
  C   C1210     1.0  0.15406  0.41136  0.11818  1.0000
  H   H966      1.0  0.03126  0.46574  0.28559  1.0000
  H   H967      1.0  0.15244  0.38529  0.16830  1.0000
  C   C1211     1.0  0.04719  0.57729  0.02572  1.0000
  H   H968      1.0  0.06353  0.41064  0.29406  1.0000
  H   H969      1.0  0.30374  0.39400  0.98905  1.0000
  C   C1212     1.0  0.23747  0.39635  0.18386  1.0000
  H   H970      1.0  0.09656  0.41626  0.16358  1.0000
  C   C1213     1.0  0.02328  0.53804  0.07269  1.0000
  H   H971      1.0  0.00993  0.40961  0.43337  1.0000
  H   H972      1.0  0.32720  0.47833  0.98751  1.0000
  H   H973      1.0  0.46359  0.48507  0.45881  1.0000
  C   C1214     1.0  0.05900  0.49063  0.23994  1.0000
  Fe  Fe91      1.0  0.47970  0.43221  0.07000  1.0000
  C   C1215     1.0  0.18220  0.39471  0.97946  1.0000
  H   H974      1.0  0.14574  0.47352  0.26638  1.0000
  C   C1216     1.0  0.08868  0.46325  0.10877  1.0000
  H   H975      1.0  0.32551  0.57611  0.46027  1.0000
  C   C1217     1.0  0.42848  0.39533  0.99440  1.0000
  C   C1218     1.0  0.16788  0.39756  0.27105  1.0000
  C   C1219     1.0  0.25540  0.42936  0.98583  1.0000
  C   C1220     1.0  0.23120  0.41125  0.98454  1.0000
  S   S182      1.0  0.08673  0.44540  0.98070  1.0000
  H   H976      1.0  0.08728  0.49348  0.22324  1.0000
  H   H977      1.0  0.15289  0.39009  0.98537  1.0000
  H   H978      1.0  0.12869  0.57946  0.29991  1.0000
  C   C1221     1.0  0.02932  0.56622  0.97884  1.0000
  C   C1222     1.0  0.03450  0.55397  0.27371  1.0000
  C   C1223     1.0  0.17194  0.55197  0.38089  1.0000
  C   C1224     1.0  0.18407  0.56468  0.37036  1.0000
  H   H979      1.0  0.00363  0.42308  0.37906  1.0000
  H   H980      1.0  0.99834  0.54672  0.02429  1.0000
  C   C1225     1.0  0.02091  0.51701  0.11010  1.0000
  H   H981      1.0  0.05052  0.46119  0.14538  1.0000
  C   C1226     1.0  0.07120  0.43670  0.13747  1.0000
  C   C1227     1.0  0.04433  0.52424  0.02759  1.0000
  C   C1228     1.0  0.15925  0.55639  0.39742  1.0000
  H   H982      1.0  0.08894  0.55982  0.05446  1.0000
  H   H983      1.0  0.27953  0.39915  0.07603  1.0000
  C   C1229     1.0  0.03122  0.51120  0.00631  1.0000
  H   H984      1.0  0.18890  0.41586  0.14806  1.0000
  H   H985      1.0  0.47222  0.56997  0.45889  1.0000
  C   C1230     1.0  0.07201  0.46945  0.12123  1.0000
  C   C1231     1.0  0.06796  0.58044  0.47146  1.0000
  H   H986      1.0  0.11623  0.38907  0.34842  1.0000
  H   H987      1.0  0.14960  0.54673  0.40543  1.0000
  H   H988      1.0  0.17218  0.53878  0.37613  1.0000
  H   H989      1.0  0.44036  0.54877  0.43514  1.0000
  C   C1232     1.0  0.37459  0.48230  0.97804  1.0000
  H   H990      1.0  0.20997  0.40725  0.01050  1.0000
  C   C1233     1.0  0.41184  0.40484  0.98696  1.0000
  S   S183      1.0  0.13511  0.39850  0.20556  1.0000
  H   H991      1.0  0.07564  0.50900  0.19350  1.0000
  H   H992      1.0  0.39698  0.57317  0.43578  1.0000
  C   C1234     1.0  0.10711  0.52950  0.19339  1.0000
  C   C1235     1.0  0.07719  0.56486  0.04655  1.0000
  H   H993      1.0  0.43833  0.48278  0.99500  1.0000
  C   C1236     1.0  0.06506  0.43968  0.27995  1.0000
  H   H994      1.0  0.09530  0.47358  0.09759  1.0000
  C   C1237     1.0  0.06470  0.42041  0.28052  1.0000
  C   C1238     1.0  0.06548  0.50491  0.20629  1.0000
  C   C1239     1.0  0.11448  0.51832  0.20926  1.0000
  C   C1240     1.0  0.22184  0.53027  0.30845  1.0000
  C   C1241     1.0  0.23243  0.53837  0.29128  1.0000
  C   C1242     1.0  0.22296  0.55171  0.27791  1.0000
  C   C1243     1.0  0.20292  0.55685  0.28166  1.0000
  C   C1244     1.0  0.19208  0.54860  0.29872  1.0000
  C   C1245     1.0  0.20176  0.53534  0.31219  1.0000
  P   P42       1.0  0.16603  0.55497  0.30297  1.0000
  H   H995      1.0  0.24697  0.38544  0.13235  1.0000
  C   C1246     1.0  0.15625  0.54515  0.28697  1.0000
  C   C1247     1.0  0.16576  0.54432  0.26805  1.0000
  C   C1248     1.0  0.15806  0.53664  0.25594  1.0000
  C   C1249     1.0  0.14109  0.52922  0.26274  1.0000
  C   C1250     1.0  0.13157  0.52988  0.28150  1.0000
  C   C1251     1.0  0.13881  0.53827  0.29336  1.0000
  H   H996      1.0  0.05992  0.56490  0.25875  1.0000
  C   C1252     1.0  0.37023  0.39077  0.09865  1.0000
  C   C1253     1.0  0.02484  0.50748  0.09457  1.0000
  C   C1254     1.0  0.01628  0.54397  0.25458  1.0000
  H   H997      1.0  0.43398  0.53252  0.40851  1.0000
  C   C1255     1.0  0.15593  0.54547  0.32742  1.0000
  C   C1256     1.0  0.14642  0.55775  0.34041  1.0000
  C   C1257     1.0  0.13711  0.55034  0.35861  1.0000
  C   C1258     1.0  0.13770  0.53062  0.36425  1.0000
  C   C1259     1.0  0.14761  0.51826  0.35169  1.0000
  C   C1260     1.0  0.15648  0.52562  0.33328  1.0000
  H   H998      1.0  0.22918  0.52001  0.31889  1.0000
  H   H999      1.0  0.24797  0.53445  0.28838  1.0000
  H   H1000     1.0  0.23105  0.55840  0.26471  1.0000
  S   S184      1.0  0.48305  0.40157  0.08508  1.0000
  H   H1001     1.0  0.19396  0.52889  0.32560  1.0000
  H   H1002     1.0  0.17885  0.54992  0.26226  1.0000
  H   H1003     1.0  0.16515  0.53671  0.24118  1.0000
  H   H1004     1.0  0.13512  0.52333  0.25335  1.0000
  H   H1005     1.0  0.11823  0.52440  0.28674  1.0000
  H   H1006     1.0  0.13066  0.53949  0.30746  1.0000
  C   C1261     1.0  0.40651  0.54961  0.40432  1.0000
  S   S185      1.0  0.20958  0.39742  0.11645  1.0000
  C   C1262     1.0  0.48078  0.52841  0.45354  1.0000
  H   H1007     1.0  0.05625  0.52393  0.03456  1.0000
  C   C1263     1.0  0.26164  0.39384  0.10377  1.0000
  C   C1264     1.0  0.10288  0.57435  0.41638  1.0000
  H   H1008     1.0  0.12911  0.55991  0.36829  1.0000
  H   H1009     1.0  0.13010  0.52498  0.37819  1.0000
  H   H1010     1.0  0.14774  0.50299  0.35599  1.0000
  H   H1011     1.0  0.16330  0.51586  0.32346  1.0000
  C   C1265     1.0  0.09084  0.54377  0.19583  1.0000
  H   H1012     1.0  0.15661  0.54008  0.18140  1.0000
  H   H1013     1.0  0.13967  0.54022  0.15505  1.0000
  H   H1014     1.0  0.38613  0.48133  0.98565  1.0000
  H   H1015     1.0  0.04274  0.39861  0.36843  1.0000
  P   P43       1.0  0.09785  0.40520  0.12674  1.0000
  C   C1266     1.0  0.04599  0.56009  0.18759  1.0000
  S   S186      1.0  0.46390  0.39167  0.05153  1.0000
  H   H1016     1.0  0.17865  0.40302  0.18251  1.0000
  H   H1017     1.0  0.22404  0.42430  0.02807  1.0000
  C   C1267     1.0  0.99628  0.41074  0.42897  1.0000
  C   C1268     1.0  0.08879  0.53509  0.23019  1.0000
  H   H1018     1.0  0.08042  0.39696  0.37982  1.0000
  C   C1269     1.0  0.42639  0.54675  0.40372  1.0000
  C   C1270     1.0  0.27871  0.39123  0.09054  1.0000
  H   H1019     1.0  0.26537  0.57206  0.33342  1.0000
  C   C1271     1.0  0.13426  0.41304  0.12488  1.0000
  C   C1272     1.0  0.01883  0.54626  0.27239  1.0000
  C   C1273     1.0  0.09671  0.44378  0.11073  1.0000
  C   C1274     1.0  0.38268  0.40610  0.05318  1.0000
  C   C1275     1.0  0.37050  0.41893  0.04166  1.0000
  C   C1276     1.0  0.37357  0.43775  0.03478  1.0000
  C   C1277     1.0  0.38875  0.44392  0.03936  1.0000
  C   C1278     1.0  0.40095  0.43123  0.05073  1.0000
  C   C1279     1.0  0.39799  0.41239  0.05762  1.0000
  C   C1280     1.0  0.10539  0.52123  0.22765  1.0000
  C   C1281     1.0  0.13318  0.38824  0.10776  1.0000
  H   H1020     1.0  0.48529  0.52181  0.46709  1.0000
  C   C1282     1.0  0.16325  0.39861  0.10583  1.0000
  H   H1021     1.0  0.06585  0.39878  0.26398  1.0000
  Fe  Fe92      1.0  0.11464  0.42462  0.98122  1.0000
  H   H1022     1.0  0.08605  0.55287  0.18326  1.0000
  C   C1283     1.0  0.07204  0.49619  0.22335  1.0000
  H   H1023     1.0  0.28984  0.39204  0.15568  1.0000
  C   C1284     1.0  0.26039  0.38327  0.12235  1.0000
  H   H1024     1.0  0.39199  0.43151  0.98333  1.0000
  H   H1025     1.0  0.08211  0.53712  0.24460  1.0000
  H   H1026     1.0  0.08084  0.43038  0.38183  1.0000
  H   H1027     1.0  0.03680  0.55545  0.28753  1.0000
  H   H1028     1.0  0.07871  0.41424  0.31955  1.0000
  H   H1029     1.0  0.35876  0.41448  0.03772  1.0000
  H   H1030     1.0  0.36433  0.44739  0.02563  1.0000
  H   H1031     1.0  0.41299  0.43589  0.05387  1.0000
  H   H1032     1.0  0.40774  0.40271  0.06630  1.0000
  H   H1033     1.0  0.18326  0.39702  0.26710  1.0000
  H   H1034     1.0  0.16240  0.41974  0.12270  1.0000
  C   C1285     1.0  0.09693  0.48164  0.27873  1.0000
  C   C1286     1.0  0.09198  0.47698  0.26284  1.0000
  C   C1287     1.0  0.04989  0.48673  0.28104  1.0000
  H   H1035     1.0  0.36403  0.39727  0.12706  1.0000
  H   H1036     1.0  0.14567  0.57309  0.33652  1.0000
  P   P44       1.0  0.06705  0.47726  0.26170  1.0000
  H   H1037     1.0  0.00862  0.47841  0.31229  1.0000
  H   H1038     1.0  0.05976  0.54543  0.06488  1.0000
  C   C1288     1.0  0.06050  0.55679  0.05247  1.0000
  C   C1289     1.0  0.36200  0.38802  0.11809  1.0000
  H   H1039     1.0  0.45145  0.53304  0.37443  1.0000
  H   H1040     1.0  0.19360  0.56102  0.35753  1.0000
  C   C1290     1.0  0.06330  0.45622  0.13560  1.0000
  H   H1041     1.0  0.12727  0.42305  0.13438  1.0000
  C   C1291     1.0  0.01949  0.54748  0.08836  1.0000
  C   C1292     1.0  0.02383  0.50107  0.31151  1.0000
  C   C1293     1.0  0.10689  0.46994  0.24879  1.0000
  C   C1294     1.0  0.07905  0.41758  0.33321  1.0000
  P   P45       1.0  0.02413  0.55205  0.04886  1.0000
  H   H1042     1.0  0.25333  0.43838  0.01255  1.0000
  S   S187      1.0  0.10160  0.39864  0.98361  1.0000
  C   C1295     1.0  0.09411  0.39251  0.15111  1.0000
  C   C1296     1.0  0.08018  0.44093  0.35202  1.0000
  H   H1043     1.0  0.12396  0.43200  0.27685  1.0000
  C   C1297     1.0  0.23046  0.42326  0.01338  1.0000
  H   H1044     1.0  0.02876  0.51019  0.06421  1.0000
  H   H1045     1.0  0.25643  0.39561  0.04960  1.0000
  C   C1298     1.0  0.48878  0.53911  0.41932  1.0000
  C   C1299     1.0  0.02916  0.54980  0.23804  1.0000
  C   C1300     1.0  0.04758  0.55947  0.25727  1.0000
  C   C1301     1.0  0.99107  0.49084  0.38265  1.0000
  H   H1046     1.0  0.35400  0.47745  0.00410  1.0000
  H   H1047     1.0  0.06590  0.48455  0.11990  1.0000
  C   C1302     1.0  0.46918  0.54544  0.41832  1.0000
  C   C1303     1.0  0.45547  0.54338  0.43525  1.0000
  C   C1304     1.0  0.46125  0.53476  0.45274  1.0000
  H   H1048     1.0  0.99889  0.49493  0.36834  1.0000
  C   C1305     1.0  0.06587  0.41374  0.26362  1.0000
  H   H1049     1.0  0.99157  0.44137  0.42282  1.0000
  H   H1050     1.0  0.39141  0.45837  0.03375  1.0000
  C   C1306     1.0  0.07950  0.43641  0.33448  1.0000
  H   H1051     1.0  0.10948  0.43912  0.10085  1.0000
  C   C1307     1.0  0.06762  0.44562  0.24546  1.0000
  H   H1052     1.0  0.12726  0.50743  0.20729  1.0000
  C   C1308     1.0  0.14858  0.57048  0.18099  1.0000
  H   H1053     1.0  0.45092  0.39735  0.00898  1.0000
  H   H1054     1.0  0.00215  0.52368  0.00282  1.0000
  C   C1309     1.0  0.19296  0.40080  0.15353  1.0000
  H   H1055     1.0  0.11113  0.51267  0.23998  1.0000
  H   H1056     1.0  0.38103  0.57017  0.39888  1.0000
  C   C1310     1.0  0.08322  0.57474  0.29728  1.0000
  C   C1311     1.0  0.26696  0.39503  0.03659  1.0000
  H   H1057     1.0  0.02692  0.54787  0.22442  1.0000
  C   C1312     1.0  0.04801  0.57331  0.19819  1.0000
  H   H1058     1.0  0.02031  0.50891  0.12454  1.0000
  C   C1313     1.0  0.02678  0.53672  0.03158  1.0000
  C   C1314     1.0  0.08010  0.40788  0.36707  1.0000
  C   C1315     1.0  0.03939  0.51010  0.30222  1.0000
  C   C1316     1.0  0.13081  0.47446  0.26538  1.0000
  C   C1317     1.0  0.08123  0.54637  0.21431  1.0000
  S   S188      1.0  0.06810  0.41613  0.01667  1.0000
  C   C1318     1.0  0.06746  0.42629  0.24610  1.0000
  C   C1319     1.0  0.03279  0.50260  0.22194  1.0000
  Fe  Fe93      1.0  0.11781  0.38829  0.23407  1.0000
  C   C1320     1.0  0.12359  0.40192  0.11918  1.0000
  C   C1321     1.0  0.17153  0.45475  0.13406  1.0000
  C   C1322     1.0  0.15229  0.45664  0.14316  1.0000
  C   C1323     1.0  0.13769  0.46060  0.13232  1.0000
  C   C1324     1.0  0.14236  0.46221  0.11242  1.0000
  C   C1325     1.0  0.16171  0.45968  0.10317  1.0000
  C   C1326     1.0  0.17626  0.45641  0.11416  1.0000
  P   P46       1.0  0.16753  0.46290  0.07731  1.0000
  C   C1327     1.0  0.15316  0.44986  0.06896  1.0000
  C   C1328     1.0  0.16149  0.48811  0.06787  1.0000
  C   C1329     1.0  0.15813  0.49412  0.04902  1.0000
  C   C1330     1.0  0.15355  0.51364  0.04161  1.0000
  C   C1331     1.0  0.15221  0.52727  0.05298  1.0000
  C   C1332     1.0  0.15560  0.52140  0.07173  1.0000
  C   C1333     1.0  0.16033  0.50190  0.07915  1.0000
  C   C1334     1.0  0.16109  0.43211  0.06319  1.0000
  C   C1335     1.0  0.14978  0.42227  0.05681  1.0000
  C   C1336     1.0  0.13045  0.42992  0.05626  1.0000
  C   C1337     1.0  0.12244  0.44751  0.06191  1.0000
  C   C1338     1.0  0.13376  0.45760  0.06798  1.0000
  C   C1339     1.0  0.19289  0.45441  0.06933  1.0000
  C   C1340     1.0  0.20162  0.43611  0.07738  1.0000
  C   C1341     1.0  0.22102  0.42917  0.07095  1.0000
  C   C1342     1.0  0.23204  0.44060  0.05673  1.0000
  C   C1343     1.0  0.22354  0.45890  0.04869  1.0000
  C   C1344     1.0  0.20404  0.46578  0.05490  1.0000
  H   H1059     1.0  0.18280  0.45210  0.14248  1.0000
  H   H1060     1.0  0.14873  0.45530  0.15859  1.0000
  H   H1061     1.0  0.12273  0.46267  0.13937  1.0000
  H   H1062     1.0  0.13083  0.46574  0.10431  1.0000
  H   H1063     1.0  0.19127  0.45528  0.10749  1.0000
  H   H1064     1.0  0.15885  0.48373  0.04011  1.0000
  H   H1065     1.0  0.15045  0.51821  0.02724  1.0000
  H   H1066     1.0  0.14804  0.54235  0.04743  1.0000
  H   H1067     1.0  0.15419  0.53196  0.08065  1.0000
  H   H1068     1.0  0.16283  0.49770  0.09373  1.0000
  H   H1069     1.0  0.17598  0.42573  0.06334  1.0000
  H   H1070     1.0  0.15606  0.40875  0.05215  1.0000
  H   H1071     1.0  0.12169  0.42228  0.05132  1.0000
  H   H1072     1.0  0.10740  0.45333  0.06156  1.0000
  H   H1073     1.0  0.12734  0.47149  0.07180  1.0000
  H   H1074     1.0  0.19332  0.42713  0.08852  1.0000
  H   H1075     1.0  0.22746  0.41486  0.07701  1.0000
  H   H1076     1.0  0.24709  0.43520  0.05180  1.0000
  H   H1077     1.0  0.23206  0.46772  0.03756  1.0000
  H   H1078     1.0  0.19781  0.47996  0.04839  1.0000
  C   C1345     1.0  0.06856  0.38645  0.08518  1.0000
  H   H1079     1.0  0.07930  0.44757  0.32194  1.0000
  H   H1080     1.0  0.08029  0.45549  0.35318  1.0000
  H   H1081     1.0  0.06891  0.42090  0.23300  1.0000
  C   C1346     1.0  0.07918  0.40324  0.34956  1.0000
  C   C1347     1.0  0.43640  0.56217  0.39700  1.0000
  C   C1348     1.0  0.40501  0.56352  0.46352  1.0000
  C   C1349     1.0  0.08469  0.39525  0.07827  1.0000
  C   C1350     1.0  0.05191  0.50345  0.28656  1.0000
  H   H1082     1.0  0.10375  0.46488  0.23704  1.0000
  H   H1083     1.0  0.01763  0.50478  0.22130  1.0000
  H   H1084     1.0  0.11981  0.48442  0.29210  1.0000
  H   H1085     1.0  0.08615  0.48555  0.29064  1.0000
  P   P47       1.0  0.06120  0.56579  0.21781  1.0000
  C   C1351     1.0  0.13325  0.41815  0.27704  1.0000
  C   C1352     1.0  0.12484  0.39985  0.28458  1.0000
  C   C1353     1.0  0.03516  0.56597  0.17292  1.0000
  C   C1354     1.0  0.03927  0.49404  0.23909  1.0000
  C   C1355     1.0  0.43333  0.51181  0.97945  1.0000
  C   C1356     1.0  0.03381  0.47810  0.29006  1.0000
  C   C1357     1.0  0.22260  0.41335  0.00338  1.0000
  H   H1086     1.0  0.01763  0.56297  0.08622  1.0000
  H   H1087     1.0  0.39884  0.53768  0.40957  1.0000
  C   C1358     1.0  0.24819  0.41061  0.18251  1.0000
  C   C1359     1.0  0.26717  0.40882  0.17262  1.0000
  C   C1360     1.0  0.01388  0.52389  0.00978  1.0000
  C   C1361     1.0  0.29363  0.39424  0.00237  1.0000
  H   H1088     1.0  0.06927  0.45499  0.23166  1.0000
  C   C1362     1.0  0.09348  0.40088  0.09093  1.0000
  H   H1089     1.0  0.10956  0.40070  0.28994  1.0000
  H   H1090     1.0  0.16070  0.42998  0.26548  1.0000
  C   C1363     1.0  0.02075  0.48539  0.30510  1.0000
  H   H1091     1.0  0.04185  0.52225  0.30719  1.0000
  H   H1092     1.0  0.05994  0.50166  0.01235  1.0000
  C   C1364     1.0  0.01163  0.57846  0.98234  1.0000
  C   C1365     1.0  0.08823  0.43041  0.12530  1.0000
  C   C1366     1.0  0.04475  0.55792  0.23922  1.0000
  H   H1093     1.0  0.02889  0.48959  0.25153  1.0000
  H   H1094     1.0  0.05278  0.54527  0.19063  1.0000
  H   H1095     1.0  0.24160  0.42327  0.18872  1.0000
  H   H1096     1.0  0.27529  0.42016  0.17112  1.0000
  H   H1097     1.0  0.00885  0.54180  0.28522  1.0000
  H   H1098     1.0  0.06447  0.44458  0.29314  1.0000
  H   H1099     1.0  0.06344  0.51114  0.27909  1.0000
  C   C1367     1.0  0.18712  0.39352  0.17301  1.0000
  Fe  Fe94      1.0  0.09763  0.39793  0.01528  1.0000
  C   C1368     1.0  0.08047  0.42670  0.36828  1.0000
  H   H1100     1.0  0.02718  0.49197  0.09695  1.0000
  H   H1101     1.0  0.03383  0.55581  0.16455  1.0000
  C   C1369     1.0  0.15292  0.38681  0.10092  1.0000
  C   C1370     1.0  0.40479  0.42398  0.98888  1.0000
  C   C1371     1.0  0.02588  0.51794  0.07592  1.0000
  C   C1372     1.0  0.11619  0.48067  0.27982  1.0000
  C   C1373     1.0  0.06099  0.38361  0.10477  1.0000
  H   H1102     1.0  0.45058  0.53327  0.46574  1.0000
  C   C1374     1.0  0.09431  0.57134  0.40184  1.0000
  C   C1375     1.0  0.15891  0.57337  0.40360  1.0000
  C   C1376     1.0  0.39646  0.56788  0.39825  1.0000
  H   H1103     1.0  0.22248  0.39813  0.19078  1.0000
  S   S189      1.0  0.42926  0.38909  0.10075  1.0000
  H   H1104     1.0  0.14897  0.57687  0.41633  1.0000
  P   P48       1.0  0.37903  0.38166  0.06184  1.0000
  H   H1105     1.0  0.25538  0.56939  0.30366  1.0000
  C   C1377     1.0  0.40604  0.57464  0.44523  1.0000
  C   C1378     1.0  0.04479  0.38372  0.37539  1.0000
  C   C1379     1.0  0.42812  0.57973  0.47050  1.0000
  H   H1106     1.0  0.06352  0.38730  0.13255  1.0000
  C   C1380     1.0  0.46923  0.58146  0.39230  1.0000
  S   S190      1.0  0.34748  0.38853  0.97657  1.0000
  H   H1107     1.0  0.33713  0.38562  0.06592  1.0000
  H   H1108     1.0  0.01787  0.38779  0.39481  1.0000
  H   H1109     1.0  0.39522  0.55335  0.46818  1.0000
  C   C1381     1.0  0.07883  0.57925  0.03037  1.0000
  C   C1382     1.0  0.27546  0.39275  0.16411  1.0000
  H   H1110     1.0  0.07966  0.57472  0.46096  1.0000
  H   H1111     1.0  0.13495  0.38776  0.03873  1.0000
  C   C1383     1.0  0.20357  0.38850  0.14107  1.0000
  H   H1112     1.0  0.06182  0.38215  0.07521  1.0000
  C   C1384     1.0  0.24471  0.57429  0.31535  1.0000
  C   C1385     1.0  0.25032  0.57580  0.33210  1.0000
  C   C1386     1.0  0.26593  0.38334  0.02401  1.0000
  C   C1387     1.0  0.27959  0.38258  0.00721  1.0000
  H   H1113     1.0  0.48927  0.52139  0.05312  1.0000
  H   H1114     1.0  0.41531  0.38432  0.03482  1.0000
  H   H1115     1.0  0.22104  0.57883  0.30037  1.0000
  C   C1388     1.0  0.22536  0.57952  0.31350  1.0000
  C   C1389     1.0  0.15852  0.58069  0.29920  1.0000
  H   H1116     1.0  0.05234  0.55749  0.47492  1.0000
  Fe  Fe95      1.0  0.36928  0.41646  0.73350  1.0000
  S   S191      1.0  0.33823  0.42776  0.74366  1.0000
  S   S192      1.0  0.39198  0.41910  0.75003  1.0000
  Fe  Fe96      1.0  0.35902  0.39919  0.70172  1.0000
  S   S193      1.0  0.32748  0.40950  0.71041  1.0000
  Fe  Fe97      1.0  0.33656  0.43664  0.71230  1.0000
  S   S194      1.0  0.32132  0.46575  0.69984  1.0000
  Fe  Fe98      1.0  0.33279  0.39940  0.74058  1.0000
  H   H1117     1.0  0.09385  0.42558  0.83015  1.0000
  S   S195      1.0  0.36797  0.42696  0.70230  1.0000
  H   H1118     1.0  0.28790  0.56123  0.61858  1.0000
  Fe  Fe99      1.0  0.41538  0.50831  0.78808  1.0000
  S   S196      1.0  0.39046  0.50882  0.81233  1.0000
  S   S197      1.0  0.41348  0.49445  0.76339  1.0000
  Fe  Fe100     1.0  0.43559  0.53337  0.80544  1.0000
  S   S198      1.0  0.41175  0.53457  0.83081  1.0000
  S   S199      1.0  0.46049  0.54976  0.80167  1.0000
  Fe  Fe101     1.0  0.41307  0.50338  0.83057  1.0000
  S   S200      1.0  0.41666  0.47839  0.85471  1.0000
  Fe  Fe102     1.0  0.39210  0.53989  0.80929  1.0000
  C   C1390     1.0  0.37773  0.48557  0.95794  1.0000
  S   S201      1.0  0.43824  0.50159  0.80632  1.0000
  S   S202      1.0  0.41580  0.53994  0.78387  1.0000
  Fe  Fe103     1.0  0.39445  0.55006  0.57898  1.0000
  S   S203      1.0  0.42210  0.54434  0.59021  1.0000
  H   H1119     1.0  0.47735  0.55819  0.49254  1.0000
  Fe  Fe104     1.0  0.37878  0.51720  0.60710  1.0000
  S   S204      1.0  0.40508  0.50852  0.62068  1.0000
  S   S205      1.0  0.35117  0.50530  0.61493  1.0000
  Fe  Fe105     1.0  0.40353  0.54013  0.61917  1.0000
  S   S206      1.0  0.40738  0.55017  0.64528  1.0000
  Fe  Fe106     1.0  0.42147  0.51341  0.59072  1.0000
  S   S207      1.0  0.44883  0.49491  0.57895  1.0000
  S   S208      1.0  0.37583  0.54828  0.60794  1.0000
  S   S209      1.0  0.39532  0.51957  0.57698  1.0000
  H   H1120     1.0  0.19518  0.43636  0.96996  1.0000
  S   S210      1.0  0.46358  0.41018  0.55307  1.0000
  H   H1121     1.0  0.07097  0.57329  0.60447  1.0000
  C   C1391     1.0  0.45890  0.53393  0.90794  1.0000
  Fe  Fe107     1.0  0.34765  0.43581  0.94028  1.0000
  S   S211      1.0  0.36697  0.40830  0.93434  1.0000
  S   S212      1.0  0.34449  0.46343  0.91893  1.0000
  H   H1122     1.0  0.02204  0.40522  0.79235  1.0000
  H   H1123     1.0  0.39324  0.41338  0.56305  1.0000
  S   S213      1.0  0.32087  0.42293  0.95129  1.0000
  C   C1392     1.0  0.44018  0.43328  0.72892  1.0000
  C   C1393     1.0  0.40427  0.45370  0.55118  1.0000
  H   H1124     1.0  0.44383  0.52616  0.65092  1.0000
  P   P49       1.0  0.42388  0.46334  0.67873  1.0000
  C   C1394     1.0  0.36408  0.49207  0.56686  1.0000
  C   C1395     1.0  0.37930  0.55596  0.53266  1.0000
  C   C1396     1.0  0.37287  0.55476  0.51611  1.0000
  C   C1397     1.0  0.35436  0.50252  0.53041  1.0000
  H   H1125     1.0  0.43744  0.52699  0.89513  1.0000
  C   C1398     1.0  0.39315  0.43669  0.59667  1.0000
  H   H1126     1.0  0.38582  0.54313  0.54121  1.0000
  H   H1127     1.0  0.37443  0.54100  0.51199  1.0000
  C   C1399     1.0  0.45151  0.47000  0.58734  1.0000
  C   C1400     1.0  0.43856  0.46199  0.60268  1.0000
  C   C1401     1.0  0.44134  0.44203  0.60907  1.0000
  C   C1402     1.0  0.45669  0.43004  0.59973  1.0000
  H   H1128     1.0  0.30739  0.54338  0.67208  1.0000
  H   H1129     1.0  0.15095  0.39222  0.84248  1.0000
  H   H1130     1.0  0.42648  0.47111  0.60970  1.0000
  H   H1131     1.0  0.43136  0.43589  0.62096  1.0000
  C   C1403     1.0  0.33051  0.53806  0.75366  1.0000
  H   H1132     1.0  0.37892  0.40629  0.79188  1.0000
  C   C1404     1.0  0.39629  0.47423  0.87207  1.0000
  C   C1405     1.0  0.37883  0.48705  0.87204  1.0000
  C   C1406     1.0  0.36302  0.48368  0.88660  1.0000
  C   C1407     1.0  0.36452  0.46734  0.90094  1.0000
  C   C1408     1.0  0.38191  0.45445  0.90080  1.0000
  C   C1409     1.0  0.39782  0.45799  0.88649  1.0000
  H   H1133     1.0  0.37760  0.49964  0.86096  1.0000
  H   H1134     1.0  0.34961  0.49375  0.88677  1.0000
  H   H1135     1.0  0.38316  0.44185  0.91179  1.0000
  H   H1136     1.0  0.41133  0.44808  0.88657  1.0000
  C   C1410     1.0  0.46526  0.56167  0.81881  1.0000
  C   C1411     1.0  0.43409  0.42754  0.93513  1.0000
  C   C1412     1.0  0.44796  0.47402  0.64370  1.0000
  H   H1137     1.0  0.34763  0.46128  0.59428  1.0000
  C   C1413     1.0  0.44066  0.53658  0.90299  1.0000
  C   C1414     1.0  0.45423  0.56117  0.83723  1.0000
  H   H1138     1.0  0.34701  0.49500  0.80502  1.0000
  C   C1415     1.0  0.13615  0.40623  0.93761  1.0000
  C   C1416     1.0  0.27976  0.39443  0.91903  1.0000
  H   H1139     1.0  0.44238  0.55336  0.84143  1.0000
  H   H1140     1.0  0.16002  0.55098  0.51902  1.0000
  H   H1141     1.0  0.42632  0.53906  0.96131  1.0000
  C   C1417     1.0  0.36244  0.48598  0.94870  1.0000
  S   S214      1.0  0.02562  0.39310  0.87513  1.0000
  S   S215      1.0  0.36726  0.56473  0.80750  1.0000
  H   H1142     1.0  0.37527  0.54656  0.77417  1.0000
  C   C1418     1.0  0.33006  0.47590  0.67596  1.0000
  C   C1419     1.0  0.34830  0.46892  0.66613  1.0000
  C   C1420     1.0  0.35538  0.47844  0.64772  1.0000
  C   C1421     1.0  0.34388  0.49446  0.63877  1.0000
  C   C1422     1.0  0.32543  0.50102  0.64835  1.0000
  C   C1423     1.0  0.31874  0.49206  0.66699  1.0000
  H   H1143     1.0  0.35719  0.45653  0.67284  1.0000
  H   H1144     1.0  0.36955  0.47312  0.64030  1.0000
  H   H1145     1.0  0.31632  0.51315  0.64137  1.0000
  H   H1146     1.0  0.30461  0.49751  0.67437  1.0000
  C   C1424     1.0  0.39433  0.44003  0.75773  1.0000
  C   C1425     1.0  0.40793  0.43880  0.76935  1.0000
  C   C1426     1.0  0.41238  0.45552  0.77306  1.0000
  C   C1427     1.0  0.40350  0.47366  0.76490  1.0000
  C   C1428     1.0  0.38896  0.47474  0.75442  1.0000
  C   C1429     1.0  0.38406  0.45803  0.75134  1.0000
  H   H1147     1.0  0.41583  0.42493  0.77463  1.0000
  H   H1148     1.0  0.42379  0.45435  0.78093  1.0000
  H   H1149     1.0  0.38194  0.48852  0.74798  1.0000
  H   H1150     1.0  0.37296  0.45906  0.74327  1.0000
  C   C1430     1.0  0.48511  0.46397  0.95076  1.0000
  H   H1151     1.0  0.20095  0.45920  0.90982  1.0000
  C   C1431     1.0  0.33778  0.40115  0.88800  1.0000
  H   H1152     1.0  0.48670  0.45199  0.96252  1.0000
  C   C1432     1.0  0.32364  0.45633  0.78186  1.0000
  P   P50       1.0  0.22080  0.39938  0.97096  1.0000
  H   H1153     1.0  0.34185  0.45422  0.55320  1.0000
  H   H1154     1.0  0.35091  0.50672  0.51616  1.0000
  C   C1433     1.0  0.23483  0.55779  0.59871  1.0000
  H   H1155     1.0  0.44881  0.47316  0.87379  1.0000
  H   H1156     1.0  0.37067  0.42875  0.64326  1.0000
  Fe  Fe108     1.0  0.37213  0.40455  0.96462  1.0000
  C   C1434     1.0  0.48422  0.51435  0.73730  1.0000
  H   H1157     1.0  0.44260  0.47432  0.55049  1.0000
  C   C1435     1.0  0.45572  0.52967  0.53082  1.0000
  C   C1436     1.0  0.41576  0.56621  0.47622  1.0000
  C   C1437     1.0  0.15627  0.56786  0.60578  1.0000
  C   C1438     1.0  0.35986  0.45280  0.60030  1.0000
  P   P51       1.0  0.37951  0.45413  0.56287  1.0000
  H   H1158     1.0  0.39036  0.41827  0.86607  1.0000
  H   H1159     1.0  0.33524  0.53889  0.64583  1.0000
  C   C1439     1.0  0.25841  0.56321  0.49270  1.0000
  C   C1440     1.0  0.04345  0.40612  0.95388  1.0000
  C   C1441     1.0  0.27032  0.42420  0.83269  1.0000
  H   H1160     1.0  0.99948  0.42586  0.81352  1.0000
  H   H1161     1.0  0.42733  0.39418  0.65221  1.0000
  H   H1162     1.0  0.36612  0.47333  0.52728  1.0000
  C   C1442     1.0  0.02802  0.38211  0.93701  1.0000
  C   C1443     1.0  0.47630  0.48218  0.95451  1.0000
  C   C1444     1.0  0.47020  0.53640  0.51643  1.0000
  C   C1445     1.0  0.39856  0.50373  0.92158  1.0000
  H   H1163     1.0  0.45908  0.51679  0.54112  1.0000
  C   C1446     1.0  0.26247  0.51341  0.72030  1.0000
  H   H1164     1.0  0.44253  0.47146  0.93634  1.0000
  P   P52       1.0  0.30274  0.55766  0.70793  1.0000
  C   C1447     1.0  0.47677  0.47303  0.48360  1.0000
  H   H1165     1.0  0.48607  0.55174  0.87855  1.0000
  C   C1448     1.0  0.40754  0.51195  0.88705  1.0000
  H   H1166     1.0  0.45098  0.44320  0.74966  1.0000
  H   H1167     1.0  0.04485  0.54188  0.96617  1.0000
  H   H1168     1.0  0.46280  0.51588  0.62102  1.0000
  C   C1449     1.0  0.30173  0.51210  0.55880  1.0000
  H   H1169     1.0  0.20540  0.42042  0.75259  1.0000
  C   C1450     1.0  0.42316  0.48507  0.97200  1.0000
  H   H1170     1.0  0.25917  0.54227  0.58238  1.0000
  C   C1451     1.0  0.35063  0.51613  0.54230  1.0000
  H   H1171     1.0  0.45985  0.43890  0.93254  1.0000
  H   H1172     1.0  0.28634  0.43569  0.80560  1.0000
  C   C1452     1.0  0.35750  0.44599  0.62000  1.0000
  H   H1173     1.0  0.40612  0.42020  0.93841  1.0000
  C   C1453     1.0  0.43346  0.43825  0.71158  1.0000
  C   C1454     1.0  0.02681  0.40167  0.92946  1.0000
  H   H1174     1.0  0.40498  0.53906  0.74257  1.0000
  C   C1455     1.0  0.27106  0.41093  0.84967  1.0000
  C   C1456     1.0  0.28703  0.42577  0.81900  1.0000
  H   H1175     1.0  0.41634  0.50861  0.87371  1.0000
  H   H1176     1.0  0.18727  0.40511  0.90662  1.0000
  C   C1457     1.0  0.37282  0.43436  0.62803  1.0000
  H   H1177     1.0  0.36826  0.48850  0.58080  1.0000
  C   C1458     1.0  0.22822  0.40117  0.76526  1.0000
  H   H1178     1.0  0.44874  0.45991  0.64077  1.0000
  H   H1179     1.0  0.23125  0.41175  0.77215  1.0000
  C   C1459     1.0  0.45648  0.48509  0.87065  1.0000
  H   H1180     1.0  0.33266  0.48362  0.95208  1.0000
  H   H1181     1.0  0.01664  0.53710  0.95464  1.0000
  H   H1182     1.0  0.12362  0.40395  0.81923  1.0000
  C   C1460     1.0  0.36480  0.57142  0.50471  1.0000
  C   C1461     1.0  0.08944  0.40629  0.92707  1.0000
  C   C1462     1.0  0.09478  0.41015  0.90712  1.0000
  C   C1463     1.0  0.16018  0.39549  0.91119  1.0000
  P   P53       1.0  0.09282  0.43456  0.89442  1.0000
  C   C1464     1.0  0.06918  0.44309  0.88821  1.0000
  C   C1465     1.0  0.09644  0.44909  0.91017  1.0000
  C   C1466     1.0  0.08054  0.45794  0.92206  1.0000
  C   C1467     1.0  0.08323  0.46864  0.93477  1.0000
  C   C1468     1.0  0.10181  0.47027  0.93601  1.0000
  C   C1469     1.0  0.11771  0.46116  0.92458  1.0000
  C   C1470     1.0  0.11507  0.45060  0.91172  1.0000
  C   C1471     1.0  0.05646  0.43040  0.88999  1.0000
  C   C1472     1.0  0.03825  0.43728  0.88501  1.0000
  C   C1473     1.0  0.03258  0.45677  0.87831  1.0000
  C   C1474     1.0  0.04502  0.46953  0.87679  1.0000
  C   C1475     1.0  0.06322  0.46274  0.88181  1.0000
  C   C1476     1.0  0.11146  0.43582  0.87330  1.0000
  C   C1477     1.0  0.13006  0.42542  0.87436  1.0000
  C   C1478     1.0  0.14479  0.42657  0.85841  1.0000
  C   C1479     1.0  0.14100  0.43785  0.84104  1.0000
  C   C1480     1.0  0.12246  0.44803  0.83968  1.0000
  C   C1481     1.0  0.10773  0.44705  0.85573  1.0000
  C   C1482     1.0  0.46706  0.45798  0.57833  1.0000
  C   C1483     1.0  0.20478  0.44782  0.92141  1.0000
  H   H1183     1.0  0.48950  0.57218  0.79969  1.0000
  H   H1184     1.0  0.08449  0.41780  0.93517  1.0000
  H   H1185     1.0  0.33185  0.53005  0.72662  1.0000
  H   H1186     1.0  0.06607  0.45603  0.92209  1.0000
  H   H1187     1.0  0.10396  0.47793  0.94639  1.0000
  H   H1188     1.0  0.13214  0.46162  0.92624  1.0000
  H   H1189     1.0  0.12768  0.44319  0.90358  1.0000
  H   H1190     1.0  0.06041  0.41524  0.89534  1.0000
  H   H1191     1.0  0.02835  0.42759  0.88648  1.0000
  H   H1192     1.0  0.01843  0.46191  0.87444  1.0000
  H   H1193     1.0  0.04049  0.48467  0.87180  1.0000
  H   H1194     1.0  0.07267  0.47281  0.88070  1.0000
  H   H1195     1.0  0.13325  0.41645  0.88762  1.0000
  H   H1196     1.0  0.15912  0.41862  0.85969  1.0000
  H   H1197     1.0  0.15244  0.43872  0.82866  1.0000
  H   H1198     1.0  0.11950  0.45675  0.82619  1.0000
  H   H1199     1.0  0.09353  0.45501  0.85426  1.0000
  C   C1484     1.0  0.43721  0.47962  0.66079  1.0000
  C   C1485     1.0  0.32105  0.54651  0.67320  1.0000
  H   H1200     1.0  0.34194  0.52653  0.75773  1.0000
  H   H1201     1.0  0.28688  0.43547  0.90386  1.0000
  C   C1486     1.0  0.25848  0.54746  0.50770  1.0000
  C   C1487     1.0  0.25544  0.55025  0.52661  1.0000
  C   C1488     1.0  0.11199  0.56847  0.52667  1.0000
  H   H1202     1.0  0.13191  0.38825  0.91947  1.0000
  H   H1203     1.0  0.29949  0.50692  0.54672  1.0000
  C   C1489     1.0  0.28205  0.50818  0.71322  1.0000
  Fe  Fe109     1.0  0.99785  0.40424  0.86419  1.0000
  H   H1204     1.0  0.28105  0.43559  0.87153  1.0000
  C   C1490     1.0  0.37775  0.44834  0.58849  1.0000
  C   C1491     1.0  0.25510  0.53207  0.72360  1.0000
  H   H1205     1.0  0.29831  0.40244  0.93444  1.0000
  C   C1492     1.0  0.31069  0.57394  0.62209  1.0000
  H   H1206     1.0  0.25535  0.53808  0.53824  1.0000
  H   H1207     1.0  0.30041  0.57621  0.77008  1.0000
  H   H1208     1.0  0.31473  0.48429  0.57232  1.0000
  P   P54       1.0  0.29115  0.56334  0.57737  1.0000
  C   C1493     1.0  0.29332  0.57815  0.55387  1.0000
  Fe  Fe110     1.0  0.34037  0.39516  0.94692  1.0000
  H   H1209     1.0  0.34415  0.53078  0.53736  1.0000
  H   H1210     1.0  0.25308  0.50291  0.72341  1.0000
  H   H1211     1.0  0.32701  0.42821  0.54888  1.0000
  S   S216      1.0  0.45967  0.40499  0.60672  1.0000
  H   H1212     1.0  0.00608  0.56951  0.53629  1.0000
  C   C1494     1.0  0.41418  0.46437  0.93983  1.0000
  C   C1495     1.0  0.26633  0.56716  0.58925  1.0000
  C   C1496     1.0  0.44256  0.56491  0.68711  1.0000
  C   C1497     1.0  0.43425  0.46546  0.54671  1.0000
  H   H1213     1.0  0.30572  0.48090  0.81847  1.0000
  C   C1498     1.0  0.43182  0.44268  0.52794  1.0000
  C   C1499     1.0  0.31026  0.49933  0.57322  1.0000
  C   C1500     1.0  0.36288  0.48364  0.53678  1.0000
  C   C1501     1.0  0.32848  0.39812  0.87425  1.0000
  C   C1502     1.0  0.38785  0.52627  0.73001  1.0000
  C   C1503     1.0  0.36749  0.56094  0.77059  1.0000
  H   H1214     1.0  0.37727  0.38495  0.77022  1.0000
  C   C1504     1.0  0.31322  0.50602  0.58877  1.0000
  C   C1505     1.0  0.47389  0.49764  0.93943  1.0000
  C   C1506     1.0  0.00667  0.40572  0.79417  1.0000
  H   H1215     1.0  0.42044  0.48641  0.90391  1.0000
  C   C1507     1.0  0.03115  0.55140  0.96879  1.0000
  C   C1508     1.0  0.36746  0.47820  0.55521  1.0000
  C   C1509     1.0  0.44267  0.45397  0.53296  1.0000
  H   H1216     1.0  0.28940  0.54125  0.54875  1.0000
  C   C1510     1.0  0.31552  0.47104  0.81005  1.0000
  H   H1217     1.0  0.31040  0.53026  0.60204  1.0000
  H   H1218     1.0  0.31529  0.44749  0.90748  1.0000
  C   C1511     1.0  0.14633  0.55854  0.52538  1.0000
  C   C1512     1.0  0.26740  0.40996  0.78684  1.0000
  C   C1513     1.0  0.42650  0.55210  0.90768  1.0000
  C   C1514     1.0  0.34073  0.44612  0.78771  1.0000
  H   H1219     1.0  0.25918  0.42424  0.78395  1.0000
  H   H1220     1.0  0.47387  0.55744  0.70860  1.0000
  H   H1221     1.0  0.35864  0.44043  0.80889  1.0000
  H   H1222     1.0  0.25665  0.43283  0.82991  1.0000
  H   H1223     1.0  0.13010  0.54954  0.50837  1.0000
  C   C1515     1.0  0.03433  0.41357  0.93791  1.0000
  H   H1224     1.0  0.48139  0.42895  0.57706  1.0000
  H   H1225     1.0  0.25413  0.41839  0.96109  1.0000
  C   C1516     1.0  0.45602  0.50571  0.63224  1.0000
  H   H1226     1.0  0.35699  0.40573  0.82311  1.0000
  H   H1227     1.0  0.38851  0.45243  0.94230  1.0000
  H   H1228     1.0  0.33780  0.45951  0.87909  1.0000
  H   H1229     1.0  0.34654  0.52951  0.80225  1.0000
  C   C1517     1.0  0.31104  0.46876  0.79303  1.0000
  C   C1518     1.0  0.40995  0.49948  0.90428  1.0000
  H   H1230     1.0  0.29787  0.47674  0.78839  1.0000
  C   C1519     1.0  0.08240  0.40386  0.85209  1.0000
  C   C1520     1.0  0.40282  0.53588  0.72939  1.0000
  H   H1231     1.0  0.34253  0.56355  0.70193  1.0000
  C   C1521     1.0  0.12949  0.55783  0.51929  1.0000
  C   C1522     1.0  0.34425  0.48366  0.95935  1.0000
  C   C1523     1.0  0.46266  0.54693  0.91783  1.0000
  C   C1524     1.0  0.37781  0.57385  0.53768  1.0000
  S   S217      1.0  0.35488  0.43319  0.96936  1.0000
  C   C1525     1.0  0.35159  0.40626  0.55365  1.0000
  C   C1526     1.0  0.29427  0.52162  0.70924  1.0000
  C   C1527     1.0  0.47151  0.50673  0.88142  1.0000
  C   C1528     1.0  0.30445  0.41390  0.82216  1.0000
  C   C1529     1.0  0.40407  0.44982  0.94009  1.0000
  C   C1530     1.0  0.37885  0.41686  0.55975  1.0000
  H   H1232     1.0  0.37876  0.52218  0.74359  1.0000
  C   C1531     1.0  0.30570  0.57007  0.59127  1.0000
  C   C1532     1.0  0.44847  0.56244  0.92249  1.0000
  C   C1533     1.0  0.33890  0.38829  0.85959  1.0000
  C   C1534     1.0  0.17693  0.39714  0.82279  1.0000
  H   H1233     1.0  0.47704  0.46396  0.56636  1.0000
  C   C1535     1.0  0.35429  0.54847  0.65925  1.0000
  H   H1234     1.0  0.12178  0.40683  0.94585  1.0000
  H   H1235     1.0  0.10546  0.39751  0.88173  1.0000
  H   H1236     1.0  0.22536  0.54807  0.59875  1.0000
  C   C1536     1.0  0.46098  0.49443  0.85178  1.0000
  C   C1537     1.0  0.32222  0.57798  0.58237  1.0000
  C   C1538     1.0  0.38451  0.52045  0.92132  1.0000
  C   C1539     1.0  0.44430  0.44204  0.93447  1.0000
  C   C1540     1.0  0.99753  0.56082  0.96589  1.0000
  H   H1237     1.0  0.45774  0.45342  0.52657  1.0000
  H   H1238     1.0  0.42569  0.53467  0.54348  1.0000
  C   C1541     1.0  0.29671  0.39215  0.92645  1.0000
  P   P55       1.0  0.40139  0.48775  0.94399  1.0000
  C   C1542     1.0  0.14889  0.41618  0.94163  1.0000
  Fe  Fe111     1.0  0.47122  0.39196  0.58019  1.0000
  C   C1543     1.0  0.39345  0.52844  0.88688  1.0000
  C   C1544     1.0  0.17305  0.40528  0.91526  1.0000
  C   C1545     1.0  0.34156  0.42512  0.55172  1.0000
  H   H1239     1.0  0.15304  0.55857  0.61944  1.0000
  H   H1240     1.0  0.19905  0.39623  0.73637  1.0000
  H   H1241     1.0  0.34371  0.44955  0.62909  1.0000
  H   H1242     1.0  0.02548  0.57055  0.49852  1.0000
  H   H1243     1.0  0.03284  0.42875  0.93215  1.0000
  C   C1546     1.0  0.09640  0.41080  0.83730  1.0000
  C   C1547     1.0  0.10103  0.39484  0.89709  1.0000
  C   C1548     1.0  0.46951  0.43809  0.58435  1.0000
  C   C1549     1.0  0.42537  0.52398  0.96434  1.0000
  C   C1550     1.0  0.44251  0.42913  0.66652  1.0000
  C   C1551     1.0  0.48050  0.49497  0.92041  1.0000
  H   H1244     1.0  0.45716  0.40300  0.65645  1.0000
  C   C1552     1.0  0.43913  0.47059  0.70823  1.0000
  C   C1553     1.0  0.39911  0.47483  0.68465  1.0000
  C   C1554     1.0  0.38721  0.46761  0.70146  1.0000
  C   C1555     1.0  0.36781  0.47614  0.70548  1.0000
  C   C1556     1.0  0.36029  0.49203  0.69298  1.0000
  C   C1557     1.0  0.37193  0.49896  0.67608  1.0000
  C   C1558     1.0  0.39121  0.49041  0.67194  1.0000
  H   H1245     1.0  0.43829  0.48524  0.70096  1.0000
  H   H1246     1.0  0.44944  0.47640  0.73166  1.0000
  H   H1247     1.0  0.39275  0.45508  0.71115  1.0000
  H   H1248     1.0  0.35827  0.47007  0.71787  1.0000
  H   H1249     1.0  0.34517  0.49830  0.69591  1.0000
  H   H1250     1.0  0.36586  0.51042  0.66576  1.0000
  H   H1251     1.0  0.39984  0.49588  0.65874  1.0000
  C   C1559     1.0  0.43180  0.57108  0.74293  1.0000
  C   C1560     1.0  0.40809  0.43663  0.66710  1.0000
  H   H1252     1.0  0.42690  0.50365  0.67563  1.0000
  S   S218      1.0  0.40074  0.39243  0.97497  1.0000
  C   C1561     1.0  0.44562  0.46560  0.72570  1.0000
  H   H1253     1.0  0.26094  0.56085  0.47809  1.0000
  C   C1562     1.0  0.43325  0.45688  0.70084  1.0000
  C   C1563     1.0  0.42484  0.44158  0.67001  1.0000
  C   C1564     1.0  0.39067  0.42978  0.61639  1.0000
  H   H1254     1.0  0.32018  0.45475  0.76860  1.0000
  H   H1255     1.0  0.46690  0.51156  0.94272  1.0000
  C   C1565     1.0  0.32311  0.55307  0.68933  1.0000
  C   C1566     1.0  0.25234  0.56877  0.53050  1.0000
  C   C1567     1.0  0.26008  0.39648  0.80215  1.0000
  C   C1568     1.0  0.21008  0.39238  0.74519  1.0000
  C   C1569     1.0  0.35014  0.43987  0.55394  1.0000
  C   C1570     1.0  0.09077  0.38740  0.93690  1.0000
  H   H1256     1.0  0.36655  0.54638  0.64793  1.0000
  C   C1571     1.0  0.99398  0.41739  0.80604  1.0000
  C   C1572     1.0  0.28524  0.40492  0.77509  1.0000
  H   H1257     1.0  0.37537  0.52386  0.93448  1.0000
  H   H1258     1.0  0.48297  0.52846  0.85884  1.0000
  C   C1573     1.0  0.16733  0.41568  0.93036  1.0000
  H   H1259     1.0  0.35292  0.52150  0.56965  1.0000
  C   C1574     1.0  0.43241  0.55637  0.51896  1.0000
  C   C1575     1.0  0.42369  0.57141  0.72694  1.0000
  H   H1260     1.0  0.40902  0.47396  0.56685  1.0000
  S   S219      1.0  0.05173  0.42225  0.96443  1.0000
  H   H1261     1.0  0.45981  0.53837  0.67969  1.0000
  C   C1576     1.0  0.30779  0.52547  0.58989  1.0000
  Fe  Fe112     1.0  0.45749  0.38345  0.54682  1.0000
  H   H1262     1.0  0.36462  0.48769  0.93326  1.0000
  H   H1263     1.0  0.24972  0.57111  0.54513  1.0000
  C   C1577     1.0  0.35558  0.51092  0.56046  1.0000
  H   H1264     1.0  0.40457  0.43397  0.53245  1.0000
  P   P56       1.0  0.43381  0.55407  0.71138  1.0000
  C   C1578     1.0  0.43590  0.49856  0.66321  1.0000
  C   C1579     1.0  0.45379  0.53788  0.72058  1.0000
  C   C1580     1.0  0.47175  0.54365  0.71724  1.0000
  S   S220      1.0  0.36409  0.38732  0.73181  1.0000
  H   H1265     1.0  0.40959  0.52652  0.94193  1.0000
  C   C1581     1.0  0.46642  0.50849  0.74061  1.0000
  C   C1582     1.0  0.45131  0.52013  0.73218  1.0000
  C   C1583     1.0  0.29616  0.53156  0.55993  1.0000
  H   H1266     1.0  0.01946  0.40777  0.91751  1.0000
  H   H1267     1.0  0.17722  0.42333  0.93335  1.0000
  C   C1584     1.0  0.19008  0.39190  0.80689  1.0000
  H   H1268     1.0  0.39597  0.41507  0.65984  1.0000
  C   C1585     1.0  0.41493  0.54113  0.71200  1.0000
  C   C1586     1.0  0.40899  0.41931  0.66124  1.0000
  H   H1269     1.0  0.29072  0.41527  0.76317  1.0000
  C   C1587     1.0  0.38459  0.52214  0.71325  1.0000
  C   C1588     1.0  0.39650  0.52745  0.69587  1.0000
  C   C1589     1.0  0.41177  0.53668  0.69526  1.0000
  H   H1270     1.0  0.39429  0.44594  0.66953  1.0000
  C   C1590     1.0  0.41402  0.43150  0.93774  1.0000
  C   C1591     1.0  0.99458  0.57774  0.52895  1.0000
  H   H1271     1.0  0.28782  0.49361  0.71094  1.0000
  C   C1592     1.0  0.21408  0.41792  0.95142  1.0000
  H   H1272     1.0  0.46412  0.49508  0.75003  1.0000
  H   H1273     1.0  0.43766  0.51535  0.73510  1.0000
  H   H1274     1.0  0.46527  0.48264  0.61630  1.0000
  C   C1593     1.0  0.43686  0.53970  0.53212  1.0000
  H   H1275     1.0  0.30325  0.44758  0.84292  1.0000
  H   H1276     1.0  0.37284  0.51489  0.71375  1.0000
  H   H1277     1.0  0.39380  0.52471  0.68275  1.0000
  H   H1278     1.0  0.42067  0.54074  0.68160  1.0000
  H   H1279     1.0  0.17994  0.40542  0.96693  1.0000
  H   H1280     1.0  0.45682  0.48966  0.84040  1.0000
  H   H1281     1.0  0.35062  0.43665  0.77888  1.0000
  C   C1594     1.0  0.26730  0.54556  0.71968  1.0000
  H   H1282     1.0  0.32000  0.49618  0.59991  1.0000
  H   H1283     1.0  0.34493  0.39474  0.55220  1.0000
  H   H1284     1.0  0.48489  0.52873  0.51566  1.0000
  S   S221      1.0  0.35711  0.57017  0.48374  1.0000
  C   C1595     1.0  0.20152  0.43481  0.95534  1.0000
  C   C1596     1.0  0.22208  0.41625  0.93236  1.0000
  C   C1597     1.0  0.21738  0.43109  0.91742  1.0000
  H   H1285     1.0  0.43843  0.43343  0.51755  1.0000
  H   H1286     1.0  0.00942  0.38516  0.77606  1.0000
  C   C1598     1.0  0.36196  0.57292  0.78422  1.0000
  C   C1599     1.0  0.38190  0.53268  0.90401  1.0000
  H   H1287     1.0  0.45728  0.48425  0.89998  1.0000
  C   C1600     1.0  0.48692  0.53188  0.72553  1.0000
  C   C1601     1.0  0.44639  0.44691  0.73591  1.0000
  C   C1602     1.0  0.35740  0.39411  0.88746  1.0000
  C   C1603     1.0  0.30032  0.56765  0.61129  1.0000
  C   C1604     1.0  0.29931  0.53842  0.57541  1.0000
  H   H1288     1.0  0.40694  0.43251  0.58786  1.0000
  C   C1605     1.0  0.48071  0.57184  0.81378  1.0000
  C   C1606     1.0  0.25403  0.55455  0.58941  1.0000
  H   H1289     1.0  0.37776  0.38747  0.55972  1.0000
  H   H1290     1.0  0.41384  0.55807  0.49057  1.0000
  H   H1291     1.0  0.43975  0.41906  0.73735  1.0000
  C   C1607     1.0  0.33669  0.54412  0.65823  1.0000
  H   H1292     1.0  0.18564  0.56678  0.60814  1.0000
  C   C1608     1.0  0.32170  0.55106  0.76591  1.0000
  H   H1293     1.0  0.47103  0.55256  0.64610  1.0000
  H   H1294     1.0  0.22346  0.42943  0.90276  1.0000
  C   C1609     1.0  0.30703  0.56600  0.76067  1.0000
  C   C1610     1.0  0.41262  0.44272  0.53680  1.0000
  H   H1295     1.0  0.37075  0.54531  0.90383  1.0000
  C   C1611     1.0  0.33257  0.46073  0.81612  1.0000
  C   C1612     1.0  0.44536  0.51146  0.64909  1.0000
  C   C1613     1.0  0.43441  0.46044  0.93670  1.0000
  C   C1614     1.0  0.34521  0.44828  0.80479  1.0000
  H   H1296     1.0  0.31703  0.41497  0.81105  1.0000
  S   S222      1.0  0.21954  0.39611  0.86987  1.0000
  C   C1615     1.0  0.41519  0.46523  0.55593  1.0000
  H   H1297     1.0  0.40248  0.42053  0.62258  1.0000
  C   C1616     1.0  0.14205  0.57512  0.59449  1.0000
  C   C1617     1.0  0.31045  0.55549  0.73041  1.0000
  H   H1298     1.0  0.31312  0.40294  0.87551  1.0000
  H   H1299     1.0  0.07093  0.47496  0.94424  1.0000
  C   C1618     1.0  0.44345  0.41226  0.65980  1.0000
  H   H1300     1.0  0.42788  0.42765  0.70699  1.0000
  H   H1301     1.0  0.09906  0.56838  0.52146  1.0000
  C   C1619     1.0  0.46580  0.55314  0.50325  1.0000
  H   H1302     1.0  0.46317  0.47275  0.49341  1.0000
  H   H1303     1.0  0.45559  0.43265  0.66873  1.0000
  H   H1304     1.0  0.23997  0.53604  0.72938  1.0000
  C   C1620     1.0  0.45523  0.55352  0.67473  1.0000
  H   H1305     1.0  0.36625  0.55804  0.74203  1.0000
  C   C1621     1.0  0.46146  0.49136  0.88544  1.0000
  C   C1622     1.0  0.42667  0.40732  0.65725  1.0000
  C   C1623     1.0  0.35629  0.55517  0.67513  1.0000
  C   C1624     1.0  0.45737  0.48698  0.62959  1.0000
  H   H1306     1.0  0.28964  0.57960  0.73946  1.0000
  H   H1307     1.0  0.44473  0.56115  0.74582  1.0000
  C   C1625     1.0  0.38694  0.43023  0.85484  1.0000
  C   C1626     1.0  0.40172  0.43847  0.84225  1.0000
  C   C1627     1.0  0.39732  0.45398  0.82784  1.0000
  C   C1628     1.0  0.37814  0.46160  0.82633  1.0000
  C   C1629     1.0  0.36314  0.45390  0.83936  1.0000
  C   C1630     1.0  0.36773  0.43773  0.85324  1.0000
  P   P57       1.0  0.33838  0.46459  0.83775  1.0000
  C   C1631     1.0  0.32203  0.45511  0.85868  1.0000
  C   C1632     1.0  0.33647  0.49025  0.83567  1.0000
  C   C1633     1.0  0.33025  0.49922  0.85177  1.0000
  C   C1634     1.0  0.32987  0.51887  0.84996  1.0000
  C   C1635     1.0  0.33562  0.52977  0.83211  1.0000
  C   C1636     1.0  0.34157  0.52109  0.81598  1.0000
  C   C1637     1.0  0.34195  0.50146  0.81770  1.0000
  C   C1638     1.0  0.30602  0.44801  0.85680  1.0000
  C   C1639     1.0  0.29334  0.44110  0.87304  1.0000
  C   C1640     1.0  0.29661  0.44099  0.89129  1.0000
  C   C1641     1.0  0.31260  0.44774  0.89332  1.0000
  C   C1642     1.0  0.32532  0.45462  0.87714  1.0000
  C   C1643     1.0  0.47050  0.51005  0.84767  1.0000
  H   H1308     1.0  0.41658  0.43306  0.84380  1.0000
  H   H1309     1.0  0.40878  0.46045  0.81813  1.0000
  H   H1310     1.0  0.37512  0.47356  0.81502  1.0000
  H   H1311     1.0  0.35659  0.43101  0.86303  1.0000
  H   H1312     1.0  0.32590  0.49125  0.86581  1.0000
  H   H1313     1.0  0.32540  0.52559  0.86250  1.0000
  H   H1314     1.0  0.33574  0.54491  0.83077  1.0000
  H   H1315     1.0  0.26149  0.55984  0.72272  1.0000
  H   H1316     1.0  0.15904  0.57086  0.54274  1.0000
  C   C1644     1.0  0.40535  0.57472  0.64594  1.0000
  H   H1317     1.0  0.12801  0.57122  0.59973  1.0000
  H   H1318     1.0  0.40084  0.38695  0.58642  1.0000
  S   S223      1.0  0.14208  0.42957  0.96036  1.0000
  H   H1319     1.0  0.32647  0.54982  0.77931  1.0000
  S   S224      1.0  0.99134  0.43597  0.85228  1.0000
  C   C1645     1.0  0.19685  0.44968  0.94038  1.0000
  H   H1320     1.0  0.44164  0.41315  0.93385  1.0000
  C   C1646     1.0  0.36872  0.39650  0.79626  1.0000
  S   S225      1.0  0.23697  0.40251  0.81568  1.0000
  C   C1647     1.0  0.28689  0.54053  0.71209  1.0000
  H   H1321     1.0  0.47363  0.51753  0.83303  1.0000
  H   H1322     1.0  0.27185  0.57326  0.68545  1.0000
  C   C1648     1.0  0.35634  0.39606  0.81395  1.0000
  H   H1323     1.0  0.41263  0.55429  0.90342  1.0000
  C   C1649     1.0  0.22790  0.57352  0.60801  1.0000
  C   C1650     1.0  0.30524  0.40033  0.83910  1.0000
  H   H1324     1.0  0.41771  0.56406  0.52040  1.0000
  H   H1325     1.0  0.42444  0.39504  0.60215  1.0000
  H   H1326     1.0  0.20303  0.39811  0.80203  1.0000
  H   H1327     1.0  0.30947  0.51712  0.70412  1.0000
  H   H1328     1.0  0.10195  0.56973  0.58200  1.0000
  C   C1651     1.0  0.23899  0.38265  0.76739  1.0000
  C   C1652     1.0  0.28842  0.39902  0.85288  1.0000
  C   C1653     1.0  0.36245  0.56740  0.75240  1.0000
  C   C1654     1.0  0.16056  0.38861  0.82962  1.0000
  H   H1329     1.0  0.06897  0.41319  0.85633  1.0000
  C   C1655     1.0  0.36900  0.43587  0.55765  1.0000
  H   H1330     1.0  0.39132  0.53776  0.87341  1.0000
  C   C1656     1.0  0.37016  0.40214  0.55780  1.0000
  H   H1331     1.0  0.26841  0.40651  0.92147  1.0000
  C   C1657     1.0  0.21369  0.40602  0.75425  1.0000
  C   C1658     1.0  0.43041  0.56506  0.91738  1.0000
  Fe  Fe113     1.0  0.22968  0.38260  0.84377  1.0000
  C   C1659     1.0  0.32486  0.54020  0.73599  1.0000
  C   C1660     1.0  0.30118  0.56805  0.74313  1.0000
  H   H1332     1.0  0.17992  0.40723  0.83028  1.0000
  C   C1661     1.0  0.04506  0.38644  0.96120  1.0000
  H   H1333     1.0  0.45167  0.57271  0.92963  1.0000
  C   C1662     1.0  0.11332  0.39850  0.83127  1.0000
  H   H1334     1.0  0.19384  0.57315  0.52080  1.0000
  C   C1663     1.0  0.99954  0.39436  0.78508  1.0000
  C   C1664     1.0  0.47579  0.51620  0.86241  1.0000
  H   H1335     1.0  0.23200  0.40358  0.92893  1.0000
  H   H1336     1.0  0.25808  0.40948  0.86020  1.0000
  H   H1337     1.0  0.18680  0.46247  0.94351  1.0000
  C   C1665     1.0  0.14571  0.56986  0.53887  1.0000
  H   H1338     1.0  0.21303  0.57899  0.54221  1.0000
  H   H1339     1.0  0.39496  0.57097  0.67641  1.0000
  H   H1340     1.0  0.32964  0.40830  0.89961  1.0000
  C   C1666     1.0  0.44678  0.56322  0.50429  1.0000
  H   H1341     1.0  0.32087  0.56203  0.54278  1.0000
  H   H1342     1.0  0.26085  0.53312  0.50463  1.0000
  H   H1343     1.0  0.36434  0.39599  0.89853  1.0000
  S   S226      1.0  0.00433  0.38328  0.84426  1.0000
  H   H1344     1.0  0.08686  0.38462  0.95235  1.0000
  C   C1667     1.0  0.45865  0.57063  0.85036  1.0000
  H   H1345     1.0  0.47673  0.54535  0.92152  1.0000
  P   P58       1.0  0.47782  0.51480  0.90067  1.0000
  C   C1668     1.0  0.41458  0.49726  0.95718  1.0000
  S   S227      1.0  0.38709  0.57633  0.55726  1.0000
  C   C1669     1.0  0.34076  0.55771  0.69003  1.0000
  C   C1670     1.0  0.01525  0.54869  0.96233  1.0000
  C   C1671     1.0  0.17465  0.57249  0.59943  1.0000
  H   H1346     1.0  0.36990  0.55848  0.67585  1.0000
  C   C1672     1.0  0.14182  0.39587  0.92252  1.0000
  H   H1347     1.0  0.30608  0.57272  0.63742  1.0000
  C   C1673     1.0  0.41592  0.51678  0.95331  1.0000
  C   C1674     1.0  0.30949  0.57403  0.53976  1.0000
  H   H1348     1.0  0.41957  0.57731  0.92064  1.0000
  H   H1349     1.0  0.47140  0.48425  0.96919  1.0000
  S   S228      1.0  0.43123  0.38648  0.53367  1.0000
  C   C1675     1.0  0.29564  0.38629  0.77848  1.0000
  C   C1676     1.0  0.08543  0.38469  0.86102  1.0000
  C   C1677     1.0  0.36779  0.38451  0.78399  1.0000
  H   H1350     1.0  0.32701  0.57975  0.56706  1.0000
  C   C1678     1.0  0.46162  0.56150  0.65569  1.0000
  S   S229      1.0  0.36878  0.38711  0.67406  1.0000
  C   C1679     1.0  0.11135  0.57992  0.54003  1.0000
  H   H1351     1.0  0.28855  0.38842  0.86589  1.0000
  H   H1352     1.0  0.45007  0.56998  0.86458  1.0000
  S   S230      1.0  0.25518  0.38477  0.90040  1.0000
  C   C1680     1.0  0.03732  0.57825  0.49272  1.0000
  S   S231      1.0  0.16606  0.38373  0.89136  1.0000
  H   H1353     1.0  0.48276  0.51855  0.57347  1.0000
  H   H1354     1.0  0.48718  0.49442  0.55291  1.0000
  C   C1681     1.0  0.36786  0.38420  0.87301  1.0000
  H   H1355     1.0  0.37238  0.58022  0.62963  1.0000
  H   H1356     1.0  0.21312  0.57605  0.61534  1.0000
  C   C1682     1.0  0.05253  0.57075  0.47934  1.0000
  C   C1683     1.0  0.48989  0.47671  0.91678  1.0000
  H   H1357     1.0  0.42266  0.46991  0.97504  1.0000
  C   C1684     1.0  0.39812  0.58105  0.66342  1.0000
  H   H1358     1.0  0.42819  0.58133  0.76924  1.0000
  C   C1685     1.0  0.34322  0.38326  0.81968  1.0000
  C   C1686     1.0  0.47401  0.58091  0.84528  1.0000
  P   P59       1.0  0.32694  0.38319  0.84236  1.0000
  C   C1687     1.0  0.48501  0.58149  0.82685  1.0000
  H   H1359     1.0  0.22423  0.58113  0.47968  1.0000
  C   C1688     1.0  0.12819  0.58050  0.54644  1.0000
  C   C1689     1.0  0.45555  0.58092  0.64893  1.0000
  H   H1360     1.0  0.40092  0.38199  0.51709  1.0000
  C   C1690     1.0  0.41904  0.38172  0.60746  1.0000
  H   H1361     1.0  0.26140  0.38263  0.97387  1.0000
  C   C1691     1.0  0.99558  0.57595  0.97577  1.0000
  C   C1692     1.0  0.24745  0.41963  0.97571  1.0000
  H   H1362     1.0  0.44914  0.75798  0.33029  1.0000
  S   S232      1.0  0.46766  0.65835  0.42298  1.0000
  Fe  Fe114     1.0  0.41047  0.76105  0.31971  1.0000
  S   S233      1.0  0.39118  0.75931  0.34830  1.0000
  S   S234      1.0  0.43216  0.73528  0.31233  1.0000
  H   H1363     1.0  0.41694  0.64325  0.33395  1.0000
  C   C1693     1.0  0.40629  0.58330  0.39156  1.0000
  Fe  Fe115     1.0  0.14899  0.60751  0.47519  1.0000
  S   S235      1.0  0.34122  0.75624  0.34347  1.0000
  C   C1694     1.0  0.37558  0.65483  0.32844  1.0000
  H   H1364     1.0  0.47949  0.75061  0.34322  1.0000
  Fe  Fe116     1.0  0.09923  0.74515  0.13568  1.0000
  S   S236      1.0  0.11858  0.73705  0.10899  1.0000
  S   S237      1.0  0.09652  0.72778  0.16553  1.0000
  H   H1365     1.0  0.36203  0.76397  0.43645  1.0000
  Fe  Fe117     1.0  0.99115  0.70633  0.05062  1.0000
  Fe  Fe118     1.0  0.09152  0.74526  0.09618  1.0000
  S   S238      1.0  0.08549  0.72445  0.07964  1.0000
  Fe  Fe119     1.0  0.12131  0.76836  0.10080  1.0000
  Fe  Fe120     1.0  0.99539  0.66378  0.05053  1.0000
  S   S239      1.0  0.07215  0.75154  0.12348  1.0000
  C   C1695     1.0  0.22757  0.59541  0.40717  1.0000
  C   C1696     1.0  0.44810  0.67384  0.34746  1.0000
  C   C1697     1.0  0.26382  0.72241  0.25084  1.0000
  S   S240      1.0  0.00503  0.73103  0.05329  1.0000
  H   H1366     1.0  0.30891  0.72594  0.47574  1.0000
  C   C1698     1.0  0.38011  0.72322  0.28829  1.0000
  C   C1699     1.0  0.00827  0.63987  0.13516  1.0000
  C   C1700     1.0  0.20350  0.61558  0.44702  1.0000
  S   S241      1.0  0.01790  0.63763  0.04601  1.0000
  H   H1367     1.0  0.00674  0.76149  0.20619  1.0000
  H   H1368     1.0  0.47325  0.61432  0.41765  1.0000
  Fe  Fe121     1.0  0.13606  0.61747  0.24231  1.0000
  Fe  Fe122     1.0  0.16133  0.63798  0.20867  1.0000
  S   S242      1.0  0.18520  0.61243  0.20851  1.0000
  S   S243      1.0  0.16689  0.66353  0.18568  1.0000
  H   H1369     1.0  0.41710  0.70025  0.31121  1.0000
  C   C1701     1.0  0.47562  0.74005  0.33701  1.0000
  H   H1370     1.0  0.07832  0.76888  0.04515  1.0000
  S   S244      1.0  0.15682  0.63731  0.24033  1.0000
  S   S245      1.0  0.13825  0.62112  0.21053  1.0000
  Fe  Fe123     1.0  0.27391  0.69540  0.31764  1.0000
  S   S246      1.0  0.27952  0.66839  0.30523  1.0000
  S   S247      1.0  0.29025  0.72016  0.30366  1.0000
  Fe  Fe124     1.0  0.24261  0.68048  0.35031  1.0000
  S   S248      1.0  0.24598  0.65267  0.34035  1.0000
  S   S249      1.0  0.22409  0.68544  0.37872  1.0000
  Fe  Fe125     1.0  0.27759  0.65312  0.33594  1.0000
  S   S250      1.0  0.29859  0.62847  0.34872  1.0000
  Fe  Fe126     1.0  0.24721  0.67031  0.31076  1.0000
  S   S251      1.0  0.22778  0.66979  0.28988  1.0000
  S   S252      1.0  0.27417  0.67991  0.34759  1.0000
  S   S253      1.0  0.24160  0.69853  0.32121  1.0000
  Fe  Fe127     1.0  0.14397  0.62610  0.43435  1.0000
  H   H1371     1.0  0.17704  0.58980  0.13313  1.0000
  S   S254      1.0  0.15554  0.63869  0.40384  1.0000
  H   H1372     1.0  0.04741  0.59670  0.24088  1.0000
  H   H1373     1.0  0.42276  0.69550  0.34967  1.0000
  S   S255      1.0  0.11429  0.61931  0.43848  1.0000
  Fe  Fe128     1.0  0.37210  0.62728  0.43328  1.0000
  S   S256      1.0  0.39601  0.63075  0.40779  1.0000
  H   H1374     1.0  0.13553  0.62929  0.06148  1.0000
  H   H1375     1.0  0.01478  0.66614  0.46807  1.0000
  C   C1702     1.0  0.21537  0.74852  0.18037  1.0000
  Fe  Fe129     1.0  0.32878  0.63087  0.44221  1.0000
  S   S257      1.0  0.30043  0.64036  0.43189  1.0000
  S   S258      1.0  0.34835  0.65201  0.43866  1.0000
  H   H1376     1.0  0.48738  0.61569  0.35713  1.0000
  C   C1703     1.0  0.27956  0.73928  0.42671  1.0000
  S   S259      1.0  0.15672  0.59638  0.44734  1.0000
  C   C1704     1.0  0.20416  0.67366  0.38576  1.0000
  C   C1705     1.0  0.19635  0.66898  0.40523  1.0000
  C   C1706     1.0  0.18134  0.65826  0.41112  1.0000
  C   C1707     1.0  0.17377  0.65274  0.39744  1.0000
  C   C1708     1.0  0.18093  0.65837  0.37797  1.0000
  C   C1709     1.0  0.19625  0.66855  0.37212  1.0000
  H   H1377     1.0  0.20221  0.67331  0.41577  1.0000
  H   H1378     1.0  0.17561  0.65432  0.42616  1.0000
  H   H1379     1.0  0.17483  0.65455  0.36735  1.0000
  H   H1380     1.0  0.20201  0.67235  0.35706  1.0000
  C   C1710     1.0  0.29840  0.63001  0.37260  1.0000
  C   C1711     1.0  0.28214  0.63952  0.38336  1.0000
  C   C1712     1.0  0.28273  0.64219  0.40175  1.0000
  C   C1713     1.0  0.29972  0.63578  0.40930  1.0000
  C   C1714     1.0  0.31582  0.62583  0.39878  1.0000
  C   C1715     1.0  0.31500  0.62260  0.38065  1.0000
  H   H1381     1.0  0.26914  0.64503  0.37742  1.0000
  H   H1382     1.0  0.27010  0.64966  0.40988  1.0000
  C   C1716     1.0  0.21820  0.62220  0.37524  1.0000
  H   H1383     1.0  0.15595  0.66310  0.32194  1.0000
  C   C1717     1.0  0.22171  0.65105  0.28133  1.0000
  C   C1718     1.0  0.23199  0.63227  0.28360  1.0000
  C   C1719     1.0  0.22683  0.61827  0.27581  1.0000
  C   C1720     1.0  0.21108  0.62274  0.26617  1.0000
  C   C1721     1.0  0.20065  0.64137  0.26427  1.0000
  C   C1722     1.0  0.20605  0.65542  0.27161  1.0000
  H   H1384     1.0  0.24414  0.62865  0.29095  1.0000
  H   H1385     1.0  0.23525  0.60399  0.27703  1.0000
  H   H1386     1.0  0.18845  0.64499  0.25705  1.0000
  H   H1387     1.0  0.19795  0.66975  0.26969  1.0000
  C   C1723     1.0  0.01394  0.60866  0.10057  1.0000
  C   C1724     1.0  0.46166  0.59413  0.47357  1.0000
  C   C1725     1.0  0.27791  0.59666  0.44079  1.0000
  H   H1388     1.0  0.21032  0.62861  0.33117  1.0000
  H   H1389     1.0  0.21493  0.63265  0.36286  1.0000
  H   H1390     1.0  0.28332  0.73261  0.36044  1.0000
  C   C1726     1.0  0.02286  0.62163  0.06690  1.0000
  C   C1727     1.0  0.01023  0.62239  0.08435  1.0000
  Fe  Fe130     1.0  0.07868  0.78122  0.11402  1.0000
  H   H1391     1.0  0.13855  0.60090  0.17652  1.0000
  C   C1728     1.0  0.21624  0.59137  0.39571  1.0000
  C   C1729     1.0  0.11568  0.70901  0.17029  1.0000
  C   C1730     1.0  0.11371  0.69609  0.18768  1.0000
  C   C1731     1.0  0.12917  0.68160  0.19226  1.0000
  C   C1732     1.0  0.14674  0.68026  0.17958  1.0000
  C   C1733     1.0  0.14860  0.69294  0.16203  1.0000
  C   C1734     1.0  0.13306  0.70724  0.15734  1.0000
  H   H1392     1.0  0.10027  0.69742  0.19772  1.0000
  H   H1393     1.0  0.12766  0.67182  0.20580  1.0000
  H   H1394     1.0  0.16209  0.69177  0.15206  1.0000
  H   H1395     1.0  0.13468  0.71717  0.14394  1.0000
  C   C1735     1.0  0.25698  0.72737  0.23357  1.0000
  C   C1736     1.0  0.06309  0.72655  0.07234  1.0000
  C   C1737     1.0  0.05931  0.71125  0.06559  1.0000
  C   C1738     1.0  0.04149  0.71215  0.06015  1.0000
  C   C1739     1.0  0.02751  0.72875  0.06068  1.0000
  C   C1740     1.0  0.03157  0.74423  0.06698  1.0000
  C   C1741     1.0  0.04907  0.74306  0.07306  1.0000
  H   H1396     1.0  0.07019  0.69859  0.06469  1.0000
  H   H1397     1.0  0.03874  0.70016  0.05520  1.0000
  H   H1398     1.0  0.02104  0.75718  0.06746  1.0000
  H   H1399     1.0  0.05176  0.75505  0.07809  1.0000
  C   C1742     1.0  0.32951  0.74493  0.33095  1.0000
  C   C1743     1.0  0.32212  0.72831  0.34052  1.0000
  C   C1744     1.0  0.31077  0.72010  0.33207  1.0000
  C   C1745     1.0  0.30617  0.72876  0.31410  1.0000
  C   C1746     1.0  0.31398  0.74512  0.30430  1.0000
  C   C1747     1.0  0.32568  0.75309  0.31259  1.0000
  H   H1400     1.0  0.32492  0.72192  0.35469  1.0000
  H   H1401     1.0  0.30504  0.70744  0.33974  1.0000
  H   H1402     1.0  0.31061  0.75192  0.29037  1.0000
  H   H1403     1.0  0.33106  0.76599  0.30509  1.0000
  C   C1748     1.0  0.44784  0.65090  0.41833  1.0000
  C   C1749     1.0  0.43387  0.64478  0.43375  1.0000
  C   C1750     1.0  0.41773  0.63902  0.43053  1.0000
  C   C1751     1.0  0.41582  0.63864  0.41194  1.0000
  C   C1752     1.0  0.42996  0.64440  0.39651  1.0000
  C   C1753     1.0  0.44576  0.65090  0.39968  1.0000
  H   H1404     1.0  0.43547  0.64466  0.44822  1.0000
  H   H1405     1.0  0.40691  0.63463  0.44244  1.0000
  H   H1406     1.0  0.42861  0.64406  0.38209  1.0000
  C   C1754     1.0  0.38748  0.69615  0.32097  1.0000
  C   C1755     1.0  0.35650  0.77668  0.40826  1.0000
  H   H1407     1.0  0.32889  0.62065  0.40458  1.0000
  C   C1756     1.0  0.46559  0.71288  0.32085  1.0000
  C   C1757     1.0  0.45341  0.73060  0.32167  1.0000
  H   H1408     1.0  0.08578  0.60343  0.29870  1.0000
  Fe  Fe131     1.0  0.34939  0.64113  0.46981  1.0000
  C   C1758     1.0  0.36995  0.69350  0.45152  1.0000
  H   H1409     1.0  0.46182  0.70242  0.31441  1.0000
  C   C1759     1.0  0.42548  0.65198  0.33766  1.0000
  S   S260      1.0  0.20472  0.60480  0.25675  1.0000
  H   H1410     1.0  0.23825  0.73044  0.42910  1.0000
  H   H1411     1.0  0.37954  0.66314  0.31439  1.0000
  C   C1760     1.0  0.42873  0.68123  0.34662  1.0000
  C   C1761     1.0  0.07107  0.58596  0.21969  1.0000
  C   C1762     1.0  0.34221  0.73885  0.46896  1.0000
  H   H1412     1.0  0.23446  0.63982  0.38333  1.0000
  C   C1763     1.0  0.10020  0.59595  0.27144  1.0000
  H   H1413     1.0  0.20909  0.76352  0.24338  1.0000
  H   H1414     1.0  0.99756  0.75265  0.01558  1.0000
  C   C1764     1.0  0.03037  0.59432  0.09944  1.0000
  C   C1765     1.0  0.46978  0.75084  0.38761  1.0000
  C   C1766     1.0  0.29745  0.69274  0.45592  1.0000
  C   C1767     1.0  0.38538  0.72101  0.43753  1.0000
  P   P60       1.0  0.34509  0.72886  0.44768  1.0000
  H   H1415     1.0  0.01744  0.62665  0.13993  1.0000
  C   C1768     1.0  0.09985  0.76216  0.99285  1.0000
  H   H1416     1.0  0.33011  0.76051  0.38375  1.0000
  H   H1417     1.0  0.21390  0.64164  0.43312  1.0000
  H   H1418     1.0  0.22249  0.71476  0.28149  1.0000
  H   H1419     1.0  0.45119  0.77845  0.38339  1.0000
  S   S261      1.0  0.38647  0.77170  0.30288  1.0000
  C   C1769     1.0  0.20668  0.59844  0.45995  1.0000
  H   H1420     1.0  0.11119  0.73327  0.00529  1.0000
  C   C1770     1.0  0.47545  0.59117  0.37379  1.0000
  C   C1771     1.0  0.21142  0.60481  0.37964  1.0000
  C   C1772     1.0  0.09634  0.60509  0.20911  1.0000
  C   C1773     1.0  0.08696  0.61715  0.22212  1.0000
  C   C1774     1.0  0.06937  0.61398  0.23357  1.0000
  C   C1775     1.0  0.06122  0.59866  0.23212  1.0000
  C   C1776     1.0  0.33036  0.75668  0.47063  1.0000
  C   C1777     1.0  0.48100  0.61674  0.38717  1.0000
  H   H1421     1.0  0.23063  0.67733  0.46709  1.0000
  H   H1422     1.0  0.11297  0.58420  0.24592  1.0000
  C   C1778     1.0  0.48736  0.72198  0.33694  1.0000
  Fe  Fe132     1.0  0.35351  0.59980  0.46607  1.0000
  H   H1423     1.0  0.15746  0.61467  0.36747  1.0000
  C   C1779     1.0  0.17125  0.58594  0.39334  1.0000
  H   H1424     1.0  0.28592  0.62601  0.47133  1.0000
  P   P61       1.0  0.48937  0.76034  0.39170  1.0000
  H   H1425     1.0  0.21760  0.73413  0.18856  1.0000
  H   H1426     1.0  0.35725  0.68719  0.45771  1.0000
  H   H1427     1.0  0.45130  0.63066  0.33499  1.0000
  C   C1780     1.0  0.22945  0.62623  0.38675  1.0000
  H   H1428     1.0  0.24215  0.63416  0.44897  1.0000
  H   H1429     1.0  0.09176  0.58552  0.02591  1.0000
  H   H1430     1.0  0.47588  0.58518  0.36131  1.0000
  H   H1431     1.0  0.10990  0.60745  0.20014  1.0000
  H   H1432     1.0  0.09351  0.62870  0.22368  1.0000
  H   H1433     1.0  0.06232  0.62314  0.24392  1.0000
  C   C1781     1.0  0.48017  0.61996  0.46281  1.0000
  H   H1434     1.0  0.27889  0.72189  0.25104  1.0000
  H   H1435     1.0  0.42477  0.75237  0.27089  1.0000
  C   C1782     1.0  0.16505  0.61259  0.29745  1.0000
  H   H1436     1.0  0.36187  0.62354  0.37805  1.0000
  S   S262      1.0  0.99657  0.68937  0.02683  1.0000
  C   C1783     1.0  0.99222  0.74847  0.13612  1.0000
  C   C1784     1.0  0.08428  0.76718  0.03046  1.0000
  H   H1437     1.0  0.32348  0.76497  0.45888  1.0000
  H   H1438     1.0  0.01565  0.59417  0.04710  1.0000
  H   H1439     1.0  0.99333  0.74294  0.15098  1.0000
  C   C1785     1.0  0.24242  0.69223  0.16339  1.0000
  C   C1786     1.0  0.23448  0.67553  0.16792  1.0000
  C   C1787     1.0  0.21468  0.67677  0.16944  1.0000
  C   C1788     1.0  0.20277  0.69469  0.16675  1.0000
  C   C1789     1.0  0.21047  0.71155  0.16311  1.0000
  C   C1790     1.0  0.23051  0.71018  0.16071  1.0000
  P   P62       1.0  0.19512  0.73469  0.15911  1.0000
  C   C1791     1.0  0.19392  0.73984  0.13394  1.0000
  C   C1792     1.0  0.17115  0.73511  0.17310  1.0000
  C   C1793     1.0  0.15577  0.74876  0.16683  1.0000
  C   C1794     1.0  0.13696  0.74843  0.17679  1.0000
  C   C1795     1.0  0.13341  0.73480  0.19330  1.0000
  C   C1796     1.0  0.14870  0.72167  0.20005  1.0000
  C   C1797     1.0  0.16754  0.72194  0.19013  1.0000
  C   C1798     1.0  0.17912  0.73467  0.12749  1.0000
  C   C1799     1.0  0.17745  0.73978  0.10820  1.0000
  C   C1800     1.0  0.19084  0.74958  0.09513  1.0000
  C   C1801     1.0  0.20604  0.75412  0.10129  1.0000
  C   C1802     1.0  0.20772  0.74909  0.12060  1.0000
  C   C1803     1.0  0.20459  0.75301  0.16559  1.0000
  Fe  Fe133     1.0  0.10979  0.62843  0.46696  1.0000
  H   H1440     1.0  0.35051  0.71965  0.29782  1.0000
  H   H1441     1.0  0.41636  0.71495  0.43004  1.0000
  C   C1804     1.0  0.28851  0.77072  0.41771  1.0000
  S   S263      1.0  0.13853  0.63788  0.46162  1.0000
  H   H1442     1.0  0.25785  0.69125  0.16175  1.0000
  H   H1443     1.0  0.24367  0.66161  0.16999  1.0000
  H   H1444     1.0  0.20849  0.66384  0.17262  1.0000
  H   H1445     1.0  0.18754  0.69529  0.16755  1.0000
  H   H1446     1.0  0.23699  0.72293  0.15665  1.0000
  H   H1447     1.0  0.15820  0.75928  0.15390  1.0000
  C   C1805     1.0  0.46819  0.59002  0.40811  1.0000
  H   H1448     1.0  0.18651  0.58736  0.29853  1.0000
  H   H1449     1.0  0.19673  0.59076  0.32653  1.0000
  H   H1450     1.0  0.17914  0.71159  0.19560  1.0000
  H   H1451     1.0  0.16855  0.72712  0.13738  1.0000
  C   C1806     1.0  0.22048  0.78137  0.17440  1.0000
  H   H1452     1.0  0.18908  0.75415  0.08030  1.0000
  C   C1807     1.0  0.02808  0.59831  0.17926  1.0000
  H   H1453     1.0  0.21952  0.75285  0.12512  1.0000
  H   H1454     1.0  0.16538  0.73677  0.10346  1.0000
  S   S264      1.0  0.37521  0.61831  0.46407  1.0000
  H   H1455     1.0  0.19233  0.77600  0.14489  1.0000
  H   H1456     1.0  0.38891  0.66625  0.45540  1.0000
  C   C1808     1.0  0.12863  0.58759  0.15747  1.0000
  C   C1809     1.0  0.41836  0.58802  0.43936  1.0000
  H   H1457     1.0  0.23069  0.74039  0.33955  1.0000
  C   C1810     1.0  0.29530  0.58752  0.46728  1.0000
  C   C1811     1.0  0.23224  0.62415  0.45231  1.0000
  H   H1458     1.0  0.26681  0.73066  0.22028  1.0000
  C   C1812     1.0  0.38796  0.68155  0.45030  1.0000
  H   H1459     1.0  0.04917  0.60682  0.05237  1.0000
  C   C1813     1.0  0.27804  0.59514  0.46033  1.0000
  C   C1814     1.0  0.29481  0.59073  0.42841  1.0000
  C   C1815     1.0  0.33696  0.76126  0.39538  1.0000
  H   H1460     1.0  0.19658  0.58861  0.46308  1.0000
  C   C1816     1.0  0.06604  0.60162  0.14032  1.0000
  C   C1817     1.0  0.07504  0.60230  0.15523  1.0000
  C   C1818     1.0  0.07349  0.61970  0.16116  1.0000
  C   C1819     1.0  0.06311  0.63649  0.15203  1.0000
  C   C1820     1.0  0.05387  0.63586  0.13712  1.0000
  C   C1821     1.0  0.05565  0.61830  0.13120  1.0000
  P   P63       1.0  0.04112  0.65729  0.12428  1.0000
  C   C1822     1.0  0.04207  0.67887  0.13237  1.0000
  C   C1823     1.0  0.05278  0.65816  0.09963  1.0000
  C   C1824     1.0  0.07231  0.65976  0.09448  1.0000
  C   C1825     1.0  0.08176  0.65996  0.07555  1.0000
  C   C1826     1.0  0.07179  0.65846  0.06165  1.0000
  C   C1827     1.0  0.05238  0.65676  0.06670  1.0000
  C   C1828     1.0  0.04289  0.65648  0.08564  1.0000
  C   C1829     1.0  0.04826  0.69463  0.11936  1.0000
  C   C1830     1.0  0.04758  0.71173  0.12549  1.0000
  C   C1831     1.0  0.04070  0.71334  0.14464  1.0000
  C   C1832     1.0  0.03421  0.69786  0.15766  1.0000
  C   C1833     1.0  0.03466  0.68076  0.15151  1.0000
  C   C1834     1.0  0.01580  0.65670  0.12698  1.0000
  C   C1835     1.0  0.28235  0.75546  0.39370  1.0000
  H   H1461     1.0  0.12137  0.60099  0.15041  1.0000
  C   C1836     1.0  0.34491  0.74795  0.42696  1.0000
  H   H1462     1.0  0.00394  0.60900  0.11394  1.0000
  C   C1837     1.0  0.00331  0.67352  0.12077  1.0000
  Fe  Fe134     1.0  0.16155  0.59531  0.21280  1.0000
  C   C1838     1.0  0.41716  0.67019  0.34208  1.0000
  H   H1463     1.0  0.08068  0.62020  0.17259  1.0000
  H   H1464     1.0  0.06278  0.64986  0.15639  1.0000
  H   H1465     1.0  0.04913  0.61748  0.11936  1.0000
  H   H1466     1.0  0.08017  0.66106  0.10510  1.0000
  H   H1467     1.0  0.09671  0.66159  0.07160  1.0000
  H   H1468     1.0  0.07901  0.65879  0.04693  1.0000
  H   H1469     1.0  0.04464  0.65569  0.05590  1.0000
  H   H1470     1.0  0.02793  0.65485  0.08922  1.0000
  H   H1471     1.0  0.05328  0.69403  0.10436  1.0000
  H   H1472     1.0  0.05233  0.72378  0.11523  1.0000
  H   H1473     1.0  0.04037  0.72662  0.14933  1.0000
  H   H1474     1.0  0.02873  0.69916  0.17249  1.0000
  H   H1475     1.0  0.02912  0.66904  0.16163  1.0000
  H   H1476     1.0  0.45677  0.68228  0.35144  1.0000
  C   C1839     1.0  0.99574  0.74266  0.10400  1.0000
  H   H1477     1.0  0.00882  0.68658  0.11403  1.0000
  H   H1478     1.0  0.23244  0.73162  0.22004  1.0000
  H   H1479     1.0  0.28663  0.68384  0.45813  1.0000
  C   C1840     1.0  0.29606  0.70535  0.46833  1.0000
  C   C1841     1.0  0.23432  0.61278  0.40256  1.0000
  H   H1480     1.0  0.12501  0.75831  0.17135  1.0000
  H   H1481     1.0  0.37719  0.73388  0.27584  1.0000
  C   C1842     1.0  0.19478  0.63137  0.33534  1.0000
  H   H1482     1.0  0.38494  0.73617  0.43263  1.0000
  C   C1843     1.0  0.45699  0.72420  0.38287  1.0000
  C   C1844     1.0  0.44002  0.73657  0.37914  1.0000
  C   C1845     1.0  0.43797  0.75608  0.37945  1.0000
  C   C1846     1.0  0.45281  0.76323  0.38360  1.0000
  S   S265      1.0  0.10736  0.61848  0.26234  1.0000
  H   H1483     1.0  0.45891  0.70916  0.38202  1.0000
  H   H1484     1.0  0.42870  0.73115  0.37546  1.0000
  C   C1847     1.0  0.47454  0.58375  0.46041  1.0000
  C   C1848     1.0  0.42928  0.59064  0.45193  1.0000
  C   C1849     1.0  0.99730  0.73584  0.12314  1.0000
  C   C1850     1.0  0.44496  0.64476  0.33825  1.0000
  H   H1485     1.0  0.41049  0.72392  0.28270  1.0000
  P   P64       1.0  0.39180  0.67934  0.34248  1.0000
  C   C1851     1.0  0.38358  0.69143  0.36280  1.0000
  C   C1852     1.0  0.15467  0.63905  0.34517  1.0000
  H   H1486     1.0  0.19116  0.61890  0.43989  1.0000
  H   H1487     1.0  0.32751  0.73633  0.41316  1.0000
  H   H1488     1.0  0.36295  0.63613  0.31741  1.0000
  C   C1853     1.0  0.37344  0.71035  0.36074  1.0000
  C   C1854     1.0  0.36910  0.72029  0.37598  1.0000
  C   C1855     1.0  0.37473  0.71147  0.39342  1.0000
  C   C1856     1.0  0.38466  0.69261  0.39570  1.0000
  C   C1857     1.0  0.38921  0.68272  0.38041  1.0000
  C   C1858     1.0  0.37958  0.65943  0.34481  1.0000
  C   C1859     1.0  0.37485  0.64780  0.36265  1.0000
  C   C1860     1.0  0.36577  0.63222  0.36416  1.0000
  C   C1861     1.0  0.36152  0.62803  0.34784  1.0000
  H   H1489     1.0  0.13914  0.64212  0.34918  1.0000
  C   C1862     1.0  0.36641  0.63933  0.33002  1.0000
  S   S266      1.0  0.15838  0.59088  0.24488  1.0000
  H   H1490     1.0  0.24132  0.58409  0.35961  1.0000
  H   H1491     1.0  0.35672  0.69623  0.32676  1.0000
  C   C1863     1.0  0.13262  0.60823  0.29852  1.0000
  H   H1492     1.0  0.36922  0.71783  0.34732  1.0000
  H   H1493     1.0  0.36161  0.73497  0.37405  1.0000
  H   H1494     1.0  0.37157  0.71937  0.40500  1.0000
  H   H1495     1.0  0.38921  0.68569  0.40913  1.0000
  H   H1496     1.0  0.39765  0.66844  0.38217  1.0000
  H   H1497     1.0  0.37791  0.65073  0.37548  1.0000
  C   C1864     1.0  0.21163  0.58635  0.32830  1.0000
  H   H1498     1.0  0.35436  0.61607  0.34892  1.0000
  C   C1865     1.0  0.16414  0.65090  0.32990  1.0000
  C   C1866     1.0  0.40336  0.70900  0.43611  1.0000
  C   C1867     1.0  0.28740  0.77100  0.39872  1.0000
  C   C1868     1.0  0.32600  0.71527  0.45048  1.0000
  C   C1869     1.0  0.32720  0.70257  0.43803  1.0000
  C   C1870     1.0  0.31289  0.69146  0.44070  1.0000
  C   C1871     1.0  0.48178  0.77510  0.40987  1.0000
  C   C1872     1.0  0.23546  0.60701  0.46542  1.0000
  H   H1499     1.0  0.03980  0.76488  0.18882  1.0000
  C   C1873     1.0  0.11429  0.61797  0.08428  1.0000
  H   H1500     1.0  0.33937  0.70095  0.42647  1.0000
  H   H1501     1.0  0.31389  0.68148  0.43123  1.0000
  C   C1874     1.0  0.17146  0.59288  0.29843  1.0000
  C   C1875     1.0  0.21625  0.62845  0.44327  1.0000
  C   C1876     1.0  0.23752  0.72795  0.23350  1.0000
  H   H1502     1.0  0.06510  0.59663  0.00741  1.0000
  C   C1877     1.0  0.22881  0.73129  0.37000  1.0000
  C   C1878     1.0  0.23837  0.73694  0.35142  1.0000
  H   H1503     1.0  0.99742  0.63330  0.08525  1.0000
  C   C1879     1.0  0.26807  0.73235  0.36333  1.0000
  C   C1880     1.0  0.25867  0.72647  0.38204  1.0000
  C   C1881     1.0  0.23890  0.72597  0.38526  1.0000
  P   P65       1.0  0.27238  0.71899  0.40128  1.0000
  C   C1882     1.0  0.25914  0.70564  0.42209  1.0000
  C   C1883     1.0  0.29420  0.70374  0.39238  1.0000
  C   C1884     1.0  0.29312  0.68900  0.38327  1.0000
  C   C1885     1.0  0.30986  0.67712  0.37614  1.0000
  C   C1886     1.0  0.32772  0.67945  0.37866  1.0000
  C   C1887     1.0  0.32892  0.69389  0.38803  1.0000
  C   C1888     1.0  0.31225  0.70627  0.39452  1.0000
  C   C1889     1.0  0.24300  0.71517  0.43313  1.0000
  C   C1890     1.0  0.23276  0.70499  0.44931  1.0000
  C   C1891     1.0  0.23861  0.68526  0.45465  1.0000
  C   C1892     1.0  0.25477  0.67573  0.44387  1.0000
  C   C1893     1.0  0.26501  0.68584  0.42772  1.0000
  H   H1504     1.0  0.21375  0.73008  0.37249  1.0000
  H   H1505     1.0  0.09503  0.60828  0.10972  1.0000
  C   C1894     1.0  0.03881  0.59245  0.19401  1.0000
  H   H1506     1.0  0.06738  0.58821  0.13552  1.0000
  H   H1507     1.0  0.23127  0.72074  0.39926  1.0000
  H   H1508     1.0  0.27923  0.68656  0.38203  1.0000
  H   H1509     1.0  0.30896  0.66595  0.36881  1.0000
  H   H1510     1.0  0.34057  0.67003  0.37339  1.0000
  H   H1511     1.0  0.03577  0.58209  0.01739  1.0000
  H   H1512     1.0  0.31343  0.71761  0.40133  1.0000
  H   H1513     1.0  0.26493  0.60254  0.43496  1.0000
  H   H1514     1.0  0.25950  0.66046  0.44798  1.0000
  H   H1515     1.0  0.27755  0.67804  0.41985  1.0000
  C   C1895     1.0  0.09647  0.65507  0.17257  1.0000
  C   C1896     1.0  0.08575  0.67355  0.16945  1.0000
  C   C1897     1.0  0.08870  0.68517  0.15147  1.0000
  C   C1898     1.0  0.10262  0.67852  0.13668  1.0000
  C   C1899     1.0  0.11389  0.66015  0.13981  1.0000
  C   C1900     1.0  0.11032  0.64828  0.15776  1.0000
  P   P66       1.0  0.13320  0.65210  0.12131  1.0000
  C   C1901     1.0  0.12465  0.64003  0.10643  1.0000
  C   C1902     1.0  0.14268  0.67281  0.10689  1.0000
  C   C1903     1.0  0.13287  0.68464  0.09270  1.0000
  C   C1904     1.0  0.13965  0.70102  0.08186  1.0000
  C   C1905     1.0  0.15630  0.70573  0.08501  1.0000
  C   C1906     1.0  0.16617  0.69408  0.09907  1.0000
  C   C1907     1.0  0.15940  0.67770  0.11000  1.0000
  C   C1908     1.0  0.13369  0.64016  0.08726  1.0000
  C   C1909     1.0  0.12841  0.62927  0.07620  1.0000
  C   C1910     1.0  0.25800  0.73753  0.34810  1.0000
  C   C1911     1.0  0.10542  0.61761  0.10337  1.0000
  C   C1912     1.0  0.11053  0.62860  0.11444  1.0000
  C   C1913     1.0  0.15152  0.63524  0.13272  1.0000
  C   C1914     1.0  0.15758  0.63942  0.14819  1.0000
  C   C1915     1.0  0.17074  0.62595  0.15790  1.0000
  C   C1916     1.0  0.17782  0.60812  0.15243  1.0000
  C   C1917     1.0  0.17197  0.60385  0.13700  1.0000
  C   C1918     1.0  0.15892  0.61733  0.12714  1.0000
  H   H1516     1.0  0.09441  0.64619  0.18661  1.0000
  H   H1517     1.0  0.07547  0.67908  0.18105  1.0000
  H   H1518     1.0  0.08077  0.69969  0.14918  1.0000
  H   H1519     1.0  0.10483  0.68810  0.12310  1.0000
  H   H1520     1.0  0.11860  0.63398  0.16056  1.0000
  H   H1521     1.0  0.11968  0.68151  0.09029  1.0000
  H   H1522     1.0  0.13164  0.71034  0.07134  1.0000
  H   H1523     1.0  0.16135  0.71861  0.07676  1.0000
  H   H1524     1.0  0.17897  0.69785  0.10166  1.0000
  H   H1525     1.0  0.16720  0.66907  0.12090  1.0000
  H   H1526     1.0  0.14519  0.64823  0.08097  1.0000
  C   C1919     1.0  0.40254  0.70410  0.30838  1.0000
  C   C1920     1.0  0.18418  0.64710  0.32505  1.0000
  C   C1921     1.0  0.35494  0.76303  0.42511  1.0000
  H   H1527     1.0  0.10390  0.62766  0.12934  1.0000
  H   H1528     1.0  0.15187  0.65297  0.15303  1.0000
  H   H1529     1.0  0.17517  0.62918  0.16994  1.0000
  H   H1530     1.0  0.03990  0.60293  0.20208  1.0000
  S   S267      1.0  0.09591  0.77575  0.08553  1.0000
  H   H1531     1.0  0.15427  0.61335  0.11561  1.0000
  H   H1532     1.0  0.47132  0.65007  0.34378  1.0000
  S   S268      1.0  0.35248  0.60668  0.43466  1.0000
  C   C1922     1.0  0.45625  0.65566  0.34322  1.0000
  C   C1923     1.0  0.08856  0.58948  0.20799  1.0000
  C   C1924     1.0  0.36867  0.70188  0.31704  1.0000
  H   H1533     1.0  0.08013  0.60521  0.47083  1.0000
  H   H1534     1.0  0.32738  0.61481  0.37263  1.0000
  H   H1535     1.0  0.11751  0.61418  0.29873  1.0000
  H   H1536     1.0  0.41901  0.59681  0.42525  1.0000
  C   C1925     1.0  0.10284  0.74699  0.00804  1.0000
  H   H1537     1.0  0.34277  0.69549  0.39013  1.0000
  C   C1926     1.0  0.28465  0.75482  0.43169  1.0000
  H   H1538     1.0  0.18743  0.59742  0.16049  1.0000
  C   C1927     1.0  0.17559  0.70870  0.30628  1.0000
  C   C1928     1.0  0.16504  0.72581  0.31159  1.0000
  C   C1929     1.0  0.16454  0.74282  0.29816  1.0000
  C   C1930     1.0  0.17468  0.74275  0.27944  1.0000
  C   C1931     1.0  0.18527  0.72556  0.27399  1.0000
  C   C1932     1.0  0.18556  0.70859  0.28756  1.0000
  P   P67       1.0  0.19945  0.72520  0.25025  1.0000
  C   C1933     1.0  0.19184  0.74722  0.23447  1.0000
  C   C1934     1.0  0.22472  0.72358  0.25069  1.0000
  C   C1935     1.0  0.19903  0.76380  0.23418  1.0000
  S   S269      1.0  0.32795  0.62200  0.47383  1.0000
  C   C1936     1.0  0.45048  0.76307  0.27021  1.0000
  C   C1937     1.0  0.17288  0.76521  0.21046  1.0000
  C   C1938     1.0  0.17861  0.74812  0.22259  1.0000
  C   C1939     1.0  0.19554  0.70536  0.24106  1.0000
  C   C1940     1.0  0.17705  0.70063  0.24476  1.0000
  C   C1941     1.0  0.17360  0.68617  0.23665  1.0000
  C   C1942     1.0  0.18854  0.67632  0.22483  1.0000
  C   C1943     1.0  0.20703  0.68064  0.22141  1.0000
  C   C1944     1.0  0.21056  0.69505  0.22950  1.0000
  H   H1539     1.0  0.17636  0.69554  0.31675  1.0000
  H   H1540     1.0  0.15743  0.72589  0.32616  1.0000
  H   H1541     1.0  0.02127  0.61314  0.17593  1.0000
  H   H1542     1.0  0.17428  0.75614  0.26941  1.0000
  H   H1543     1.0  0.19396  0.69533  0.28382  1.0000
  C   C1945     1.0  0.19319  0.78092  0.22211  1.0000
  H   H1544     1.0  0.28559  0.75450  0.44641  1.0000
  H   H1545     1.0  0.09734  0.73779  0.03865  1.0000
  H   H1546     1.0  0.23224  0.75914  0.19557  1.0000
  S   S270      1.0  0.99199  0.68053  0.07391  1.0000
  H   H1547     1.0  0.17263  0.73572  0.22260  1.0000
  H   H1548     1.0  0.16527  0.70822  0.25378  1.0000
  H   H1549     1.0  0.15937  0.68247  0.23957  1.0000
  H   H1550     1.0  0.18588  0.66507  0.21859  1.0000
  H   H1551     1.0  0.21869  0.67256  0.21270  1.0000
  H   H1552     1.0  0.22508  0.69784  0.22685  1.0000
  H   H1553     1.0  0.41866  0.68015  0.44162  1.0000
  C   C1946     1.0  0.36843  0.71335  0.44511  1.0000
  Fe  Fe135     1.0  0.17961  0.61086  0.24043  1.0000
  H   H1554     1.0  0.15645  0.75611  0.30234  1.0000
  C   C1947     1.0  0.16522  0.62338  0.35560  1.0000
  C   C1948     1.0  0.47404  0.60763  0.40551  1.0000
  S   S271      1.0  0.10412  0.77559  0.12868  1.0000
  C   C1949     1.0  0.27819  0.73952  0.40770  1.0000
  H   H1555     1.0  0.48205  0.63428  0.46321  1.0000
  H   H1556     1.0  0.45635  0.65578  0.38770  1.0000
  C   C1950     1.0  0.18541  0.61939  0.35080  1.0000
  H   H1557     1.0  0.45465  0.76523  0.42148  1.0000
  H   H1558     1.0  0.11872  0.73409  0.20053  1.0000
  C   C1951     1.0  0.22354  0.76263  0.18452  1.0000
  C   C1952     1.0  0.40467  0.68931  0.44258  1.0000
  C   C1953     1.0  0.03108  0.77534  0.16144  1.0000
  H   H1559     1.0  0.27675  0.72707  0.43771  1.0000
  C   C1954     1.0  0.47189  0.73134  0.38686  1.0000
  H   H1560     1.0  0.08344  0.58935  0.16196  1.0000
  H   H1561     1.0  0.11042  0.60921  0.07591  1.0000
  C   C1955     1.0  0.14563  0.62027  0.29750  1.0000
  C   C1956     1.0  0.36506  0.71525  0.30070  1.0000
  H   H1562     1.0  0.17079  0.59906  0.39837  1.0000
  C   C1957     1.0  0.08935  0.59246  0.28994  1.0000
  H   H1563     1.0  0.45784  0.74934  0.27665  1.0000
  H   H1564     1.0  0.19158  0.65636  0.31334  1.0000
  H   H1565     1.0  0.28188  0.75598  0.37886  1.0000
  C   C1958     1.0  0.25125  0.71797  0.26799  1.0000
  P   P68       1.0  0.19932  0.59846  0.36325  1.0000
  Fe  Fe136     1.0  0.12659  0.59022  0.45296  1.0000
  H   H1566     1.0  0.14063  0.63553  0.29666  1.0000
  C   C1959     1.0  0.39883  0.71760  0.29212  1.0000
  C   C1960     1.0  0.43181  0.76475  0.26695  1.0000
  C   C1961     1.0  0.33561  0.74745  0.41209  1.0000
  C   C1962     1.0  0.22248  0.59420  0.46930  1.0000
  H   H1567     1.0  0.39847  0.59756  0.38713  1.0000
  H   H1568     1.0  0.21622  0.76199  0.09117  1.0000
  C   C1963     1.0  0.03937  0.60740  0.06583  1.0000
  H   H1569     1.0  0.46296  0.58312  0.42245  1.0000
  C   C1964     1.0  0.23178  0.71850  0.26798  1.0000
  C   C1965     1.0  0.45845  0.74425  0.32969  1.0000
  H   H1570     1.0  0.43333  0.59274  0.38559  1.0000
  H   H1571     1.0  0.14583  0.71084  0.21261  1.0000
  C   C1966     1.0  0.20101  0.77204  0.15599  1.0000
  H   H1572     1.0  0.24328  0.61593  0.41119  1.0000
  H   H1573     1.0  0.48526  0.72174  0.38865  1.0000
  C   C1967     1.0  0.31020  0.71663  0.46562  1.0000
  H   H1574     1.0  0.43811  0.60168  0.44727  1.0000
  C   C1968     1.0  0.99379  0.77158  0.18094  1.0000
  C   C1969     1.0  0.48236  0.70842  0.32880  1.0000
  H   H1575     1.0  0.17521  0.62188  0.29660  1.0000
  H   H1576     1.0  0.25672  0.71398  0.28131  1.0000
  C   C1970     1.0  0.02783  0.76864  0.18116  1.0000
  H   H1577     1.0  0.01169  0.77028  0.03623  1.0000
  H   H1578     1.0  0.16282  0.76572  0.20119  1.0000
  H   H1579     1.0  0.04549  0.77690  0.15383  1.0000
  C   C1971     1.0  0.21713  0.58804  0.34510  1.0000
  H   H1580     1.0  0.26554  0.74158  0.33364  1.0000
  H   H1581     1.0  0.47351  0.77766  0.26916  1.0000
  C   C1972     1.0  0.09507  0.74953  0.02683  1.0000
  C   C1973     1.0  0.13830  0.58758  0.17234  1.0000
  C   C1974     1.0  0.48162  0.60863  0.37129  1.0000
  H   H1582     1.0  0.04610  0.77197  0.02877  1.0000
  H   H1583     1.0  0.22019  0.71238  0.45764  1.0000
  C   C1975     1.0  0.04314  0.59379  0.08208  1.0000
  H   H1584     1.0  0.10283  0.58877  0.41813  1.0000
  H   H1585     1.0  0.42501  0.76569  0.37610  1.0000
  H   H1586     1.0  0.48608  0.63001  0.38536  1.0000
  Fe  Fe137     1.0  0.36710  0.77152  0.33164  1.0000
  C   C1976     1.0  0.46424  0.77432  0.42264  1.0000
  C   C1977     1.0  0.23659  0.58265  0.34696  1.0000
  H   H1587     1.0  0.05578  0.58273  0.08109  1.0000
  C   C1978     1.0  0.00228  0.58895  0.04942  1.0000
  H   H1588     1.0  0.99935  0.73281  0.09401  1.0000
  C   C1979     1.0  0.45930  0.77920  0.26593  1.0000
  C   C1980     1.0  0.18017  0.78160  0.21020  1.0000
  C   C1981     1.0  0.00920  0.76676  0.19091  1.0000
  C   C1982     1.0  0.34764  0.77570  0.39334  1.0000
  C   C1983     1.0  0.99699  0.77837  0.16114  1.0000
  H   H1589     1.0  0.01072  0.58983  0.99004  1.0000
  H   H1590     1.0  0.48691  0.72886  0.42410  1.0000
  H   H1591     1.0  0.29469  0.59235  0.41327  1.0000
  H   H1592     1.0  0.08770  0.58356  0.39255  1.0000
  C   C1984     1.0  0.13903  0.58856  0.29910  1.0000
  C   C1985     1.0  0.06385  0.58545  0.01993  1.0000
  H   H1593     1.0  0.01823  0.58961  0.15706  1.0000
  H   H1594     1.0  0.00239  0.72075  0.12789  1.0000
  H   H1595     1.0  0.10597  0.76019  0.97830  1.0000
  C   C1986     1.0  0.01576  0.78006  0.15145  1.0000
  C   C1987     1.0  0.18376  0.58181  0.37651  1.0000
  C   C1988     1.0  0.08898  0.77985  0.99642  1.0000
  C   C1989     1.0  0.31196  0.58338  0.43540  1.0000
  C   C1990     1.0  0.02630  0.58508  0.16869  1.0000
  H   H1596     1.0  0.23116  0.58507  0.41959  1.0000
  H   H1597     1.0  0.41261  0.61837  0.47463  1.0000
  C   C1991     1.0  0.46458  0.61234  0.47465  1.0000
  S   S272      1.0  0.14863  0.78022  0.08535  1.0000
  C   C1992     1.0  0.10462  0.58168  0.26020  1.0000
  C   C1993     1.0  0.31219  0.58173  0.45484  1.0000
  Fe  Fe138     1.0  0.37013  0.64398  0.67388  1.0000
  S   S273      1.0  0.34590  0.62812  0.67750  1.0000
  S   S274      1.0  0.39467  0.63846  0.64942  1.0000
  Fe  Fe139     1.0  0.35134  0.66440  0.70768  1.0000
  S   S275      1.0  0.32530  0.64996  0.71346  1.0000
  S   S276      1.0  0.35205  0.68202  0.73009  1.0000
  Fe  Fe140     1.0  0.34667  0.62328  0.70885  1.0000
  S   S277      1.0  0.34586  0.59297  0.72465  1.0000
  Fe  Fe141     1.0  0.32672  0.65599  0.68147  1.0000
  S   S278      1.0  0.30030  0.66741  0.66717  1.0000
  S   S279      1.0  0.37254  0.63694  0.70498  1.0000
  S   S280      1.0  0.35101  0.67263  0.67599  1.0000
  Fe  Fe142     1.0  0.39118  0.75983  0.76576  1.0000
  S   S281      1.0  0.38102  0.74214  0.79393  1.0000
  S   S282      1.0  0.38830  0.75286  0.73733  1.0000
  Fe  Fe143     1.0  0.41053  0.74072  0.79970  1.0000
  S   S283      1.0  0.42605  0.71060  0.80704  1.0000
  S   S284      1.0  0.42117  0.75754  0.77114  1.0000
  C   C1994     1.0  0.25649  0.65718  0.49816  1.0000
  C   C1995     1.0  0.07804  0.58555  0.59856  1.0000
  H   H1598     1.0  0.45466  0.62091  0.48428  1.0000
  Fe  Fe144     1.0  0.07647  0.76886  0.62936  1.0000
  S   S285      1.0  0.04988  0.63925  0.56580  1.0000
  S   S286      1.0  0.05856  0.75461  0.61595  1.0000
  H   H1599     1.0  0.46322  0.62318  0.82827  1.0000
  H   H1600     1.0  0.36801  0.60421  0.53036  1.0000
  S   S287      1.0  0.10202  0.75649  0.64429  1.0000
  Fe  Fe145     1.0  0.00183  0.67509  0.61130  1.0000
  S   S288      1.0  0.01328  0.68441  0.58021  1.0000
  S   S289      1.0  0.00859  0.68797  0.63465  1.0000
  Fe  Fe146     1.0  0.02035  0.65320  0.57864  1.0000
  S   S290      1.0  0.01091  0.64359  0.61016  1.0000
  C   C1996     1.0  0.23997  0.64887  0.50282  1.0000
  H   H1601     1.0  0.44294  0.61971  0.72803  1.0000
  H   H1602     1.0  0.47500  0.72006  0.80352  1.0000
  H   H1603     1.0  0.99982  0.63683  0.53650  1.0000
  Fe  Fe147     1.0  0.25016  0.64273  0.59182  1.0000
  S   S291      1.0  0.24090  0.67459  0.58575  1.0000
  S   S292      1.0  0.27128  0.62708  0.61165  1.0000
  Fe  Fe148     1.0  0.22662  0.63651  0.56297  1.0000
  S   S293      1.0  0.21599  0.66801  0.55487  1.0000
  S   S294      1.0  0.22020  0.61195  0.55182  1.0000
  Fe  Fe149     1.0  0.24646  0.67098  0.55492  1.0000
  S   S295      1.0  0.26360  0.69062  0.53250  1.0000
  Fe  Fe150     1.0  0.21161  0.66833  0.58643  1.0000
  S   S296      1.0  0.18385  0.67886  0.60525  1.0000
  S   S297      1.0  0.25739  0.63948  0.56092  1.0000
  S   S298      1.0  0.22045  0.63649  0.59459  1.0000
  C   C1997     1.0  0.45830  0.60738  0.77555  1.0000
  C   C1998     1.0  0.47779  0.73265  0.79300  1.0000
  C   C1999     1.0  0.28732  0.68120  0.52234  1.0000
  C   C2000     1.0  0.29281  0.66206  0.51981  1.0000
  C   C2001     1.0  0.32460  0.66813  0.50316  1.0000
  C   C2002     1.0  0.31941  0.68691  0.50667  1.0000
  C   C2003     1.0  0.30076  0.69352  0.51585  1.0000
  H   H1604     1.0  0.32965  0.69655  0.50171  1.0000
  H   H1605     1.0  0.29670  0.70827  0.51788  1.0000
  C   C2004     1.0  0.18263  0.60289  0.51172  1.0000
  C   C2005     1.0  0.29705  0.60156  0.51764  1.0000
  H   H1606     1.0  0.35396  0.60556  0.64745  1.0000
  C   C2006     1.0  0.20517  0.60969  0.53628  1.0000
  C   C2007     1.0  0.19390  0.62514  0.52607  1.0000
  C   C2008     1.0  0.18278  0.62174  0.51362  1.0000
  H   H1607     1.0  0.04650  0.66530  0.49803  1.0000
  C   C2009     1.0  0.48697  0.68879  0.78271  1.0000
  H   H1608     1.0  0.19392  0.63962  0.52757  1.0000
  H   H1609     1.0  0.17435  0.63359  0.50556  1.0000
  C   C2010     1.0  0.07599  0.63121  0.53427  1.0000
  H   H1610     1.0  0.26990  0.61804  0.52828  1.0000
  C   C2011     1.0  0.22397  0.77613  0.67156  1.0000
  H   H1611     1.0  0.08434  0.62186  0.54437  1.0000
  H   H1612     1.0  0.09682  0.62439  0.50948  1.0000
  C   C2012     1.0  0.15791  0.74223  0.60370  1.0000
  H   H1613     1.0  0.34558  0.63868  0.63048  1.0000
  C   C2013     1.0  0.18334  0.71748  0.59161  1.0000
  C   C2014     1.0  0.17397  0.70333  0.60390  1.0000
  C   C2015     1.0  0.15644  0.70865  0.61581  1.0000
  C   C2016     1.0  0.14844  0.72804  0.61576  1.0000
  H   H1614     1.0  0.40243  0.67220  0.71670  1.0000
  C   C2017     1.0  0.99656  0.59559  0.51723  1.0000
  H   H1615     1.0  0.14905  0.69773  0.62515  1.0000
  H   H1616     1.0  0.13496  0.73199  0.62503  1.0000
  C   C2018     1.0  0.04367  0.73683  0.62218  1.0000
  C   C2019     1.0  0.03749  0.73155  0.60737  1.0000
  C   C2020     1.0  0.02673  0.71674  0.61104  1.0000
  C   C2021     1.0  0.02145  0.70732  0.62971  1.0000
  C   C2022     1.0  0.02669  0.71328  0.64475  1.0000
  C   C2023     1.0  0.03796  0.72782  0.64101  1.0000
  H   H1617     1.0  0.04133  0.73872  0.59287  1.0000
  H   H1618     1.0  0.02247  0.71261  0.59943  1.0000
  H   H1619     1.0  0.02242  0.70627  0.65932  1.0000
  H   H1620     1.0  0.04232  0.73193  0.65262  1.0000
  C   C2024     1.0  0.44155  0.70421  0.82364  1.0000
  C   C2025     1.0  0.44427  0.71707  0.83420  1.0000
  C   C2026     1.0  0.45710  0.71091  0.84725  1.0000
  C   C2027     1.0  0.46720  0.69200  0.84955  1.0000
  C   C2028     1.0  0.46398  0.67924  0.83931  1.0000
  C   C2029     1.0  0.45140  0.68537  0.82629  1.0000
  H   H1621     1.0  0.43637  0.73159  0.83248  1.0000
  H   H1622     1.0  0.45922  0.72075  0.85551  1.0000
  H   H1623     1.0  0.14144  0.62918  0.56993  1.0000
  H   H1624     1.0  0.44932  0.67546  0.81817  1.0000
  H   H1625     1.0  0.40410  0.66630  0.68418  1.0000
  C   C2030     1.0  0.36281  0.70154  0.73140  1.0000
  C   C2031     1.0  0.37542  0.71014  0.71611  1.0000
  C   C2032     1.0  0.38326  0.72571  0.71813  1.0000
  C   C2033     1.0  0.37879  0.73272  0.73547  1.0000
  C   C2034     1.0  0.36630  0.72402  0.75072  1.0000
  C   C2035     1.0  0.35832  0.70865  0.74863  1.0000
  H   H1626     1.0  0.37895  0.70498  0.70269  1.0000
  H   H1627     1.0  0.36233  0.72952  0.76396  1.0000
  H   H1628     1.0  0.34825  0.70247  0.76035  1.0000
  C   C2036     1.0  0.29379  0.65661  0.65033  1.0000
  C   C2037     1.0  0.27813  0.66614  0.64135  1.0000
  C   C2038     1.0  0.27154  0.65756  0.62895  1.0000
  C   C2039     1.0  0.28041  0.63920  0.62555  1.0000
  C   C2040     1.0  0.29636  0.62983  0.63420  1.0000
  C   C2041     1.0  0.30312  0.63853  0.64640  1.0000
  H   H1629     1.0  0.27081  0.68008  0.64430  1.0000
  H   H1630     1.0  0.25920  0.66491  0.62250  1.0000
  H   H1631     1.0  0.30332  0.61563  0.63172  1.0000
  H   H1632     1.0  0.31505  0.63092  0.65334  1.0000
  S   S299      1.0  0.34779  0.66085  0.49039  1.0000
  C   C2042     1.0  0.27306  0.63211  0.48023  1.0000
  H   H1633     1.0  0.45155  0.62876  0.86145  1.0000
  H   H1634     1.0  0.35265  0.72648  0.51402  1.0000
  C   C2043     1.0  0.40758  0.60768  0.63057  1.0000
  C   C2044     1.0  0.39919  0.61398  0.64793  1.0000
  C   C2045     1.0  0.39455  0.60057  0.66433  1.0000
  H   H1635     1.0  0.39411  0.74321  0.86324  1.0000
  H   H1636     1.0  0.44975  0.74902  0.80153  1.0000
  H   H1637     1.0  0.41123  0.61801  0.61784  1.0000
  H   H1638     1.0  0.38846  0.60522  0.67786  1.0000
  H   H1639     1.0  0.48787  0.77890  0.75718  1.0000
  C   C2046     1.0  0.32682  0.58215  0.61308  1.0000
  C   C2047     1.0  0.36597  0.67906  0.60872  1.0000
  C   C2048     1.0  0.01000  0.60009  0.55521  1.0000
  C   C2049     1.0  0.06827  0.59757  0.47705  1.0000
  C   C2050     1.0  0.34710  0.59810  0.76094  1.0000
  H   H1640     1.0  0.18270  0.74787  0.58221  1.0000
  H   H1641     1.0  0.20315  0.74657  0.72234  1.0000
  C   C2051     1.0  0.19253  0.74024  0.69932  1.0000
  H   H1642     1.0  0.33910  0.61238  0.75730  1.0000
  S   S300      1.0  0.14828  0.76668  0.60329  1.0000
  C   C2052     1.0  0.05033  0.73612  0.52656  1.0000
  C   C2053     1.0  0.46359  0.74910  0.79212  1.0000
  C   C2054     1.0  0.42462  0.64006  0.68767  1.0000
  H   H1643     1.0  0.26817  0.59335  0.59794  1.0000
  C   C2055     1.0  0.06325  0.76131  0.55762  1.0000
  C   C2056     1.0  0.39641  0.62861  0.51924  1.0000
  H   H1644     1.0  0.37382  0.61256  0.89300  1.0000
  C   C2057     1.0  0.39741  0.59605  0.73754  1.0000
  H   H1645     1.0  0.12041  0.61505  0.61222  1.0000
  H   H1646     1.0  0.38787  0.64063  0.49199  1.0000
  C   C2058     1.0  0.13222  0.61968  0.54771  1.0000
  C   C2059     1.0  0.12931  0.62455  0.52869  1.0000
  C   C2060     1.0  0.40204  0.66739  0.53846  1.0000
  C   C2061     1.0  0.40525  0.59519  0.75367  1.0000
  H   H1647     1.0  0.24923  0.59868  0.51904  1.0000
  C   C2062     1.0  0.25909  0.58314  0.59827  1.0000
  C   C2063     1.0  0.29607  0.66240  0.56818  1.0000
  H   H1648     1.0  0.39279  0.73242  0.70617  1.0000
  H   H1649     1.0  0.48215  0.68632  0.92947  1.0000
  H   H1650     1.0  0.07695  0.69026  0.50590  1.0000
  S   S301      1.0  0.11982  0.59870  0.48209  1.0000
  H   H1651     1.0  0.45762  0.59316  0.78398  1.0000
  C   C2064     1.0  0.07846  0.61925  0.59577  1.0000
  H   H1652     1.0  0.35630  0.60208  0.50167  1.0000
  H   H1653     1.0  0.48816  0.60582  0.77652  1.0000
  C   C2065     1.0  0.40633  0.58395  0.72441  1.0000
  C   C2066     1.0  0.15455  0.78128  0.72787  1.0000
  C   C2067     1.0  0.40626  0.65773  0.55629  1.0000
  H   H1654     1.0  0.05572  0.60505  0.61313  1.0000
  H   H1655     1.0  0.43807  0.60734  0.65583  1.0000
  C   C2068     1.0  0.13232  0.64236  0.51775  1.0000
  C   C2069     1.0  0.27544  0.61935  0.68430  1.0000
  H   H1656     1.0  0.31522  0.69633  0.63656  1.0000
  H   H1657     1.0  0.47313  0.71959  0.93592  1.0000
  H   H1658     1.0  0.28266  0.65235  0.52498  1.0000
  H   H1659     1.0  0.32598  0.68943  0.57507  1.0000
  C   C2070     1.0  0.26879  0.60383  0.68110  1.0000
  H   H1660     1.0  0.47099  0.66454  0.84152  1.0000
  C   C2071     1.0  0.05407  0.77002  0.54197  1.0000
  H   H1661     1.0  0.05371  0.61832  0.49462  1.0000
  H   H1662     1.0  0.31541  0.64091  0.50786  1.0000
  C   C2072     1.0  0.06961  0.70313  0.51150  1.0000
  C   C2073     1.0  0.01591  0.63981  0.48857  1.0000
  C   C2074     1.0  0.06951  0.60337  0.60358  1.0000
  C   C2075     1.0  0.42425  0.60280  0.49970  1.0000
  H   H1663     1.0  0.42110  0.65276  0.55813  1.0000
  H   H1664     1.0  0.26933  0.63386  0.67843  1.0000
  C   C2076     1.0  0.04738  0.65403  0.52790  1.0000
  H   H1665     1.0  0.25765  0.60640  0.67254  1.0000
  H   H1666     1.0  0.28271  0.66400  0.56317  1.0000
  C   C2077     1.0  0.99857  0.66289  0.51597  1.0000
  C   C2078     1.0  0.17538  0.73692  0.59163  1.0000
  C   C2079     1.0  0.07267  0.64515  0.50150  1.0000
  H   H1667     1.0  0.44380  0.63903  0.80306  1.0000
  C   C2080     1.0  0.35913  0.63210  0.60243  1.0000
  C   C2081     1.0  0.41186  0.61724  0.48980  1.0000
  H   H1668     1.0  0.16824  0.60053  0.55665  1.0000
  C   C2082     1.0  0.41187  0.65960  0.71216  1.0000
  H   H1669     1.0  0.42504  0.63749  0.67344  1.0000
  H   H1670     1.0  0.05515  0.59895  0.52855  1.0000
  H   H1671     1.0  0.99503  0.60233  0.55395  1.0000
  C   C2083     1.0  0.28095  0.60574  0.53152  1.0000
  C   C2084     1.0  0.47551  0.61450  0.77131  1.0000
  P   P69       1.0  0.01788  0.60564  0.51537  1.0000
  C   C2085     1.0  0.32052  0.67670  0.57496  1.0000
  H   H1672     1.0  0.35229  0.63070  0.91708  1.0000
  C   C2086     1.0  0.47642  0.63269  0.76022  1.0000
  C   C2087     1.0  0.17884  0.58436  0.58177  1.0000
  C   C2088     1.0  0.02444  0.60064  0.53880  1.0000
  H   H1673     1.0  0.00341  0.59721  0.58593  1.0000
  C   C2089     1.0  0.99098  0.74646  0.58879  1.0000
  C   C2090     1.0  0.46718  0.76567  0.77909  1.0000
  C   C2091     1.0  0.35688  0.65828  0.90051  1.0000
  H   H1674     1.0  0.47708  0.70182  0.77876  1.0000
  C   C2092     1.0  0.46005  0.64390  0.75359  1.0000
  C   C2093     1.0  0.44261  0.63697  0.75802  1.0000
  C   C2094     1.0  0.44200  0.61849  0.76878  1.0000
  P   P70       1.0  0.42178  0.65096  0.74846  1.0000
  C   C2095     1.0  0.39972  0.64514  0.76381  1.0000
  C   C2096     1.0  0.42238  0.67591  0.74723  1.0000
  C   C2097     1.0  0.43164  0.68650  0.73054  1.0000
  C   C2098     1.0  0.43255  0.70568  0.72979  1.0000
  C   C2099     1.0  0.41537  0.70389  0.76238  1.0000
  C   C2100     1.0  0.41439  0.68472  0.76320  1.0000
  C   C2101     1.0  0.38339  0.64578  0.75603  1.0000
  C   C2102     1.0  0.36664  0.64054  0.76782  1.0000
  C   C2103     1.0  0.36608  0.63448  0.78746  1.0000
  C   C2104     1.0  0.38215  0.63404  0.79540  1.0000
  C   C2105     1.0  0.39879  0.63962  0.78368  1.0000
  C   C2106     1.0  0.42279  0.64653  0.72474  1.0000
  H   H1675     1.0  0.40785  0.61358  0.54441  1.0000
  H   H1676     1.0  0.30011  0.63161  0.57459  1.0000
  S   S302      1.0  0.48406  0.68435  0.86489  1.0000
  H   H1677     1.0  0.46111  0.65791  0.74494  1.0000
  H   H1678     1.0  0.42890  0.61265  0.77203  1.0000
  H   H1679     1.0  0.43820  0.68002  0.71810  1.0000
  C   C2107     1.0  0.25663  0.62353  0.48508  1.0000
  H   H1680     1.0  0.40741  0.67688  0.77627  1.0000
  H   H1681     1.0  0.38335  0.65032  0.74090  1.0000
  H   H1682     1.0  0.35410  0.64126  0.76161  1.0000
  H   H1683     1.0  0.35313  0.63029  0.79654  1.0000
  H   H1684     1.0  0.38166  0.62943  0.81066  1.0000
  H   H1685     1.0  0.41101  0.63933  0.79011  1.0000
  C   C2108     1.0  0.00058  0.76184  0.58615  1.0000
  C   C2109     1.0  0.02629  0.77350  0.51652  1.0000
  C   C2110     1.0  0.01142  0.65969  0.48301  1.0000
  C   C2111     1.0  0.32317  0.64214  0.58113  1.0000
  H   H1686     1.0  0.09456  0.70749  0.52050  1.0000
  C   C2112     1.0  0.42448  0.71433  0.74573  1.0000
  C   C2113     1.0  0.19379  0.58773  0.52208  1.0000
  H   H1687     1.0  0.48533  0.73321  0.83083  1.0000
  C   C2114     1.0  0.35014  0.72797  0.48476  1.0000
  H   H1688     1.0  0.07805  0.73645  0.53341  1.0000
  C   C2115     1.0  0.31125  0.58567  0.52168  1.0000
  H   H1689     1.0  0.14157  0.66884  0.51684  1.0000
  C   C2116     1.0  0.35238  0.58595  0.74745  1.0000
  H   H1690     1.0  0.42493  0.72928  0.74505  1.0000
  C   C2117     1.0  0.33061  0.65841  0.58136  1.0000
  C   C2118     1.0  0.41283  0.65636  0.69371  1.0000
  H   H1691     1.0  0.40892  0.71079  0.77459  1.0000
  C   C2119     1.0  0.39135  0.65438  0.57176  1.0000
  C   C2120     1.0  0.05020  0.70997  0.51055  1.0000
  H   H1692     1.0  0.48827  0.64056  0.79319  1.0000
  S   S303      1.0  0.99220  0.65193  0.57119  1.0000
  H   H1693     1.0  0.41361  0.66981  0.52644  1.0000
  C   C2121     1.0  0.33277  0.58392  0.59328  1.0000
  C   C2122     1.0  0.34665  0.73504  0.50182  1.0000
  H   H1694     1.0  0.15289  0.76686  0.72764  1.0000
  C   C2123     1.0  0.37442  0.59895  0.60221  1.0000
  C   C2124     1.0  0.35350  0.62771  0.62237  1.0000
  C   C2125     1.0  0.42247  0.58274  0.75632  1.0000
  H   H1695     1.0  0.10213  0.63003  0.57650  1.0000
  P   P71       1.0  0.35292  0.65613  0.58970  1.0000
  S   S304      1.0  0.40223  0.76611  0.81462  1.0000
  H   H1696     1.0  0.06179  0.74686  0.56481  1.0000
  H   H1697     1.0  0.19680  0.75260  0.68929  1.0000
  C   C2126     1.0  0.16950  0.75756  0.66262  1.0000
  H   H1698     1.0  0.99733  0.77089  0.59689  1.0000
  H   H1699     1.0  0.14778  0.66009  0.55018  1.0000
  H   H1700     1.0  0.22705  0.62600  0.49961  1.0000
  C   C2127     1.0  0.17107  0.76630  0.64329  1.0000
  C   C2128     1.0  0.12760  0.71548  0.67241  1.0000
  C   C2129     1.0  0.13337  0.69685  0.66857  1.0000
  C   C2130     1.0  0.15294  0.68909  0.66475  1.0000
  C   C2131     1.0  0.16674  0.69992  0.66475  1.0000
  C   C2132     1.0  0.16107  0.71880  0.66822  1.0000
  C   C2133     1.0  0.14137  0.72644  0.67222  1.0000
  P   P72       1.0  0.17888  0.73235  0.66938  1.0000
  C   C2134     1.0  0.18348  0.72772  0.69356  1.0000
  C   C2135     1.0  0.20084  0.72527  0.65312  1.0000
  C   C2136     1.0  0.21890  0.72204  0.65868  1.0000
  C   C2137     1.0  0.23564  0.71515  0.64658  1.0000
  C   C2138     1.0  0.23451  0.71139  0.62886  1.0000
  C   C2139     1.0  0.21667  0.71471  0.62315  1.0000
  C   C2140     1.0  0.19992  0.72170  0.63516  1.0000
  C   C2141     1.0  0.40927  0.61489  0.52907  1.0000
  C   C2142     1.0  0.23996  0.63225  0.49608  1.0000
  H   H1701     1.0  0.34704  0.60065  0.78998  1.0000
  C   C2143     1.0  0.18179  0.70833  0.72541  1.0000
  C   C2144     1.0  0.17818  0.71168  0.70674  1.0000
  C   C2145     1.0  0.37176  0.62806  0.89041  1.0000
  C   C2146     1.0  0.99535  0.73465  0.57511  1.0000
  C   C2147     1.0  0.33165  0.67903  0.61598  1.0000
  C   C2148     1.0  0.19075  0.72091  0.73104  1.0000
  H   H1702     1.0  0.02240  0.63113  0.47769  1.0000
  C   C2149     1.0  0.48903  0.69762  0.92006  1.0000
  H   H1703     1.0  0.11244  0.72153  0.67552  1.0000
  H   H1704     1.0  0.12272  0.68841  0.66853  1.0000
  H   H1705     1.0  0.15746  0.67473  0.66154  1.0000
  H   H1706     1.0  0.18183  0.69353  0.66194  1.0000
  H   H1707     1.0  0.13653  0.74086  0.67521  1.0000
  H   H1708     1.0  0.22019  0.72435  0.67248  1.0000
  H   H1709     1.0  0.24948  0.71232  0.65109  1.0000
  H   H1710     1.0  0.24742  0.70565  0.61965  1.0000
  H   H1711     1.0  0.21577  0.71151  0.60954  1.0000
  H   H1712     1.0  0.18619  0.72381  0.63062  1.0000
  C   C2150     1.0  0.44953  0.63244  0.83178  1.0000
  H   H1713     1.0  0.01281  0.72815  0.54895  1.0000
  H   H1714     1.0  0.04863  0.76447  0.49348  1.0000
  H   H1715     1.0  0.17768  0.69592  0.73552  1.0000
  H   H1716     1.0  0.17127  0.70172  0.70269  1.0000
  H   H1717     1.0  0.04258  0.70242  0.50412  1.0000
  C   C2151     1.0  0.09584  0.61742  0.58281  1.0000
  C   C2152     1.0  0.04373  0.59806  0.54089  1.0000
  C   C2153     1.0  0.01471  0.76525  0.56996  1.0000
  H   H1718     1.0  0.39488  0.64677  0.58547  1.0000
  C   C2154     1.0  0.19613  0.73687  0.71799  1.0000
  C   C2155     1.0  0.34530  0.69821  0.63114  1.0000
  C   C2156     1.0  0.32934  0.69183  0.62847  1.0000
  H   H1719     1.0  0.31085  0.59527  0.70893  1.0000
  H   H1720     1.0  0.43927  0.71398  0.71680  1.0000
  H   H1721     1.0  0.38387  0.60544  0.73571  1.0000
  H   H1722     1.0  0.38493  0.63780  0.52693  1.0000
  H   H1723     1.0  0.29621  0.62823  0.69616  1.0000
  C   C2157     1.0  0.34995  0.67284  0.60568  1.0000
  H   H1724     1.0  0.12503  0.61455  0.52208  1.0000
  H   H1725     1.0  0.19680  0.71346  0.58228  1.0000
  H   H1726     1.0  0.23492  0.76357  0.67420  1.0000
  C   C2158     1.0  0.05804  0.64170  0.54097  1.0000
  C   C2159     1.0  0.30333  0.67865  0.56834  1.0000
  H   H1727     1.0  0.26623  0.59754  0.55995  1.0000
  C   C2160     1.0  0.01212  0.63133  0.50797  1.0000
  Fe  Fe151     1.0  0.11840  0.77480  0.62001  1.0000
  C   C2161     1.0  0.44293  0.63557  0.85054  1.0000
  H   H1728     1.0  0.35329  0.67492  0.54911  1.0000
  C   C2162     1.0  0.37204  0.66062  0.56952  1.0000
  C   C2163     1.0  0.31133  0.65561  0.50995  1.0000
  C   C2164     1.0  0.15944  0.76837  0.67672  1.0000
  H   H1729     1.0  0.33226  0.75830  0.51659  1.0000
  C   C2165     1.0  0.48392  0.71638  0.92362  1.0000
  C   C2166     1.0  0.01470  0.59714  0.57338  1.0000
  C   C2167     1.0  0.06994  0.72923  0.52727  1.0000
  H   H1730     1.0  0.37362  0.62043  0.57696  1.0000
  S   S305      1.0  0.47895  0.59233  0.86268  1.0000
  C   C2168     1.0  0.35817  0.60898  0.63207  1.0000
  C   C2169     1.0  0.30597  0.64417  0.57450  1.0000
  C   C2170     1.0  0.36293  0.58918  0.51004  1.0000
  C   C2171     1.0  0.35161  0.59146  0.77940  1.0000
  H   H1731     1.0  0.41627  0.58334  0.61598  1.0000
  H   H1732     1.0  0.15505  0.61337  0.61245  1.0000
  C   C2172     1.0  0.08317  0.63274  0.51460  1.0000
  C   C2173     1.0  0.32695  0.76374  0.48770  1.0000
  H   H1733     1.0  0.12999  0.64595  0.50308  1.0000
  H   H1734     1.0  0.42633  0.59341  0.68909  1.0000
  C   C2174     1.0  0.29874  0.59746  0.70167  1.0000
  C   C2175     1.0  0.27684  0.58510  0.68850  1.0000
  H   H1735     1.0  0.39927  0.58394  0.71270  1.0000
  C   C2176     1.0  0.03507  0.77379  0.49728  1.0000
  H   H1736     1.0  0.15694  0.76179  0.69165  1.0000
  C   C2177     1.0  0.24006  0.58612  0.60783  1.0000
  H   H1737     1.0  0.38275  0.58789  0.59441  1.0000
  C   C2178     1.0  0.36946  0.59038  0.52642  1.0000
  H   H1738     1.0  0.33040  0.62787  0.58619  1.0000
  C   C2179     1.0  0.36863  0.59464  0.62201  1.0000
  C   C2180     1.0  0.07950  0.71283  0.51975  1.0000
  C   C2181     1.0  0.05474  0.65579  0.50816  1.0000
  C   C2182     1.0  0.41046  0.58806  0.62951  1.0000
  C   C2183     1.0  0.48505  0.76588  0.76702  1.0000
  H   H1739     1.0  0.31916  0.67369  0.61476  1.0000
  H   H1740     1.0  0.02574  0.73183  0.51645  1.0000
  Fe  Fe152     1.0  0.37359  0.76951  0.80566  1.0000
  C   C2184     1.0  0.36362  0.69169  0.62140  1.0000
  C   C2185     1.0  0.35963  0.63827  0.90395  1.0000
  H   H1741     1.0  0.29555  0.69271  0.56330  1.0000
  C   C2186     1.0  0.27301  0.64882  0.48683  1.0000
  C   C2187     1.0  0.48077  0.67126  0.78551  1.0000
  C   C2188     1.0  0.00319  0.64302  0.52156  1.0000
  H   H1742     1.0  0.29571  0.58616  0.48230  1.0000
  C   C2189     1.0  0.38289  0.67365  0.53608  1.0000
  H   H1743     1.0  0.38034  0.67389  0.60172  1.0000
  C   C2190     1.0  0.04066  0.72650  0.51781  1.0000
  C   C2191     1.0  0.13885  0.65523  0.52552  1.0000
  C   C2192     1.0  0.43854  0.64130  0.81765  1.0000
  H   H1744     1.0  0.23480  0.59831  0.61504  1.0000
  H   H1745     1.0  0.34351  0.70770  0.64125  1.0000
  H   H1746     1.0  0.25650  0.67006  0.50342  1.0000
  C   C2193     1.0  0.14231  0.65031  0.54428  1.0000
  C   C2194     1.0  0.33510  0.75294  0.50328  1.0000
  C   C2195     1.0  0.39794  0.63002  0.49955  1.0000
  P   P73       1.0  0.44054  0.58488  0.48736  1.0000
  C   C2196     1.0  0.00967  0.73779  0.55903  1.0000
  C   C2197     1.0  0.36794  0.67026  0.55150  1.0000
  H   H1747     1.0  0.33456  0.58720  0.62154  1.0000
  P   P74       1.0  0.12775  0.59685  0.56209  1.0000
  H   H1748     1.0  0.44491  0.61454  0.69536  1.0000
  H   H1749     1.0  0.07136  0.63321  0.59904  1.0000
  H   H1750     1.0  0.42032  0.64940  0.86995  1.0000
  C   C2198     1.0  0.43456  0.63014  0.71859  1.0000
  C   C2199     1.0  0.36944  0.61753  0.59238  1.0000
  C   C2200     1.0  0.43560  0.62705  0.70007  1.0000
  C   C2201     1.0  0.07401  0.77134  0.56445  1.0000
  C   C2202     1.0  0.03391  0.59463  0.57532  1.0000
  P   P75       1.0  0.03780  0.75789  0.53529  1.0000
  H   H1751     1.0  0.22719  0.65521  0.51175  1.0000
  S   S306      1.0  0.34654  0.77579  0.82738  1.0000
  C   C2203     1.0  0.14610  0.58713  0.57672  1.0000
  C   C2204     1.0  0.10464  0.59957  0.57785  1.0000
  H   H1752     1.0  0.29851  0.61070  0.50379  1.0000
  C   C2205     1.0  0.20485  0.59107  0.53418  1.0000
  C   C2206     1.0  0.08693  0.70108  0.65098  1.0000
  C   C2207     1.0  0.07071  0.69238  0.65792  1.0000
  C   C2208     1.0  0.06522  0.68185  0.64670  1.0000
  C   C2209     1.0  0.07571  0.68031  0.62841  1.0000
  C   C2210     1.0  0.09195  0.68915  0.62126  1.0000
  C   C2211     1.0  0.09783  0.69907  0.63291  1.0000
  P   P76       1.0  0.10615  0.68583  0.59821  1.0000
  C   C2212     1.0  0.09036  0.68554  0.58228  1.0000
  C   C2213     1.0  0.11843  0.70568  0.58683  1.0000
  C   C2214     1.0  0.13567  0.70292  0.57363  1.0000
  C   C2215     1.0  0.14524  0.71827  0.56500  1.0000
  C   C2216     1.0  0.13738  0.73658  0.56904  1.0000
  C   C2217     1.0  0.11983  0.73960  0.58150  1.0000
  C   C2218     1.0  0.11022  0.72429  0.59019  1.0000
  C   C2219     1.0  0.07292  0.69849  0.58247  1.0000
  C   C2220     1.0  0.06015  0.69778  0.57082  1.0000
  C   C2221     1.0  0.06480  0.68417  0.55885  1.0000
  C   C2222     1.0  0.08260  0.67188  0.55788  1.0000
  C   C2223     1.0  0.09541  0.67267  0.56944  1.0000
  C   C2224     1.0  0.12181  0.66293  0.60259  1.0000
  C   C2225     1.0  0.11432  0.64594  0.60613  1.0000
  C   C2226     1.0  0.12626  0.62811  0.60965  1.0000
  C   C2227     1.0  0.14573  0.62714  0.60989  1.0000
  C   C2228     1.0  0.15311  0.64401  0.60710  1.0000
  C   C2229     1.0  0.14112  0.66182  0.60378  1.0000
  H   H1753     1.0  0.09089  0.70960  0.65950  1.0000
  H   H1754     1.0  0.06211  0.69414  0.67181  1.0000
  H   H1755     1.0  0.05239  0.67543  0.65190  1.0000
  H   H1756     1.0  0.07097  0.67237  0.61985  1.0000
  H   H1757     1.0  0.11064  0.70550  0.62797  1.0000
  H   H1758     1.0  0.14192  0.68890  0.57016  1.0000
  H   H1759     1.0  0.15897  0.71591  0.55549  1.0000
  H   H1760     1.0  0.14506  0.74839  0.56285  1.0000
  H   H1761     1.0  0.11396  0.75376  0.58479  1.0000
  H   H1762     1.0  0.09651  0.72706  0.59967  1.0000
  H   H1763     1.0  0.06911  0.70887  0.59191  1.0000
  H   H1764     1.0  0.04653  0.70756  0.57127  1.0000
  H   H1765     1.0  0.05465  0.68315  0.55029  1.0000
  H   H1766     1.0  0.08627  0.66152  0.54839  1.0000
  H   H1767     1.0  0.10908  0.66309  0.56853  1.0000
  H   H1768     1.0  0.09921  0.64651  0.60624  1.0000
  C   C2230     1.0  0.13880  0.63271  0.55541  1.0000
  H   H1769     1.0  0.43286  0.59144  0.52734  1.0000
  H   H1770     1.0  0.16812  0.64337  0.60768  1.0000
  H   H1771     1.0  0.14694  0.67468  0.60236  1.0000
  C   C2231     1.0  0.40683  0.71327  0.86595  1.0000
  C   C2232     1.0  0.39348  0.72939  0.86028  1.0000
  C   C2233     1.0  0.37938  0.72774  0.85063  1.0000
  C   C2234     1.0  0.37866  0.70999  0.84656  1.0000
  C   C2235     1.0  0.39243  0.69378  0.85164  1.0000
  C   C2236     1.0  0.40641  0.69556  0.86155  1.0000
  P   P77       1.0  0.39050  0.67050  0.84785  1.0000
  C   C2237     1.0  0.37862  0.65794  0.86996  1.0000
  C   C2238     1.0  0.37632  0.67353  0.82942  1.0000
  C   C2239     1.0  0.38048  0.68612  0.81209  1.0000
  C   C2240     1.0  0.36946  0.68874  0.79786  1.0000
  C   C2241     1.0  0.35411  0.67898  0.80084  1.0000
  C   C2242     1.0  0.34970  0.66661  0.81813  1.0000
  C   C2243     1.0  0.36079  0.66380  0.83236  1.0000
  C   C2244     1.0  0.36628  0.66811  0.88356  1.0000
  C   C2245     1.0  0.29056  0.61616  0.69439  1.0000
  H   H1772     1.0  0.39042  0.62973  0.86300  1.0000
  C   C2246     1.0  0.27898  0.59403  0.54954  1.0000
  C   C2247     1.0  0.38120  0.63784  0.87345  1.0000
  C   C2248     1.0  0.41405  0.65641  0.84118  1.0000
  C   C2249     1.0  0.42093  0.65334  0.82228  1.0000
  H   H1773     1.0  0.37958  0.68079  0.52217  1.0000
  H   H1774     1.0  0.17784  0.75820  0.63202  1.0000
  H   H1775     1.0  0.19359  0.71824  0.74550  1.0000
  C   C2250     1.0  0.42526  0.64742  0.85525  1.0000
  H   H1776     1.0  0.41789  0.71456  0.87330  1.0000
  H   H1777     1.0  0.34739  0.66621  0.91096  1.0000
  H   H1778     1.0  0.36897  0.74025  0.84624  1.0000
  H   H1779     1.0  0.36728  0.70910  0.83946  1.0000
  H   H1780     1.0  0.41717  0.68342  0.86574  1.0000
  H   H1781     1.0  0.39220  0.69399  0.80962  1.0000
  H   H1782     1.0  0.37283  0.69844  0.78453  1.0000
  H   H1783     1.0  0.34564  0.68095  0.78974  1.0000
  H   H1784     1.0  0.33770  0.65914  0.82043  1.0000
  H   H1785     1.0  0.35708  0.65414  0.84559  1.0000
  H   H1786     1.0  0.36382  0.68362  0.88110  1.0000
  H   H1787     1.0  0.48187  0.77226  0.88223  1.0000
  H   H1788     1.0  0.45618  0.77842  0.77844  1.0000
  H   H1789     1.0  0.37608  0.69606  0.62405  1.0000
  H   H1790     1.0  0.46616  0.67107  0.78421  1.0000
  H   H1791     1.0  0.41292  0.66032  0.81104  1.0000
  C   C2251     1.0  0.42329  0.60214  0.51932  1.0000
  H   H1792     1.0  0.39761  0.60367  0.76443  1.0000
  H   H1793     1.0  0.03355  0.66221  0.53300  1.0000
  S   S307      1.0  0.16882  0.59657  0.49730  1.0000
  C   C2252     1.0  0.01969  0.75301  0.55639  1.0000
  H   H1794     1.0  0.32373  0.58254  0.51083  1.0000
  C   C2253     1.0  0.03745  0.59558  0.49826  1.0000
  C   C2254     1.0  0.00279  0.67123  0.49671  1.0000
  H   H1795     1.0  0.28586  0.65520  0.48321  1.0000
  C   C2255     1.0  0.04841  0.59495  0.55912  1.0000
  H   H1796     1.0  0.28420  0.70606  0.48035  1.0000
  C   C2256     1.0  0.05319  0.60502  0.49049  1.0000
  P   P78       1.0  0.25628  0.60192  0.47681  1.0000
  H   H1797     1.0  0.02193  0.77727  0.56830  1.0000
  H   H1798     1.0  0.99938  0.68664  0.49243  1.0000
  H   H1799     1.0  0.22302  0.77190  0.64337  1.0000
  H   H1800     1.0  0.35866  0.71381  0.48410  1.0000
  H   H1801     1.0  0.48858  0.74537  0.91441  1.0000
  H   H1802     1.0  0.03746  0.59299  0.58934  1.0000
  H   H1803     1.0  0.31772  0.77746  0.48898  1.0000
  H   H1804     1.0  0.08056  0.76469  0.57687  1.0000
  H   H1805     1.0  0.19310  0.58800  0.57681  1.0000
  H   H1806     1.0  0.17993  0.78054  0.70635  1.0000
  H   H1807     1.0  0.99184  0.67182  0.52664  1.0000
  C   C2257     1.0  0.25201  0.58454  0.51555  1.0000
  C   C2258     1.0  0.44316  0.59238  0.66121  1.0000
  C   C2259     1.0  0.16468  0.59154  0.57040  1.0000
  C   C2260     1.0  0.43654  0.58439  0.68018  1.0000
  S   S308      1.0  0.08160  0.64740  0.47678  1.0000
  H   H1808     1.0  0.46012  0.58705  0.63409  1.0000
  H   H1809     1.0  0.34549  0.58999  0.58628  1.0000
  H   H1810     1.0  0.09782  0.58868  0.54491  1.0000
  H   H1811     1.0  0.06319  0.59373  0.56065  1.0000
  C   C2261     1.0  0.21731  0.78082  0.65419  1.0000
  C   C2262     1.0  0.25508  0.58191  0.49651  1.0000
  C   C2263     1.0  0.09551  0.58365  0.58573  1.0000
  C   C2264     1.0  0.29153  0.58180  0.69931  1.0000
  H   H1812     1.0  0.48985  0.63811  0.75667  1.0000
  H   H1813     1.0  0.13510  0.95756  0.98924  1.0000
  H   H1814     1.0  0.46692  0.80595  0.44993  1.0000
  C   C2265     1.0  0.16722  0.96538  0.17609  1.0000
  C   C2266     1.0  0.48623  0.81176  0.24749  1.0000
  C   C2267     1.0  0.31860  0.84027  0.07832  1.0000
  S   S309      1.0  0.46285  0.83330  0.39516  1.0000
  C   C2268     1.0  0.25642  0.90532  0.98777  1.0000
  H   H1815     1.0  0.45358  0.83343  0.35704  1.0000
  S   S310      1.0  0.39530  0.82682  0.28261  1.0000
  H   H1816     1.0  0.45824  0.90988  0.37410  1.0000
  C   C2269     1.0  0.46702  0.95599  0.41244  1.0000
  H   H1817     1.0  0.29235  0.85007  0.09676  1.0000
  C   C2270     1.0  0.38249  0.90309  0.39901  1.0000
  H   H1818     1.0  0.30042  0.94503  0.11897  1.0000
  H   H1819     1.0  0.99447  0.94161  0.00359  1.0000
  S   S311      1.0  0.00893  0.89996  0.01006  1.0000
  P   P79       1.0  0.06683  0.80501  0.02037  1.0000
  Fe  Fe153     1.0  0.32993  0.94340  0.21424  1.0000
  S   S312      1.0  0.35517  0.91958  0.21663  1.0000
  H   H1820     1.0  0.37516  0.84651  0.98326  1.0000
  Fe  Fe154     1.0  0.31714  0.92756  0.18319  1.0000
  S   S313      1.0  0.34202  0.90307  0.18330  1.0000
  S   S314      1.0  0.29476  0.93250  0.16370  1.0000
  Fe  Fe155     1.0  0.33523  0.90029  0.21528  1.0000
  S   S315      1.0  0.33161  0.87151  0.23367  1.0000
  Fe  Fe156     1.0  0.35962  0.92469  0.18449  1.0000
  S   S316      1.0  0.39043  0.92274  0.16920  1.0000
  S   S317      1.0  0.30925  0.92371  0.21528  1.0000
  S   S318      1.0  0.33544  0.94974  0.18189  1.0000
  P   P80       1.0  0.45019  0.97446  0.40060  1.0000
  S   S319      1.0  0.40417  0.95593  0.35235  1.0000
  Fe  Fe157     1.0  0.33396  0.95918  0.97858  1.0000
  S   S320      1.0  0.34431  0.88783  0.00453  1.0000
  Fe  Fe158     1.0  0.25555  0.85368  0.07468  1.0000
  S   S321      1.0  0.25480  0.88193  0.08256  1.0000
  S   S322      1.0  0.27960  0.84121  0.05315  1.0000
  Fe  Fe159     1.0  0.21927  0.84520  0.10361  1.0000
  S   S323      1.0  0.21623  0.87298  0.11417  1.0000
  S   S324      1.0  0.19729  0.82552  0.11861  1.0000
  Fe  Fe160     1.0  0.22303  0.88555  0.08290  1.0000
  S   S325      1.0  0.20786  0.91422  0.06977  1.0000
  Fe  Fe161     1.0  0.24839  0.86693  0.11295  1.0000
  S   S326      1.0  0.26583  0.86745  0.13565  1.0000
  S   S327      1.0  0.22425  0.85844  0.07240  1.0000
  S   S328      1.0  0.25094  0.83798  0.10504  1.0000
  Fe  Fe162     1.0  0.11662  0.88784  0.00180  1.0000
  S   S329      1.0  0.12020  0.91858  0.99339  1.0000
  S   S330      1.0  0.09440  0.87683  0.02600  1.0000
  Fe  Fe163     1.0  0.15192  0.90677  0.98955  1.0000
  S   S331      1.0  0.17228  0.92346  0.99534  1.0000
  S   S332      1.0  0.14816  0.87629  0.00084  1.0000
  C   C2271     1.0  0.19821  0.91552  0.04917  1.0000
  C   C2272     1.0  0.19182  0.89997  0.04546  1.0000
  C   C2273     1.0  0.18354  0.90204  0.02908  1.0000
  C   C2274     1.0  0.18213  0.91955  0.01626  1.0000
  C   C2275     1.0  0.18886  0.93484  0.01991  1.0000
  C   C2276     1.0  0.19653  0.93294  0.03642  1.0000
  H   H1821     1.0  0.19296  0.88652  0.05534  1.0000
  H   H1822     1.0  0.17839  0.89016  0.02633  1.0000
  H   H1823     1.0  0.18796  0.94832  0.00999  1.0000
  H   H1824     1.0  0.20145  0.94497  0.03916  1.0000
  C   C2277     1.0  0.32532  0.87586  0.01727  1.0000
  C   C2278     1.0  0.30748  0.88562  0.02533  1.0000
  C   C2279     1.0  0.29334  0.87522  0.03672  1.0000
  C   C2280     1.0  0.29680  0.85513  0.03951  1.0000
  C   C2281     1.0  0.31454  0.84557  0.03119  1.0000
  C   C2282     1.0  0.32880  0.85583  0.02041  1.0000
  H   H1825     1.0  0.30477  0.90109  0.02316  1.0000
  H   H1826     1.0  0.27978  0.88273  0.04323  1.0000
  H   H1827     1.0  0.31741  0.83009  0.03345  1.0000
  H   H1828     1.0  0.34260  0.84820  0.01445  1.0000
  C   C2283     1.0  0.27467  0.88588  0.14207  1.0000
  C   C2284     1.0  0.26847  0.90537  0.13552  1.0000
  C   C2285     1.0  0.27444  0.91940  0.14255  1.0000
  C   C2286     1.0  0.28737  0.91421  0.15553  1.0000
  C   C2287     1.0  0.29385  0.89474  0.16179  1.0000
  C   C2288     1.0  0.28740  0.88071  0.15524  1.0000
  H   H1829     1.0  0.25858  0.90961  0.12556  1.0000
  H   H1830     1.0  0.26897  0.93437  0.13789  1.0000
  H   H1831     1.0  0.30356  0.89046  0.17197  1.0000
  H   H1832     1.0  0.29219  0.86570  0.16055  1.0000
  H   H1833     1.0  0.08692  0.79143  0.98449  1.0000
  H   H1834     1.0  0.48117  0.95433  0.37396  1.0000
  C   C2289     1.0  0.47732  0.96012  0.42491  1.0000
  C   C2290     1.0  0.26372  0.83368  0.01107  1.0000
  H   H1835     1.0  0.29062  0.78320  0.38777  1.0000
  H   H1836     1.0  0.08204  0.86695  0.98247  1.0000
  C   C2291     1.0  0.44888  0.85366  0.29369  1.0000
  C   C2292     1.0  0.35063  0.96832  0.09862  1.0000
  H   H1837     1.0  0.25268  0.93478  0.99072  1.0000
  H   H1838     1.0  0.03193  0.83317  0.02745  1.0000
  S   S333      1.0  0.41617  0.79014  0.31981  1.0000
  C   C2293     1.0  0.41959  0.94117  0.14964  1.0000
  H   H1839     1.0  0.42875  0.92872  0.15608  1.0000
  H   H1840     1.0  0.44335  0.95493  0.13420  1.0000
  C   C2294     1.0  0.45279  0.82104  0.31098  1.0000
  C   C2295     1.0  0.36419  0.97518  0.01042  1.0000
  C   C2296     1.0  0.20903  0.78611  0.16031  1.0000
  C   C2297     1.0  0.03286  0.89243  0.01395  1.0000
  C   C2298     1.0  0.03730  0.87883  0.02992  1.0000
  C   C2299     1.0  0.05626  0.87395  0.03340  1.0000
  C   C2300     1.0  0.07091  0.88257  0.02090  1.0000
  C   C2301     1.0  0.06662  0.89577  0.00463  1.0000
  C   C2302     1.0  0.04768  0.90049  0.00105  1.0000
  H   H1841     1.0  0.02620  0.87192  0.03952  1.0000
  H   H1842     1.0  0.05957  0.86349  0.04581  1.0000
  C   C2303     1.0  0.18405  0.81298  0.10891  1.0000
  S   S334      1.0  0.31250  0.93905  0.98953  1.0000
  C   C2304     1.0  0.25091  0.88261  0.01726  1.0000
  H   H1843     1.0  0.39349  0.87472  0.12484  1.0000
  H   H1844     1.0  0.40846  0.80022  0.40838  1.0000
  C   C2305     1.0  0.18729  0.81221  0.08941  1.0000
  H   H1845     1.0  0.99575  0.92632  0.06232  1.0000
  H   H1846     1.0  0.04852  0.86716  0.08786  1.0000
  H   H1847     1.0  0.19832  0.81923  0.07969  1.0000
  C   C2306     1.0  0.03796  0.81303  0.10656  1.0000
  H   H1848     1.0  0.18367  0.90075  0.16321  1.0000
  C   C2307     1.0  0.01796  0.80392  0.08845  1.0000
  C   C2308     1.0  0.00627  0.82207  0.08778  1.0000
  C   C2309     1.0  0.01086  0.83586  0.09593  1.0000
  C   C2310     1.0  0.02645  0.83123  0.10561  1.0000
  C   C2311     1.0  0.29311  0.84102  0.98999  1.0000
  H   H1849     1.0  0.30086  0.85027  0.97868  1.0000
  H   H1850     1.0  0.02956  0.84176  0.11243  1.0000
  C   C2312     1.0  0.37714  0.83917  0.26959  1.0000
  C   C2313     1.0  0.36096  0.83138  0.27004  1.0000
  C   C2314     1.0  0.34714  0.84136  0.25881  1.0000
  C   C2315     1.0  0.34945  0.85913  0.24714  1.0000
  C   C2316     1.0  0.36558  0.86697  0.24685  1.0000
  C   C2317     1.0  0.37929  0.85707  0.25817  1.0000
  H   H1851     1.0  0.35917  0.81760  0.27885  1.0000
  H   H1852     1.0  0.33462  0.83529  0.25914  1.0000
  H   H1853     1.0  0.36734  0.88071  0.23807  1.0000
  H   H1854     1.0  0.39148  0.86339  0.25821  1.0000
  C   C2318     1.0  0.38223  0.91931  0.38444  1.0000
  C   C2319     1.0  0.23898  0.93660  0.08783  1.0000
  C   C2320     1.0  0.44204  0.95145  0.33420  1.0000
  C   C2321     1.0  0.42859  0.94539  0.35008  1.0000
  C   C2322     1.0  0.43450  0.93030  0.36437  1.0000
  Fe  Fe164     1.0  0.33800  0.91586  0.98440  1.0000
  H   H1855     1.0  0.30210  0.79966  0.02171  1.0000
  H   H1856     1.0  0.43756  0.96313  0.32315  1.0000
  C   C2323     1.0  0.36732  0.90279  0.41479  1.0000
  C   C2324     1.0  0.42026  0.90219  0.41638  1.0000
  C   C2325     1.0  0.44527  0.82451  0.38741  1.0000
  C   C2326     1.0  0.43237  0.81516  0.40167  1.0000
  C   C2327     1.0  0.28915  0.94178  0.09495  1.0000
  C   C2328     1.0  0.41652  0.80887  0.37798  1.0000
  C   C2329     1.0  0.42928  0.81837  0.36346  1.0000
  C   C2330     1.0  0.44373  0.82616  0.36816  1.0000
  H   H1857     1.0  0.33975  0.94606  0.40153  1.0000
  H   H1858     1.0  0.16450  0.88038  0.15492  1.0000
  H   H1859     1.0  0.42768  0.81998  0.34877  1.0000
  H   H1860     1.0  0.44530  0.78492  0.44675  1.0000
  H   H1861     1.0  0.31324  0.82842  0.07567  1.0000
  C   C2331     1.0  0.36640  0.91102  0.03330  1.0000
  C   C2332     1.0  0.35546  0.90101  0.04903  1.0000
  C   C2333     1.0  0.35613  0.90278  0.06772  1.0000
  C   C2334     1.0  0.36700  0.91564  0.07026  1.0000
  P   P81       1.0  0.34010  0.89213  0.08799  1.0000
  C   C2335     1.0  0.33182  0.87179  0.08412  1.0000
  C   C2336     1.0  0.35054  0.88411  0.10939  1.0000
  C   C2337     1.0  0.37050  0.88151  0.10858  1.0000
  C   C2338     1.0  0.36594  0.87333  0.14318  1.0000
  C   C2339     1.0  0.34616  0.87511  0.14402  1.0000
  C   C2340     1.0  0.33850  0.88033  0.12720  1.0000
  C   C2341     1.0  0.34389  0.85904  0.07280  1.0000
  C   C2342     1.0  0.33718  0.84346  0.06974  1.0000
  C   C2343     1.0  0.31981  0.91108  0.09131  1.0000
  C   C2344     1.0  0.30669  0.91585  0.07865  1.0000
  C   C2345     1.0  0.03397  0.79946  0.09764  1.0000
  H   H1862     1.0  0.04299  0.78545  0.09813  1.0000
  H   H1863     1.0  0.06195  0.89295  0.06376  1.0000
  C   C2346     1.0  0.31763  0.92195  0.10561  1.0000
  H   H1864     1.0  0.24303  0.92799  0.02614  1.0000
  Fe  Fe165     1.0  0.39027  0.80098  0.30552  1.0000
  H   H1865     1.0  0.45208  0.85715  0.26321  1.0000
  H   H1866     1.0  0.34618  0.89232  0.04640  1.0000
  H   H1867     1.0  0.36674  0.91830  0.08440  1.0000
  H   H1868     1.0  0.18676  0.93859  0.17922  1.0000
  C   C2347     1.0  0.42199  0.78251  0.25926  1.0000
  H   H1869     1.0  0.32310  0.88175  0.12810  1.0000
  H   H1870     1.0  0.35836  0.86121  0.06617  1.0000
  H   H1871     1.0  0.34626  0.83400  0.06048  1.0000
  H   H1872     1.0  0.30835  0.90779  0.06729  1.0000
  H   H1873     1.0  0.31895  0.82096  0.99488  1.0000
  H   H1874     1.0  0.21796  0.96819  0.12670  1.0000
  S   S335      1.0  0.39732  0.79955  0.37375  1.0000
  H   H1875     1.0  0.32764  0.91874  0.11544  1.0000
  H   H1876     1.0  0.25029  0.86819  0.02499  1.0000
  C   C2348     1.0  0.00360  0.94715  0.03732  1.0000
  C   C2349     1.0  0.45202  0.84694  0.27646  1.0000
  C   C2350     1.0  0.44958  0.79715  0.25807  1.0000
  H   H1877     1.0  0.36669  0.94700  0.37381  1.0000
  C   C2351     1.0  0.38614  0.85248  0.39422  1.0000
  H   H1878     1.0  0.36587  0.90952  0.01892  1.0000
  H   H1879     1.0  0.38584  0.93125  0.02377  1.0000
  H   H1880     1.0  0.44674  0.84591  0.32431  1.0000
  C   C2352     1.0  0.02779  0.81926  0.02957  1.0000
  H   H1881     1.0  0.14317  0.83242  0.03307  1.0000
  H   H1882     1.0  0.26690  0.80807  0.03235  1.0000
  H   H1883     1.0  0.39274  0.86080  0.43648  1.0000
  H   H1884     1.0  0.00191  0.84985  0.09544  1.0000
  C   C2353     1.0  0.00740  0.93109  0.05140  1.0000
  C   C2354     1.0  0.37778  0.92576  0.05449  1.0000
  C   C2355     1.0  0.00826  0.81804  0.03395  1.0000
  H   H1885     1.0  0.04937  0.94816  0.01278  1.0000
  C   C2356     1.0  0.35198  0.91824  0.41571  1.0000
  C   C2357     1.0  0.45798  0.97895  0.37494  1.0000
  C   C2358     1.0  0.30674  0.85257  0.09006  1.0000
  H   H1886     1.0  0.30386  0.87749  0.10233  1.0000
  C   C2359     1.0  0.08101  0.78243  0.01527  1.0000
  C   C2360     1.0  0.31332  0.86822  0.09305  1.0000
  H   H1887     1.0  0.05003  0.81207  0.98604  1.0000
  C   C2361     1.0  0.04041  0.95716  0.97689  1.0000
  H   H1888     1.0  0.41144  0.91528  0.41055  1.0000
  H   H1889     1.0  0.07786  0.90244  0.99485  1.0000
  H   H1890     1.0  0.33581  0.94854  0.12076  1.0000
  C   C2362     1.0  0.36681  0.93466  0.38531  1.0000
  C   C2363     1.0  0.37666  0.83683  0.40133  1.0000
  H   H1891     1.0  0.45322  0.81091  0.32430  1.0000
  C   C2364     1.0  0.41824  0.80739  0.39703  1.0000
  C   C2365     1.0  0.46732  0.92722  0.34698  1.0000
  C   C2366     1.0  0.42787  0.95597  0.13716  1.0000
  C   C2367     1.0  0.06332  0.86874  0.08675  1.0000
  H   H1892     1.0  0.40729  0.78394  0.25722  1.0000
  C   C2368     1.0  0.37760  0.92332  0.03602  1.0000
  H   H1893     1.0  0.25438  0.97471  0.21721  1.0000
  C   C2369     1.0  0.22364  0.95929  0.11591  1.0000
  P   P82       1.0  0.46041  0.81825  0.25418  1.0000
  H   H1894     1.0  0.38021  0.88345  0.09500  1.0000
  H   H1895     1.0  0.03332  0.78649  0.46792  1.0000
  H   H1896     1.0  0.08401  0.84035  0.00953  1.0000
  P   P83       1.0  0.40221  0.88299  0.39787  1.0000
  C   C2370     1.0  0.41863  0.88442  0.41281  1.0000
  C   C2371     1.0  0.43366  0.90324  0.42724  1.0000
  C   C2372     1.0  0.44555  0.88660  0.43453  1.0000
  C   C2373     1.0  0.44403  0.86889  0.43098  1.0000
  C   C2374     1.0  0.43065  0.86779  0.42016  1.0000
  C   C2375     1.0  0.41526  0.88297  0.37360  1.0000
  C   C2376     1.0  0.40526  0.88731  0.35821  1.0000
  C   C2377     1.0  0.41531  0.88831  0.33940  1.0000
  C   C2378     1.0  0.43541  0.88510  0.33578  1.0000
  C   C2379     1.0  0.44547  0.88038  0.35097  1.0000
  C   C2380     1.0  0.43548  0.87915  0.36980  1.0000
  H   H1897     1.0  0.45621  0.88743  0.44262  1.0000
  H   H1898     1.0  0.45364  0.85603  0.43611  1.0000
  H   H1899     1.0  0.43004  0.85400  0.41712  1.0000
  H   H1900     1.0  0.39388  0.92023  0.37232  1.0000
  H   H1901     1.0  0.38968  0.89027  0.36073  1.0000
  H   H1902     1.0  0.40747  0.89183  0.32767  1.0000
  H   H1903     1.0  0.44324  0.88643  0.32123  1.0000
  H   H1904     1.0  0.46106  0.87804  0.34820  1.0000
  H   H1905     1.0  0.44371  0.87552  0.38124  1.0000
  C   C2381     1.0  0.43252  0.84693  0.23883  1.0000
  C   C2382     1.0  0.42502  0.86034  0.22414  1.0000
  C   C2383     1.0  0.43614  0.86338  0.20587  1.0000
  C   C2384     1.0  0.45476  0.85293  0.20223  1.0000
  H   H1906     1.0  0.28766  0.96427  0.20091  1.0000
  H   H1907     1.0  0.42364  0.84464  0.25289  1.0000
  H   H1908     1.0  0.41045  0.86819  0.22679  1.0000
  H   H1909     1.0  0.43019  0.87369  0.19449  1.0000
  H   H1910     1.0  0.46331  0.85520  0.18799  1.0000
  C   C2385     1.0  0.44924  0.84072  0.31095  1.0000
  C   C2386     1.0  0.99151  0.97260  0.99637  1.0000
  C   C2387     1.0  0.18086  0.95052  0.16913  1.0000
  C   C2388     1.0  0.21536  0.84150  0.98085  1.0000
  H   H1911     1.0  0.46132  0.93339  0.40041  1.0000
  C   C2389     1.0  0.09440  0.85739  0.09641  1.0000
  C   C2390     1.0  0.10194  0.87231  0.08313  1.0000
  C   C2391     1.0  0.09001  0.88523  0.07149  1.0000
  P   P84       1.0  0.12671  0.87444  0.08153  1.0000
  C   C2392     1.0  0.13126  0.89815  0.07008  1.0000
  C   C2393     1.0  0.13045  0.86914  0.10603  1.0000
  C   C2394     1.0  0.11761  0.87919  0.11947  1.0000
  C   C2395     1.0  0.11925  0.87452  0.13879  1.0000
  C   C2396     1.0  0.13366  0.85972  0.14488  1.0000
  C   C2397     1.0  0.14644  0.84963  0.13162  1.0000
  C   C2398     1.0  0.14477  0.85415  0.11229  1.0000
  C   C2399     1.0  0.13149  0.90393  0.05032  1.0000
  C   C2400     1.0  0.13646  0.92157  0.04087  1.0000
  C   C2401     1.0  0.14172  0.93338  0.05090  1.0000
  C   C2402     1.0  0.14171  0.92771  0.07051  1.0000
  C   C2403     1.0  0.13647  0.91018  0.08010  1.0000
  C   C2404     1.0  0.14293  0.85894  0.06648  1.0000
  C   C2405     1.0  0.13589  0.84954  0.05522  1.0000
  C   C2406     1.0  0.14867  0.83936  0.04198  1.0000
  C   C2407     1.0  0.16849  0.83865  0.03976  1.0000
  C   C2408     1.0  0.17558  0.84817  0.05075  1.0000
  C   C2409     1.0  0.16286  0.85834  0.06400  1.0000
  H   H1912     1.0  0.10341  0.84691  0.10526  1.0000
  H   H1913     1.0  0.09541  0.89654  0.06074  1.0000
  H   H1914     1.0  0.10613  0.89045  0.11499  1.0000
  H   H1915     1.0  0.10919  0.88224  0.14907  1.0000
  H   H1916     1.0  0.13492  0.85598  0.15985  1.0000
  H   H1917     1.0  0.15768  0.83824  0.13634  1.0000
  H   H1918     1.0  0.15447  0.84569  0.10245  1.0000
  H   H1919     1.0  0.12821  0.89462  0.04211  1.0000
  H   H1920     1.0  0.13699  0.92575  0.02558  1.0000
  H   H1921     1.0  0.14633  0.94667  0.04333  1.0000
  H   H1922     1.0  0.14625  0.93670  0.07814  1.0000
  H   H1923     1.0  0.13710  0.90591  0.09514  1.0000
  S   S336      1.0  0.36883  0.80197  0.33298  1.0000
  H   H1924     1.0  0.22069  0.89113  0.98866  1.0000
  H   H1925     1.0  0.17832  0.83090  0.02937  1.0000
  H   H1926     1.0  0.19093  0.84782  0.04890  1.0000
  H   H1927     1.0  0.16855  0.86601  0.07209  1.0000
  C   C2410     1.0  0.34954  0.95184  0.11286  1.0000
  C   C2411     1.0  0.46224  0.83933  0.21683  1.0000
  H   H1928     1.0  0.15857  0.88529  0.12170  1.0000
  C   C2412     1.0  0.45564  0.81429  0.29383  1.0000
  H   H1929     1.0  0.43506  0.91697  0.42978  1.0000
  C   C2413     1.0  0.02618  0.92100  0.05123  1.0000
  C   C2414     1.0  0.39960  0.94234  0.15385  1.0000
  H   H1930     1.0  0.38597  0.93581  0.05654  1.0000
  H   H1931     1.0  0.36497  0.78780  0.40651  1.0000
  H   H1932     1.0  0.22580  0.91446  0.10733  1.0000
  C   C2415     1.0  0.46137  0.94222  0.33257  1.0000
  H   H1933     1.0  0.21371  0.82781  0.97836  1.0000
  H   H1934     1.0  0.12056  0.85054  0.05611  1.0000
  H   H1935     1.0  0.33307  0.94026  0.04803  1.0000
  H   H1936     1.0  0.37239  0.95942  0.14834  1.0000
  H   H1937     1.0  0.17116  0.91101  0.09705  1.0000
  C   C2416     1.0  0.42304  0.96009  0.27163  1.0000
  C   C2417     1.0  0.38431  0.94313  0.10706  1.0000
  H   H1938     1.0  0.36546  0.92702  0.12854  1.0000
  C   C2418     1.0  0.21951  0.87715  0.98654  1.0000
  C   C2419     1.0  0.36875  0.97166  0.08827  1.0000
  C   C2420     1.0  0.43187  0.97607  0.26876  1.0000
  H   H1939     1.0  0.42993  0.95699  0.43709  1.0000
  C   C2421     1.0  0.07510  0.85581  0.09839  1.0000
  H   H1940     1.0  0.27719  0.95346  0.09662  1.0000
  C   C2422     1.0  0.45114  0.83618  0.23528  1.0000
  C   C2423     1.0  0.32731  0.88259  0.28140  1.0000
  C   C2424     1.0  0.31807  0.89869  0.27034  1.0000
  C   C2425     1.0  0.32542  0.91571  0.26568  1.0000
  C   C2426     1.0  0.34212  0.91659  0.27193  1.0000
  C   C2427     1.0  0.35157  0.90044  0.28302  1.0000
  C   C2428     1.0  0.34408  0.88336  0.28761  1.0000
  P   P85       1.0  0.37355  0.90149  0.29052  1.0000
  C   C2429     1.0  0.37860  0.88131  0.30931  1.0000
  C   C2430     1.0  0.39337  0.90193  0.27037  1.0000
  C   C2431     1.0  0.38984  0.90678  0.25153  1.0000
  C   C2432     1.0  0.40507  0.90753  0.23599  1.0000
  C   C2433     1.0  0.42404  0.90343  0.23908  1.0000
  C   C2434     1.0  0.42777  0.89853  0.25775  1.0000
  C   C2435     1.0  0.41252  0.89772  0.27332  1.0000
  C   C2436     1.0  0.36849  0.88165  0.32807  1.0000
  C   C2437     1.0  0.37197  0.86595  0.34267  1.0000
  C   C2438     1.0  0.38561  0.84985  0.33866  1.0000
  C   C2439     1.0  0.39558  0.84934  0.32001  1.0000
  C   C2440     1.0  0.39196  0.86490  0.30533  1.0000
  C   C2441     1.0  0.37043  0.92264  0.30097  1.0000
  C   C2442     1.0  0.35197  0.93305  0.30648  1.0000
  C   C2443     1.0  0.34975  0.94913  0.31486  1.0000
  C   C2444     1.0  0.36579  0.95458  0.31843  1.0000
  C   C2445     1.0  0.38413  0.94402  0.31358  1.0000
  C   C2446     1.0  0.38647  0.92820  0.30477  1.0000
  H   H1941     1.0  0.32193  0.86922  0.28442  1.0000
  H   H1942     1.0  0.30554  0.89777  0.26489  1.0000
  H   H1943     1.0  0.31837  0.92816  0.25692  1.0000
  H   H1944     1.0  0.34774  0.92985  0.26791  1.0000
  H   H1945     1.0  0.35137  0.87045  0.29550  1.0000
  H   H1946     1.0  0.37537  0.90984  0.24866  1.0000
  H   H1947     1.0  0.40209  0.91120  0.22150  1.0000
  H   H1948     1.0  0.43580  0.90394  0.22698  1.0000
  H   H1949     1.0  0.44249  0.89535  0.26011  1.0000
  H   H1950     1.0  0.41569  0.89366  0.28766  1.0000
  H   H1951     1.0  0.35769  0.89391  0.33138  1.0000
  H   H1952     1.0  0.36385  0.86614  0.35702  1.0000
  H   H1953     1.0  0.38815  0.83756  0.34988  1.0000
  H   H1954     1.0  0.40565  0.83658  0.31675  1.0000
  H   H1955     1.0  0.39922  0.86377  0.29086  1.0000
  H   H1956     1.0  0.33916  0.92890  0.30444  1.0000
  H   H1957     1.0  0.33558  0.95761  0.31838  1.0000
  C   C2447     1.0  0.16174  0.79308  0.09479  1.0000
  C   C2448     1.0  0.39626  0.97320  0.13227  1.0000
  H   H1958     1.0  0.40080  0.92035  0.30117  1.0000
  H   H1959     1.0  0.22691  0.79228  0.17748  1.0000
  C   C2449     1.0  0.42104  0.95842  0.42646  1.0000
  H   H1960     1.0  0.39944  0.96226  0.08483  1.0000
  H   H1961     1.0  0.33931  0.94864  0.07687  1.0000
  H   H1962     1.0  0.47442  0.96949  0.18298  1.0000
  C   C2450     1.0  0.16966  0.80362  0.12128  1.0000
  H   H1963     1.0  0.48351  0.90773  0.41735  1.0000
  C   C2451     1.0  0.23848  0.91909  0.18030  1.0000
  C   C2452     1.0  0.37813  0.87635  0.12546  1.0000
  C   C2453     1.0  0.07083  0.88336  0.07326  1.0000
  H   H1964     1.0  0.16701  0.80399  0.13640  1.0000
  S   S337      1.0  0.05718  0.80777  0.11903  1.0000
  C   C2454     1.0  0.25606  0.88634  0.99724  1.0000
  H   H1965     1.0  0.42418  0.92568  0.37672  1.0000
  C   C2455     1.0  0.45522  0.82717  0.27642  1.0000
  H   H1966     1.0  0.37756  0.94985  0.42296  1.0000
  H   H1967     1.0  0.24183  0.89469  0.04297  1.0000
  H   H1968     1.0  0.01468  0.79334  0.08180  1.0000
  C   C2456     1.0  0.32362  0.97770  0.07199  1.0000
  C   C2457     1.0  0.46919  0.93695  0.40989  1.0000
  C   C2458     1.0  0.09657  0.80864  0.03715  1.0000
  C   C2459     1.0  0.24612  0.89763  0.02757  1.0000
  C   C2460     1.0  0.37944  0.83819  0.43350  1.0000
  H   H1969     1.0  0.17902  0.80160  0.06736  1.0000
  C   C2461     1.0  0.03582  0.78501  0.03026  1.0000
  C   C2462     1.0  0.00244  0.80041  0.03652  1.0000
  H   H1970     1.0  0.36643  0.81723  0.42632  1.0000
  C   C2463     1.0  0.06756  0.82386  0.99959  1.0000
  H   H1971     1.0  0.40163  0.94824  0.26365  1.0000
  H   H1972     1.0  0.21937  0.89054  0.15137  1.0000
  H   H1973     1.0  0.25264  0.89152  0.19303  1.0000
  Fe  Fe166     1.0  0.39468  0.78960  0.34702  1.0000
  H   H1974     1.0  0.04445  0.91055  0.98840  1.0000
  C   C2464     1.0  0.05749  0.82377  0.98514  1.0000
  H   H1975     1.0  0.38784  0.96750  0.02599  1.0000
  C   C2465     1.0  0.30232  0.93719  0.10743  1.0000
  C   C2466     1.0  0.35169  0.93414  0.40092  1.0000
  H   H1976     1.0  0.31409  0.96416  0.02639  1.0000
  C   C2467     1.0  0.41633  0.97193  0.12827  1.0000
  H   H1977     1.0  0.42655  0.94786  0.28260  1.0000
  C   C2468     1.0  0.24679  0.91642  0.01807  1.0000
  C   C2469     1.0  0.41542  0.96825  0.39384  1.0000
  P   P86       1.0  0.25948  0.86722  0.98388  1.0000
  H   H1978     1.0  0.47178  0.94686  0.32025  1.0000
  C   C2470     1.0  0.29138  0.93115  0.08050  1.0000
  C   C2471     1.0  0.47117  0.79711  0.43898  1.0000
  C   C2472     1.0  0.38858  0.85409  0.42647  1.0000
  C   C2473     1.0  0.15850  0.79386  0.11429  1.0000
  H   H1979     1.0  0.38885  0.85746  0.37898  1.0000
  C   C2474     1.0  0.29400  0.81228  0.01422  1.0000
  C   C2475     1.0  0.39140  0.95445  0.41866  1.0000
  H   H1980     1.0  0.25021  0.96132  0.07094  1.0000
  C   C2476     1.0  0.03746  0.94348  0.02330  1.0000
  H   H1981     1.0  0.18982  0.93164  0.10502  1.0000
  H   H1982     1.0  0.36569  0.96104  0.00718  1.0000
  C   C2477     1.0  0.40418  0.97633  0.24720  1.0000
  C   C2478     1.0  0.23584  0.86283  0.98378  1.0000
  H   H1983     1.0  0.39285  0.97656  0.23949  1.0000
  C   C2479     1.0  0.38784  0.95850  0.14532  1.0000
  H   H1984     1.0  0.14750  0.78679  0.12400  1.0000
  H   H1985     1.0  0.48361  0.80177  0.37626  1.0000
  H   H1986     1.0  0.04895  0.82194  0.05515  1.0000
  H   H1987     1.0  0.35823  0.96126  0.24717  1.0000
  C   C2480     1.0  0.25208  0.92025  0.99817  1.0000
  C   C2481     1.0  0.01846  0.95307  0.02278  1.0000
  C   C2482     1.0  0.30348  0.82429  0.99913  1.0000
  H   H1988     1.0  0.37222  0.83002  0.39155  1.0000
  H   H1989     1.0  0.19884  0.79363  0.22190  1.0000
  C   C2483     1.0  0.39215  0.86130  0.40672  1.0000
  C   C2484     1.0  0.22809  0.92911  0.10509  1.0000
  C   C2485     1.0  0.18655  0.95102  0.14934  1.0000
  C   C2486     1.0  0.27309  0.84579  0.99579  1.0000
  C   C2487     1.0  0.09236  0.82245  0.06548  1.0000
  C   C2488     1.0  0.21969  0.94064  0.11894  1.0000
  C   C2489     1.0  0.45896  0.78533  0.43712  1.0000
  H   H1990     1.0  0.23975  0.87349  0.17490  1.0000
  H   H1991     1.0  0.43323  0.81397  0.41654  1.0000
  C   C2490     1.0  0.37343  0.82960  0.42093  1.0000
  C   C2491     1.0  0.45382  0.92130  0.36288  1.0000
  H   H1992     1.0  0.42260  0.81224  0.24937  1.0000
  H   H1993     1.0  0.06940  0.84427  0.10866  1.0000
  H   H1994     1.0  0.34025  0.91784  0.42785  1.0000
  C   C2492     1.0  0.33081  0.95926  0.06774  1.0000
  C   C2493     1.0  0.17357  0.90900  0.11159  1.0000
  C   C2494     1.0  0.16650  0.89448  0.12551  1.0000
  C   C2495     1.0  0.17002  0.89166  0.14414  1.0000
  C   C2496     1.0  0.18111  0.90306  0.14871  1.0000
  C   C2497     1.0  0.18917  0.91700  0.13448  1.0000
  C   C2498     1.0  0.18455  0.92046  0.11612  1.0000
  P   P87       1.0  0.20365  0.93168  0.14016  1.0000
  H   H1995     1.0  0.23728  0.98126  0.09614  1.0000
  C   C2499     1.0  0.21880  0.91876  0.15720  1.0000
  C   C2500     1.0  0.48882  0.79764  0.42656  1.0000
  C   C2501     1.0  0.40319  0.95244  0.43210  1.0000
  C   C2502     1.0  0.24282  0.89910  0.18343  1.0000
  C   C2503     1.0  0.23545  0.88892  0.17329  1.0000
  C   C2504     1.0  0.22380  0.89870  0.15994  1.0000
  C   C2505     1.0  0.01621  0.78394  0.03443  1.0000
  H   H1996     1.0  0.36725  0.89065  0.42640  1.0000
  H   H1997     1.0  0.37695  0.83257  0.44871  1.0000
  H   H1998     1.0  0.39845  0.94635  0.44692  1.0000
  C   C2506     1.0  0.07658  0.83949  0.99840  1.0000
  H   H1999     1.0  0.44630  0.86888  0.29366  1.0000
  C   C2507     1.0  0.24201  0.95548  0.08447  1.0000
  H   H2000     1.0  0.17583  0.79480  0.20067  1.0000
  C   C2508     1.0  0.20128  0.87354  0.98661  1.0000
  C   C2509     1.0  0.23363  0.84503  0.98076  1.0000
  H   H2001     1.0  0.37180  0.86953  0.15629  1.0000
  C   C2510     1.0  0.43081  0.79865  0.25483  1.0000
  H   H2002     1.0  0.10617  0.80231  0.02565  1.0000
  H   H2003     1.0  0.99761  0.83076  0.03563  1.0000
  H   H2004     1.0  0.28135  0.93471  0.07066  1.0000
  H   H2005     1.0  0.20661  0.80067  0.15249  1.0000
  H   H2006     1.0  0.47572  0.97452  0.42754  1.0000
  S   S338      1.0  0.48236  0.87913  0.39420  1.0000
  C   C2511     1.0  0.17629  0.80221  0.08245  1.0000
  C   C2512     1.0  0.04178  0.80272  0.02788  1.0000
  C   C2513     1.0  0.38550  0.95921  0.09258  1.0000
  H   H2007     1.0  0.16296  0.96497  0.19138  1.0000
  C   C2514     1.0  0.32723  0.95438  0.05145  1.0000
  S   S339      1.0  0.32110  0.96693  0.23250  1.0000
  H   H2008     1.0  0.02894  0.90820  0.06180  1.0000
  C   C2515     1.0  0.10444  0.81406  0.05066  1.0000
  C   C2516     1.0  0.40905  0.96030  0.26098  1.0000
  H   H2009     1.0  0.06309  0.83166  0.07842  1.0000
  H   H2010     1.0  0.09845  0.82629  0.07615  1.0000
  H   H2011     1.0  0.41753  0.97633  0.21052  1.0000
  C   C2517     1.0  0.07650  0.81130  0.03857  1.0000
  H   H2012     1.0  0.33672  0.87257  0.15775  1.0000
  C   C2518     1.0  0.36633  0.93939  0.11714  1.0000
  C   C2519     1.0  0.06445  0.81971  0.05354  1.0000
  C   C2520     1.0  0.27413  0.81697  0.02017  1.0000
  C   C2521     1.0  0.07242  0.82530  0.06687  1.0000
  H   H2013     1.0  0.39734  0.93380  0.11076  1.0000
  H   H2014     1.0  0.47658  0.83127  0.21353  1.0000
  H   H2015     1.0  0.48484  0.79115  0.23053  1.0000
  C   C2522     1.0  0.34730  0.97094  0.25481  1.0000
  H   H2016     1.0  0.36599  0.97519  0.27282  1.0000
  C   C2523     1.0  0.48030  0.97146  0.34627  1.0000
  H   H2017     1.0  0.24841  0.83730  0.01624  1.0000
  C   C2524     1.0  0.04124  0.92733  0.03733  1.0000
  H   H2018     1.0  0.39652  0.94817  0.31663  1.0000
  C   C2525     1.0  0.22656  0.92891  0.16719  1.0000
  H   H2019     1.0  0.11989  0.81138  0.04993  1.0000
  H   H2020     1.0  0.24471  0.92777  0.07692  1.0000
  H   H2021     1.0  0.05581  0.91948  0.03713  1.0000
  H   H2022     1.0  0.45812  0.79899  0.29429  1.0000
  C   C2526     1.0  0.31212  0.98059  0.13118  1.0000
  C   C2527     1.0  0.32862  0.97566  0.25034  1.0000
  C   C2528     1.0  0.48165  0.92238  0.41944  1.0000
  H   H2023     1.0  0.03628  0.94366  0.98441  1.0000
  C   C2529     1.0  0.27812  0.98090  0.14317  1.0000
  H   H2024     1.0  0.36396  0.96707  0.32487  1.0000
  H   H2025     1.0  0.24605  0.83393  0.97817  1.0000
  P   P88       1.0  0.01295  0.97370  0.00463  1.0000
  H   H2026     1.0  0.22373  0.94441  0.16460  1.0000
  H   H2027     1.0  0.24498  0.92694  0.18752  1.0000
  C   C2530     1.0  0.19919  0.85570  0.98388  1.0000
  C   C2531     1.0  0.17781  0.96614  0.13666  1.0000
  H   H2028     1.0  0.38836  0.96403  0.38918  1.0000
  C   C2532     1.0  0.31643  0.96783  0.03928  1.0000
  Fe  Fe167     1.0  0.48700  0.85072  0.38470  1.0000
  C   C2533     1.0  0.07546  0.85477  0.98301  1.0000
  H   H2029     1.0  0.18878  0.88463  0.98877  1.0000
  C   C2534     1.0  0.39750  0.96241  0.39960  1.0000
  H   H2030     1.0  0.32644  0.97946  0.13410  1.0000
  H   H2031     1.0  0.42223  0.96997  0.17781  1.0000
  C   C2535     1.0  0.42731  0.96635  0.40728  1.0000
  C   C2536     1.0  0.23465  0.96672  0.09865  1.0000
  H   H2032     1.0  0.44198  0.97635  0.27768  1.0000
  C   C2537     1.0  0.28268  0.97915  0.20240  1.0000
  C   C2538     1.0  0.03139  0.97426  0.98343  1.0000
  H   H2033     1.0  0.26637  0.97935  0.15517  1.0000
  C   C2539     1.0  0.15895  0.98064  0.16337  1.0000
  H   H2034     1.0  0.29251  0.78275  0.42152  1.0000
  H   H2035     1.0  0.18147  0.96639  0.12137  1.0000
  H   H2036     1.0  0.41984  0.97417  0.37893  1.0000
  C   C2540     1.0  0.47377  0.96705  0.36597  1.0000
  C   C2541     1.0  0.16418  0.98097  0.14367  1.0000
  H   H2037     1.0  0.01855  0.78506  0.13613  1.0000
  H   H2038     1.0  0.99474  0.81680  0.14929  1.0000
  C   C2542     1.0  0.29673  0.97945  0.14649  1.0000
  H   H2039     1.0  0.29935  0.97673  0.16101  1.0000
  C   C2543     1.0  0.37671  0.97890  0.02110  1.0000
  C   C2544     1.0  0.22289  0.98069  0.97697  1.0000
  H   H2040     1.0  0.18507  0.85290  0.98395  1.0000
  H   H2041     1.0  0.34922  0.78600  0.38009  1.0000
  C   C2545     1.0  0.35176  0.97895  0.26922  1.0000
  C   C2546     1.0  0.48976  0.94549  0.43443  1.0000
  S   S340      1.0  0.99227  0.88232  0.06503  1.0000
  Fe  Fe168     1.0  0.15511  0.87501  0.75653  1.0000
  S   S341      1.0  0.12416  0.87075  0.76291  1.0000
  S   S342      1.0  0.17791  0.85813  0.77409  1.0000
  Fe  Fe169     1.0  0.14834  0.90590  0.72129  1.0000
  S   S343      1.0  0.11702  0.90484  0.72577  1.0000
  S   S344      1.0  0.16500  0.92342  0.69636  1.0000
  Fe  Fe170     1.0  0.11784  0.90311  0.75685  1.0000
  S   S345      1.0  0.09665  0.91996  0.77762  1.0000
  Fe  Fe171     1.0  0.12629  0.87264  0.73099  1.0000
  S   S346      1.0  0.11706  0.85797  0.71023  1.0000
  S   S347      1.0  0.14858  0.90701  0.75178  1.0000
  S   S348      1.0  0.15787  0.87410  0.72535  1.0000
  C   C2547     1.0  0.03610  0.87149  0.58205  1.0000
  C   C2548     1.0  0.05639  0.83912  0.96978  1.0000
  H   H2042     1.0  0.04889  0.79622  0.52128  1.0000
  S   S349      1.0  0.33507  0.91573  0.95431  1.0000
  S   S350      1.0  0.28220  0.93941  0.95059  1.0000
  S   S351      1.0  0.16221  0.84829  0.95821  1.0000
  Fe  Fe172     1.0  0.35421  0.93784  0.94591  1.0000
  S   S352      1.0  0.37712  0.94047  0.91929  1.0000
  C   C2549     1.0  0.05593  0.96324  0.67530  1.0000
  Fe  Fe173     1.0  0.25005  0.86342  0.87856  1.0000
  S   S353      1.0  0.23306  0.89317  0.87406  1.0000
  S   S354      1.0  0.24479  0.84191  0.90565  1.0000
  Fe  Fe174     1.0  0.27671  0.87003  0.84041  1.0000
  S   S355      1.0  0.26159  0.90033  0.83335  1.0000
  S   S356      1.0  0.30204  0.86162  0.81797  1.0000
  Fe  Fe175     1.0  0.26194  0.90211  0.86370  1.0000
  S   S357      1.0  0.27334  0.92686  0.86916  1.0000
  Fe  Fe176     1.0  0.23441  0.88803  0.84419  1.0000
  S   S358      1.0  0.20831  0.89787  0.82926  1.0000
  S   S359      1.0  0.27893  0.87263  0.86990  1.0000
  S   S360      1.0  0.24960  0.85759  0.84949  1.0000
  C   C2550     1.0  0.19886  0.95247  0.86093  1.0000
  H   H2043     1.0  0.21955  0.82989  0.83549  1.0000
  H   H2044     1.0  0.14382  0.79589  0.68254  1.0000
  C   C2551     1.0  0.26606  0.86770  0.94444  1.0000
  H   H2045     1.0  0.04820  0.83918  0.95894  1.0000
  C   C2552     1.0  0.23253  0.95381  0.83354  1.0000
  C   C2553     1.0  0.15359  0.79637  0.65235  1.0000
  H   H2046     1.0  0.00871  0.81792  0.58317  1.0000
  H   H2047     1.0  0.05138  0.87577  0.60267  1.0000
  S   S361      1.0  0.00287  0.95654  0.56570  1.0000
  H   H2048     1.0  0.00449  0.82805  0.68997  1.0000
  Fe  Fe177     1.0  0.46644  0.87417  0.87730  1.0000
  S   S362      1.0  0.46181  0.89492  0.85033  1.0000
  S   S363      1.0  0.44373  0.87005  0.90387  1.0000
  Fe  Fe178     1.0  0.47536  0.86986  0.83547  1.0000
  S   S364      1.0  0.46246  0.86647  0.81064  1.0000
  S   S365      1.0  0.47829  0.84876  0.86261  1.0000
  S   S366      1.0  0.11220  0.80015  0.63462  1.0000
  H   H2049     1.0  0.14702  0.81120  0.64836  1.0000
  Fe  Fe179     1.0  0.08577  0.80940  0.62146  1.0000
  S   S367      1.0  0.07739  0.84102  0.61143  1.0000
  H   H2050     1.0  0.11162  0.81729  0.89953  1.0000
  C   C2554     1.0  0.06054  0.84742  0.59606  1.0000
  C   C2555     1.0  0.04954  0.86587  0.59437  1.0000
  C   C2556     1.0  0.37861  0.83612  0.93902  1.0000
  C   C2557     1.0  0.03370  0.85871  0.57126  1.0000
  C   C2558     1.0  0.04499  0.84033  0.57267  1.0000
  C   C2559     1.0  0.05818  0.83457  0.58531  1.0000
  C   C2560     1.0  0.28778  0.88236  0.95543  1.0000
  H   H2051     1.0  0.04322  0.83042  0.56432  1.0000
  H   H2052     1.0  0.06664  0.82031  0.58659  1.0000
  C   C2561     1.0  0.43534  0.82415  0.78992  1.0000
  C   C2562     1.0  0.44027  0.81907  0.80831  1.0000
  C   C2563     1.0  0.44858  0.83173  0.81526  1.0000
  C   C2564     1.0  0.45186  0.84947  0.80386  1.0000
  C   C2565     1.0  0.44663  0.85436  0.78577  1.0000
  C   C2566     1.0  0.43862  0.84186  0.77888  1.0000
  H   H2053     1.0  0.43794  0.80539  0.81700  1.0000
  H   H2054     1.0  0.45262  0.82772  0.82923  1.0000
  H   H2055     1.0  0.44899  0.86793  0.77684  1.0000
  H   H2056     1.0  0.43491  0.84600  0.76475  1.0000
  C   C2567     1.0  0.31394  0.83767  0.82088  1.0000
  C   C2568     1.0  0.30740  0.82379  0.83608  1.0000
  C   C2569     1.0  0.31732  0.80474  0.83784  1.0000
  H   H2057     1.0  0.03793  0.95916  0.92145  1.0000
  C   C2570     1.0  0.34043  0.81358  0.80951  1.0000
  C   C2571     1.0  0.33042  0.83250  0.80761  1.0000
  H   H2058     1.0  0.29466  0.82769  0.84637  1.0000
  H   H2059     1.0  0.15556  0.94473  0.77676  1.0000
  H   H2060     1.0  0.31438  0.96268  0.80100  1.0000
  H   H2061     1.0  0.33550  0.84318  0.79584  1.0000
  C   C2572     1.0  0.22178  0.84457  0.92018  1.0000
  C   C2573     1.0  0.21594  0.82841  0.93256  1.0000
  C   C2574     1.0  0.19757  0.82976  0.94396  1.0000
  C   C2575     1.0  0.18523  0.84746  0.94383  1.0000
  C   C2576     1.0  0.19115  0.86379  0.93182  1.0000
  C   C2577     1.0  0.20926  0.86224  0.91967  1.0000
  H   H2062     1.0  0.22550  0.81470  0.93304  1.0000
  H   H2063     1.0  0.48091  0.94788  0.94040  1.0000
  H   H2064     1.0  0.18162  0.87746  0.93158  1.0000
  H   H2065     1.0  0.21357  0.87468  0.91002  1.0000
  C   C2578     1.0  0.39584  0.92089  0.91574  1.0000
  C   C2579     1.0  0.41108  0.92322  0.90028  1.0000
  C   C2580     1.0  0.42581  0.90770  0.89651  1.0000
  C   C2581     1.0  0.42542  0.88976  0.90826  1.0000
  C   C2582     1.0  0.41030  0.88747  0.92388  1.0000
  C   C2583     1.0  0.39557  0.90303  0.92766  1.0000
  H   H2066     1.0  0.41139  0.93705  0.89106  1.0000
  H   H2067     1.0  0.43752  0.90966  0.88463  1.0000
  H   H2068     1.0  0.40997  0.87364  0.93311  1.0000
  H   H2069     1.0  0.38394  0.90119  0.93969  1.0000
  C   C2584     1.0  0.28070  0.93494  0.92800  1.0000
  C   C2585     1.0  0.26649  0.92503  0.92660  1.0000
  C   C2586     1.0  0.26474  0.92160  0.90878  1.0000
  C   C2587     1.0  0.27646  0.92898  0.89205  1.0000
  C   C2588     1.0  0.29016  0.93950  0.89335  1.0000
  C   C2589     1.0  0.29261  0.94208  0.91127  1.0000
  H   H2070     1.0  0.25700  0.91964  0.93937  1.0000
  H   H2071     1.0  0.25417  0.91345  0.90800  1.0000
  H   H2072     1.0  0.29903  0.94561  0.88045  1.0000
  H   H2073     1.0  0.30332  0.95009  0.91210  1.0000
  C   C2590     1.0  0.14791  0.95654  0.90512  1.0000
  C   C2591     1.0  0.13760  0.94677  0.92154  1.0000
  H   H2074     1.0  0.16337  0.95472  0.90341  1.0000
  H   H2075     1.0  0.14509  0.93803  0.93256  1.0000
  C   C2592     1.0  0.11130  0.83729  0.70481  1.0000
  C   C2593     1.0  0.11162  0.83660  0.68557  1.0000
  C   C2594     1.0  0.10687  0.82079  0.68043  1.0000
  C   C2595     1.0  0.10197  0.80521  0.69445  1.0000
  C   C2596     1.0  0.21273  0.82387  0.88391  1.0000
  C   C2597     1.0  0.10590  0.82197  0.71889  1.0000
  H   H2076     1.0  0.11546  0.84846  0.67453  1.0000
  H   H2077     1.0  0.10699  0.82071  0.66560  1.0000
  H   H2078     1.0  0.19151  0.88228  0.86984  1.0000
  C   C2598     1.0  0.16309  0.78561  0.63821  1.0000
  C   C2599     1.0  0.18703  0.86964  0.78861  1.0000
  C   C2600     1.0  0.20320  0.86018  0.79689  1.0000
  C   C2601     1.0  0.21032  0.86881  0.80893  1.0000
  C   C2602     1.0  0.20086  0.88665  0.81339  1.0000
  C   C2603     1.0  0.18495  0.89618  0.80487  1.0000
  C   C2604     1.0  0.17826  0.88790  0.79234  1.0000
  H   H2079     1.0  0.21027  0.84615  0.79397  1.0000
  H   H2080     1.0  0.22288  0.86152  0.81505  1.0000
  H   H2081     1.0  0.17763  0.91005  0.80809  1.0000
  H   H2082     1.0  0.16593  0.89546  0.78604  1.0000
  C   C2605     1.0  0.10366  0.94132  0.77920  1.0000
  C   C2606     1.0  0.11653  0.94997  0.76429  1.0000
  C   C2607     1.0  0.12262  0.96651  0.76601  1.0000
  H   H2083     1.0  0.38733  0.81967  0.96515  1.0000
  C   C2608     1.0  0.10289  0.96613  0.79740  1.0000
  C   C2609     1.0  0.09649  0.94972  0.79557  1.0000
  H   H2084     1.0  0.12175  0.94397  0.75138  1.0000
  H   H2085     1.0  0.06529  0.82056  0.68713  1.0000
  H   H2086     1.0  0.31221  0.79400  0.84955  1.0000
  H   H2087     1.0  0.08622  0.94337  0.80697  1.0000
  C   C2610     1.0  0.15392  0.94082  0.67923  1.0000
  C   C2611     1.0  0.13387  0.94651  0.68081  1.0000
  C   C2612     1.0  0.16352  0.87882  0.88690  1.0000
  C   C2613     1.0  0.16603  0.94939  0.66355  1.0000
  H   H2088     1.0  0.12446  0.93996  0.69296  1.0000
  S   S368      1.0  0.01649  0.86529  0.55619  1.0000
  H   H2089     1.0  0.18148  0.94516  0.66227  1.0000
  S   S369      1.0  0.42518  0.80958  0.77933  1.0000
  C   C2614     1.0  0.48523  0.95779  0.92750  1.0000
  C   C2615     1.0  0.34581  0.84838  0.90425  1.0000
  H   H2090     1.0  0.48519  0.92803  0.80365  1.0000
  H   H2091     1.0  0.25386  0.86052  0.94693  1.0000
  H   H2092     1.0  0.41196  0.95178  0.92294  1.0000
  C   C2616     1.0  0.20690  0.95178  0.90961  1.0000
  C   C2617     1.0  0.03896  0.84169  0.65229  1.0000
  C   C2618     1.0  0.19434  0.84279  0.85328  1.0000
  H   H2093     1.0  0.19463  0.90868  0.88487  1.0000
  H   H2094     1.0  0.02796  0.80110  0.60830  1.0000
  P   P89       1.0  0.16128  0.85905  0.87663  1.0000
  H   H2095     1.0  0.24745  0.94760  0.68268  1.0000
  C   C2619     1.0  0.99436  0.84083  0.59837  1.0000
  H   H2096     1.0  0.01727  0.91336  0.63428  1.0000
  H   H2097     1.0  0.38507  0.96415  0.94674  1.0000
  Fe  Fe180     1.0  0.12265  0.91417  0.96340  1.0000
  S   S370      1.0  0.99190  0.91852  0.54180  1.0000
  H   H2098     1.0  0.25006  0.96388  0.90974  1.0000
  C   C2620     1.0  0.14827  0.84100  0.91383  1.0000
  H   H2099     1.0  0.40787  0.85482  0.90565  1.0000
  C   C2621     1.0  0.14638  0.84419  0.89450  1.0000
  C   C2622     1.0  0.16971  0.88097  0.67506  1.0000
  C   C2623     1.0  0.38505  0.86344  0.76382  1.0000
  C   C2624     1.0  0.39910  0.87456  0.75470  1.0000
  C   C2625     1.0  0.40489  0.88603  0.76476  1.0000
  C   C2626     1.0  0.39676  0.88628  0.78401  1.0000
  C   C2627     1.0  0.38273  0.87504  0.79332  1.0000
  C   C2628     1.0  0.37682  0.86375  0.78301  1.0000
  P   P90       1.0  0.37335  0.87368  0.81861  1.0000
  C   C2629     1.0  0.37298  0.84863  0.82814  1.0000
  C   C2630     1.0  0.38906  0.88277  0.82935  1.0000
  C   C2631     1.0  0.40418  0.87055  0.83751  1.0000
  C   C2632     1.0  0.41599  0.87797  0.84588  1.0000
  C   C2633     1.0  0.41286  0.89759  0.84604  1.0000
  C   C2634     1.0  0.39826  0.90991  0.83742  1.0000
  C   C2635     1.0  0.38642  0.90256  0.82909  1.0000
  C   C2636     1.0  0.35652  0.84257  0.83998  1.0000
  C   C2637     1.0  0.35620  0.82302  0.84644  1.0000
  C   C2638     1.0  0.15821  0.81877  0.72800  1.0000
  C   C2639     1.0  0.47424  0.96291  0.91285  1.0000
  C   C2640     1.0  0.38874  0.83486  0.82222  1.0000
  C   C2641     1.0  0.34943  0.88763  0.82319  1.0000
  C   C2642     1.0  0.33747  0.89218  0.80944  1.0000
  C   C2643     1.0  0.31897  0.90292  0.81323  1.0000
  C   C2644     1.0  0.31222  0.90903  0.83079  1.0000
  C   C2645     1.0  0.32393  0.90437  0.84466  1.0000
  C   C2646     1.0  0.34246  0.89369  0.84092  1.0000
  H   H2100     1.0  0.38090  0.85415  0.75620  1.0000
  H   H2101     1.0  0.40577  0.87396  0.73995  1.0000
  H   H2102     1.0  0.41608  0.89432  0.75780  1.0000
  H   H2103     1.0  0.40195  0.89480  0.79163  1.0000
  H   H2104     1.0  0.36631  0.85465  0.78999  1.0000
  H   H2105     1.0  0.40710  0.85537  0.83731  1.0000
  H   H2106     1.0  0.42775  0.86853  0.85203  1.0000
  H   H2107     1.0  0.42168  0.90329  0.85291  1.0000
  H   H2108     1.0  0.39605  0.92515  0.83735  1.0000
  H   H2109     1.0  0.37521  0.91235  0.82239  1.0000
  H   H2110     1.0  0.34365  0.85277  0.84364  1.0000
  H   H2111     1.0  0.34333  0.81836  0.85528  1.0000
  Fe  Fe181     1.0  0.14846  0.87509  0.97016  1.0000
  C   C2647     1.0  0.06617  0.96172  0.68995  1.0000
  H   H2112     1.0  0.40125  0.83922  0.81243  1.0000
  H   H2113     1.0  0.34216  0.88714  0.79597  1.0000
  H   H2114     1.0  0.30957  0.90588  0.80281  1.0000
  H   H2115     1.0  0.29777  0.91706  0.83380  1.0000
  H   H2116     1.0  0.31847  0.90888  0.85839  1.0000
  H   H2117     1.0  0.35131  0.89014  0.85187  1.0000
  H   H2118     1.0  0.29852  0.83230  0.90160  1.0000
  C   C2648     1.0  0.36309  0.86900  0.94029  1.0000
  C   C2649     1.0  0.19464  0.95301  0.92727  1.0000
  H   H2119     1.0  0.33948  0.83654  0.93454  1.0000
  C   C2650     1.0  0.13847  0.96932  0.65088  1.0000
  H   H2120     1.0  0.48963  0.92566  0.90763  1.0000
  H   H2121     1.0  0.40018  0.80491  0.82299  1.0000
  H   H2122     1.0  0.47518  0.90442  0.78942  1.0000
  C   C2651     1.0  0.06528  0.85467  0.96878  1.0000
  C   C2652     1.0  0.13704  0.82955  0.92780  1.0000
  H   H2123     1.0  0.00043  0.94417  0.60704  1.0000
  C   C2653     1.0  0.33389  0.79958  0.82455  1.0000
  H   H2124     1.0  0.15919  0.83341  0.72806  1.0000
  C   C2654     1.0  0.00902  0.78612  0.52100  1.0000
  C   C2655     1.0  0.23696  0.81886  0.73679  1.0000
  C   C2656     1.0  0.24260  0.81823  0.71729  1.0000
  C   C2657     1.0  0.22896  0.81794  0.70639  1.0000
  C   C2658     1.0  0.20956  0.81797  0.71499  1.0000
  Fe  Fe182     1.0  0.99359  0.89071  0.56252  1.0000
  C   C2659     1.0  0.00358  0.83942  0.62887  1.0000
  C   C2660     1.0  0.00699  0.82366  0.59609  1.0000
  H   H2125     1.0  0.15033  0.95413  0.71589  1.0000
  C   C2661     1.0  0.12386  0.82097  0.92266  1.0000
  H   H2126     1.0  0.23586  0.81313  0.86270  1.0000
  C   C2662     1.0  0.18837  0.87565  0.67902  1.0000
  C   C2663     1.0  0.19530  0.85657  0.68643  1.0000
  H   H2127     1.0  0.11070  0.96538  0.66774  1.0000
  H   H2128     1.0  0.24751  0.81915  0.74523  1.0000
  H   H2129     1.0  0.25756  0.81806  0.71061  1.0000
  H   H2130     1.0  0.15546  0.83767  0.68820  1.0000
  H   H2131     1.0  0.18245  0.93640  0.95397  1.0000
  H   H2132     1.0  0.12931  0.78605  0.74951  1.0000
  C   C2664     1.0  0.00968  0.95475  0.60243  1.0000
  H   H2133     1.0  0.19721  0.88652  0.67685  1.0000
  H   H2134     1.0  0.00379  0.86112  0.51997  1.0000
  C   C2665     1.0  0.00920  0.79878  0.48733  1.0000
  C   C2666     1.0  0.08041  0.94572  0.69366  1.0000
  C   C2667     1.0  0.48415  0.89763  0.92134  1.0000
  C   C2668     1.0  0.29724  0.96426  0.82895  1.0000
  C   C2669     1.0  0.06015  0.94895  0.66413  1.0000
  C   C2670     1.0  0.07503  0.93330  0.66718  1.0000
  C   C2671     1.0  0.08478  0.93149  0.68238  1.0000
  P   P91       1.0  0.08014  0.91450  0.65326  1.0000
  C   C2672     1.0  0.06723  0.89620  0.66775  1.0000
  C   C2673     1.0  0.07302  0.92292  0.63016  1.0000
  C   C2674     1.0  0.06545  0.91111  0.62181  1.0000
  C   C2675     1.0  0.06020  0.91776  0.60380  1.0000
  C   C2676     1.0  0.06303  0.93593  0.59377  1.0000
  C   C2677     1.0  0.07131  0.94741  0.60164  1.0000
  C   C2678     1.0  0.07632  0.94095  0.61974  1.0000
  C   C2679     1.0  0.04756  0.89767  0.66761  1.0000
  C   C2680     1.0  0.03717  0.88413  0.67965  1.0000
  C   C2681     1.0  0.04622  0.86936  0.69224  1.0000
  C   C2682     1.0  0.06568  0.86806  0.69275  1.0000
  C   C2683     1.0  0.07615  0.88148  0.68064  1.0000
  C   C2684     1.0  0.10570  0.90617  0.64770  1.0000
  C   C2685     1.0  0.11271  0.88783  0.64314  1.0000
  C   C2686     1.0  0.13248  0.88184  0.63747  1.0000
  C   C2687     1.0  0.14533  0.89417  0.63618  1.0000
  C   C2688     1.0  0.13842  0.91251  0.64055  1.0000
  C   C2689     1.0  0.11867  0.91857  0.64610  1.0000
  C   C2690     1.0  0.16082  0.97605  0.94668  1.0000
  H   H2135     1.0  0.08386  0.79801  0.56125  1.0000
  H   H2136     1.0  0.28769  0.97981  0.78386  1.0000
  H   H2137     1.0  0.05179  0.95023  0.65311  1.0000
  H   H2138     1.0  0.09578  0.91911  0.68551  1.0000
  H   H2139     1.0  0.06374  0.89672  0.62904  1.0000
  H   H2140     1.0  0.05404  0.90882  0.59748  1.0000
  H   H2141     1.0  0.05876  0.94113  0.57991  1.0000
  H   H2142     1.0  0.07351  0.96151  0.59388  1.0000
  H   H2143     1.0  0.08265  0.95011  0.62561  1.0000
  H   H2144     1.0  0.04021  0.90944  0.65841  1.0000
  H   H2145     1.0  0.02204  0.88524  0.67939  1.0000
  H   H2146     1.0  0.03815  0.85900  0.70173  1.0000
  H   H2147     1.0  0.07264  0.85677  0.70272  1.0000
  H   H2148     1.0  0.09107  0.88054  0.68167  1.0000
  H   H2149     1.0  0.10289  0.87828  0.64366  1.0000
  H   H2150     1.0  0.13778  0.86768  0.63394  1.0000
  H   H2151     1.0  0.16063  0.88954  0.63175  1.0000
  H   H2152     1.0  0.14830  0.92219  0.63948  1.0000
  H   H2153     1.0  0.11358  0.93307  0.64879  1.0000
  C   C2691     1.0  0.33920  0.85192  0.88684  1.0000
  P   P92       1.0  0.36709  0.85719  0.90529  1.0000
  C   C2692     1.0  0.36346  0.88257  0.89570  1.0000
  C   C2693     1.0  0.37913  0.89207  0.88787  1.0000
  C   C2694     1.0  0.37603  0.91195  0.88192  1.0000
  C   C2695     1.0  0.35740  0.92252  0.88389  1.0000
  C   C2696     1.0  0.34175  0.91316  0.89153  1.0000
  C   C2697     1.0  0.34474  0.89331  0.89740  1.0000
  C   C2698     1.0  0.38877  0.84476  0.89234  1.0000
  C   C2699     1.0  0.38798  0.83325  0.87940  1.0000
  C   C2700     1.0  0.40498  0.82376  0.86963  1.0000
  C   C2701     1.0  0.42285  0.82572  0.87261  1.0000
  C   C2702     1.0  0.42375  0.83690  0.88564  1.0000
  H   H2154     1.0  0.31744  0.84851  0.87231  1.0000
  H   H2155     1.0  0.34704  0.85948  0.87408  1.0000
  H   H2156     1.0  0.35638  0.88294  0.93369  1.0000
  H   H2157     1.0  0.39378  0.88440  0.88683  1.0000
  H   H2158     1.0  0.38815  0.91931  0.87642  1.0000
  H   H2159     1.0  0.35515  0.93801  0.88006  1.0000
  H   H2160     1.0  0.32735  0.92137  0.89347  1.0000
  H   H2161     1.0  0.33245  0.88647  0.90386  1.0000
  H   H2162     1.0  0.37440  0.83140  0.87683  1.0000
  C   C2703     1.0  0.03455  0.82344  0.69055  1.0000
  H   H2163     1.0  0.18576  0.95200  0.87144  1.0000
  C   C2704     1.0  0.04892  0.92704  0.84102  1.0000
  C   C2705     1.0  0.05974  0.91556  0.82794  1.0000
  C   C2706     1.0  0.07876  0.90716  0.82940  1.0000
  C   C2707     1.0  0.08705  0.91043  0.84378  1.0000
  C   C2708     1.0  0.07644  0.92225  0.85675  1.0000
  C   C2709     1.0  0.05720  0.93036  0.85543  1.0000
  P   P93       1.0  0.08789  0.92739  0.87437  1.0000
  C   C2710     1.0  0.09126  0.90693  0.89332  1.0000
  C   C2711     1.0  0.11099  0.93372  0.86260  1.0000
  C   C2712     1.0  0.12605  0.93095  0.87280  1.0000
  C   C2713     1.0  0.14373  0.93623  0.86358  1.0000
  C   C2714     1.0  0.14641  0.94465  0.84427  1.0000
  C   C2715     1.0  0.13140  0.94774  0.83410  1.0000
  C   C2716     1.0  0.11379  0.94228  0.84321  1.0000
  C   C2717     1.0  0.09395  0.90959  0.91101  1.0000
  C   C2718     1.0  0.09656  0.89400  0.92584  1.0000
  C   C2719     1.0  0.09675  0.87552  0.92311  1.0000
  C   C2720     1.0  0.09405  0.87271  0.90554  1.0000
  C   C2721     1.0  0.09135  0.88832  0.89067  1.0000
  C   C2722     1.0  0.07343  0.94783  0.88419  1.0000
  C   C2723     1.0  0.05937  0.94531  0.90078  1.0000
  C   C2724     1.0  0.13829  0.96862  0.89106  1.0000
  C   C2725     1.0  0.22526  0.97566  0.71574  1.0000
  C   C2726     1.0  0.21915  0.96768  0.95032  1.0000
  S   S371      1.0  0.06679  0.79358  0.64545  1.0000
  H   H2164     1.0  0.03418  0.93359  0.83981  1.0000
  H   H2165     1.0  0.05354  0.91337  0.81644  1.0000
  H   H2166     1.0  0.08724  0.89858  0.81899  1.0000
  H   H2167     1.0  0.10185  0.90404  0.84458  1.0000
  H   H2168     1.0  0.04864  0.93950  0.86523  1.0000
  H   H2169     1.0  0.12412  0.92518  0.88792  1.0000
  H   H2170     1.0  0.15519  0.93443  0.87157  1.0000
  H   H2171     1.0  0.15997  0.94917  0.83736  1.0000
  H   H2172     1.0  0.13326  0.95462  0.81921  1.0000
  H   H2173     1.0  0.10225  0.94504  0.83518  1.0000
  H   H2174     1.0  0.09406  0.92377  0.91336  1.0000
  H   H2175     1.0  0.09850  0.89639  0.93941  1.0000
  H   H2176     1.0  0.09910  0.86342  0.93456  1.0000
  H   H2177     1.0  0.09401  0.85842  0.90345  1.0000
  H   H2178     1.0  0.08931  0.88573  0.87724  1.0000
  H   H2179     1.0  0.05682  0.93112  0.90785  1.0000
  C   C2727     1.0  0.37372  0.84848  0.96840  1.0000
  H   H2180     1.0  0.47429  0.87124  0.93535  1.0000
  C   C2728     1.0  0.45521  0.94488  0.87860  1.0000
  Fe  Fe183     1.0  0.31081  0.94030  0.95860  1.0000
  H   H2181     1.0  0.18795  0.85048  0.84109  1.0000
  C   C2729     1.0  0.15837  0.96346  0.64948  1.0000
  C   C2730     1.0  0.31176  0.83667  0.90234  1.0000
  H   H2182     1.0  0.24514  0.96150  0.96208  1.0000
  C   C2731     1.0  0.18004  0.88728  0.88090  1.0000
  H   H2183     1.0  0.06228  0.94399  0.95608  1.0000
  C   C2732     1.0  0.32237  0.84590  0.88585  1.0000
  H   H2184     1.0  0.22013  0.81695  0.89572  1.0000
  C   C2733     1.0  0.21233  0.91717  0.91754  1.0000
  H   H2185     1.0  0.21960  0.90338  0.91406  1.0000
  C   C2734     1.0  0.21638  0.78751  0.68561  1.0000
  H   H2186     1.0  0.30981  0.89372  0.93370  1.0000
  H   H2187     1.0  0.07157  0.97469  0.93814  1.0000
  C   C2735     1.0  0.44645  0.91555  0.93334  1.0000
  C   C2736     1.0  0.19134  0.93602  0.94002  1.0000
  H   H2188     1.0  0.24550  0.95393  0.82287  1.0000
  C   C2737     1.0  0.18196  0.90213  0.88940  1.0000
  H   H2189     1.0  0.16370  0.79204  0.62321  1.0000
  C   C2738     1.0  0.11625  0.97433  0.78272  1.0000
  H   H2190     1.0  0.13274  0.97300  0.75456  1.0000
  C   C2739     1.0  0.20398  0.81907  0.73453  1.0000
  H   H2191     1.0  0.43106  0.96651  0.84216  1.0000
  H   H2192     1.0  0.18827  0.83704  0.90183  1.0000
  H   H2193     1.0  0.17868  0.95795  0.72769  1.0000
  H   H2194     1.0  0.29936  0.88401  0.90722  1.0000
  H   H2195     1.0  0.27147  0.86733  0.91426  1.0000
  H   H2196     1.0  0.38389  0.82430  0.93131  1.0000
  H   H2197     1.0  0.03299  0.81595  0.70523  1.0000
  C   C2740     1.0  0.00984  0.88511  0.64137  1.0000
  C   C2741     1.0  0.10799  0.96065  0.90971  1.0000
  C   C2742     1.0  0.14321  0.81074  0.74038  1.0000
  C   C2743     1.0  0.40682  0.84628  0.89554  1.0000
  C   C2744     1.0  0.99938  0.83448  0.53871  1.0000
  H   H2198     1.0  0.02469  0.87822  0.64066  1.0000
  H   H2199     1.0  0.30876  0.95651  0.83650  1.0000
  C   C2745     1.0  0.12182  0.82398  0.90353  1.0000
  H   H2200     1.0  0.19579  0.92857  0.84953  1.0000
  H   H2201     1.0  0.22568  0.92979  0.82519  1.0000
  H   H2202     1.0  0.22995  0.90146  0.78842  1.0000
  C   C2746     1.0  0.16761  0.90841  0.90400  1.0000
  C   C2747     1.0  0.15075  0.90066  0.90945  1.0000
  C   C2748     1.0  0.14852  0.88620  0.90063  1.0000
  C   C2749     1.0  0.99256  0.84866  0.61472  1.0000
  C   C2750     1.0  0.13290  0.83565  0.88952  1.0000
  C   C2751     1.0  0.15164  0.86789  0.85468  1.0000
  C   C2752     1.0  0.14655  0.88767  0.84826  1.0000
  C   C2753     1.0  0.13980  0.89446  0.83097  1.0000
  C   C2754     1.0  0.13786  0.88161  0.82004  1.0000
  C   C2755     1.0  0.14326  0.86195  0.82608  1.0000
  C   C2756     1.0  0.15018  0.85510  0.84328  1.0000
  H   H2203     1.0  0.16966  0.91925  0.91109  1.0000
  H   H2204     1.0  0.13942  0.90581  0.92055  1.0000
  H   H2205     1.0  0.13531  0.88049  0.90489  1.0000
  H   H2206     1.0  0.18453  0.82080  0.66190  1.0000
  H   H2207     1.0  0.13077  0.83790  0.87494  1.0000
  H   H2208     1.0  0.14823  0.89793  0.85625  1.0000
  H   H2209     1.0  0.13645  0.90971  0.82577  1.0000
  H   H2210     1.0  0.13290  0.88694  0.80649  1.0000
  H   H2211     1.0  0.14268  0.85208  0.81707  1.0000
  H   H2212     1.0  0.15493  0.83985  0.84738  1.0000
  H   H2213     1.0  0.20967  0.85290  0.68970  1.0000
  C   C2757     1.0  0.28532  0.97729  0.79935  1.0000
  C   C2758     1.0  0.16985  0.78915  0.71575  1.0000
  C   C2759     1.0  0.18500  0.84459  0.87203  1.0000
  C   C2760     1.0  0.05601  0.78893  0.53316  1.0000
  H   H2214     1.0  0.16409  0.89590  0.67010  1.0000
  C   C2761     1.0  0.04854  0.96119  0.90848  1.0000
  H   H2215     1.0  0.44099  0.88713  0.94610  1.0000
  H   H2216     1.0  0.22138  0.78340  0.69916  1.0000
  C   C2762     1.0  0.01708  0.96120  0.61589  1.0000
  H   H2217     1.0  0.23356  0.81779  0.69122  1.0000
  H   H2218     1.0  0.02791  0.88584  0.58062  1.0000
  C   C2763     1.0  0.20007  0.97755  0.95150  1.0000
  C   C2764     1.0  0.10148  0.80595  0.71372  1.0000
  H   H2219     1.0  0.11528  0.81197  0.93353  1.0000
  H   H2220     1.0  0.21031  0.96456  0.89994  1.0000
  C   C2765     1.0  0.27912  0.97049  0.83932  1.0000
  H   H2221     1.0  0.37128  0.79427  0.84471  1.0000
  C   C2766     1.0  0.22163  0.82173  0.86528  1.0000
  C   C2767     1.0  0.07591  0.96647  0.87508  1.0000
  C   C2768     1.0  0.24052  0.95143  0.69643  1.0000
  H   H2222     1.0  0.45708  0.93944  0.85029  1.0000
  H   H2223     1.0  0.15832  0.84752  0.91827  1.0000
  S   S372      1.0  0.15470  0.90469  0.95865  1.0000
  C   C2769     1.0  0.01371  0.96252  0.58297  1.0000
  H   H2224     1.0  0.08814  0.94436  0.70523  1.0000
  C   C2770     1.0  0.44595  0.95656  0.89215  1.0000
  H   H2225     1.0  0.29249  0.88673  0.96675  1.0000
  H   H2226     1.0  0.06396  0.86685  0.95724  1.0000
  C   C2771     1.0  0.07577  0.79015  0.55571  1.0000
  C   C2772     1.0  0.13788  0.96526  0.97469  1.0000
  C   C2773     1.0  0.21245  0.83122  0.84997  1.0000
  C   C2774     1.0  0.29784  0.88610  0.93669  1.0000
  H   H2227     1.0  0.14341  0.87136  0.67557  1.0000
  C   C2775     1.0  0.18352  0.84264  0.68999  1.0000
  H   H2228     1.0  0.30965  0.82641  0.93263  1.0000
  H   H2229     1.0  0.16799  0.96992  0.63741  1.0000
  H   H2230     1.0  0.19799  0.80060  0.63734  1.0000
  C   C2776     1.0  0.01622  0.82212  0.62651  1.0000
  C   C2777     1.0  0.15678  0.96698  0.96583  1.0000
  C   C2778     1.0  0.31807  0.83332  0.91981  1.0000
  C   C2779     1.0  0.19331  0.95232  0.79327  1.0000
  C   C2780     1.0  0.17429  0.95351  0.79122  1.0000
  C   C2781     1.0  0.17031  0.94412  0.77808  1.0000
  C   C2782     1.0  0.18534  0.93406  0.76649  1.0000
  C   C2783     1.0  0.20453  0.93314  0.76814  1.0000
  C   C2784     1.0  0.20840  0.94224  0.78172  1.0000
  P   P94       1.0  0.22399  0.92329  0.75086  1.0000
  C   C2785     1.0  0.21738  0.90385  0.74323  1.0000
  C   C2786     1.0  0.22841  0.94194  0.73033  1.0000
  C   C2787     1.0  0.21763  0.81939  0.74537  1.0000
  H   H2231     1.0  0.10481  0.82259  0.73379  1.0000
  H   H2232     1.0  0.35328  0.80992  0.79940  1.0000
  H   H2233     1.0  0.13279  0.81927  0.74975  1.0000
  C   C2788     1.0  0.23766  0.93710  0.71251  1.0000
  C   C2789     1.0  0.20652  0.90767  0.72854  1.0000
  C   C2790     1.0  0.20198  0.89261  0.72222  1.0000
  C   C2791     1.0  0.20797  0.87368  0.73060  1.0000
  C   C2792     1.0  0.21863  0.86977  0.74526  1.0000
  C   C2793     1.0  0.22327  0.88472  0.75161  1.0000
  C   C2794     1.0  0.24542  0.91395  0.76131  1.0000
  C   C2795     1.0  0.26377  0.91587  0.75053  1.0000
  C   C2796     1.0  0.28030  0.90686  0.75820  1.0000
  C   C2797     1.0  0.27863  0.89566  0.77651  1.0000
  C   C2798     1.0  0.26043  0.89378  0.78729  1.0000
  C   C2799     1.0  0.24392  0.90322  0.77992  1.0000
  P   P95       1.0  0.45326  0.95223  0.91515  1.0000
  H   H2234     1.0  0.16265  0.96187  0.79967  1.0000
  C   C2800     1.0  0.29198  0.88069  0.92184  1.0000
  H   H2235     1.0  0.18189  0.92719  0.75620  1.0000
  H   H2236     1.0  0.22307  0.94194  0.78314  1.0000
  C   C2801     1.0  0.14129  0.79204  0.74025  1.0000
  C   C2802     1.0  0.47897  0.91751  0.91648  1.0000
  C   C2803     1.0  0.20320  0.79701  0.65079  1.0000
  C   C2804     1.0  0.42148  0.97844  0.95970  1.0000
  H   H2237     1.0  0.24251  0.92222  0.71102  1.0000
  H   H2238     1.0  0.20140  0.92225  0.72201  1.0000
  H   H2239     1.0  0.19350  0.89560  0.71104  1.0000
  H   H2240     1.0  0.20384  0.86207  0.72617  1.0000
  H   H2241     1.0  0.22263  0.85517  0.75233  1.0000
  H   H2242     1.0  0.23112  0.88111  0.76329  1.0000
  H   H2243     1.0  0.26542  0.92399  0.73613  1.0000
  H   H2244     1.0  0.29444  0.90818  0.74979  1.0000
  H   H2245     1.0  0.29139  0.88818  0.78231  1.0000
  H   H2246     1.0  0.25913  0.88462  0.80125  1.0000
  H   H2247     1.0  0.06924  0.83691  0.65329  1.0000
  C   C2805     1.0  0.27613  0.87147  0.92575  1.0000
  C   C2806     1.0  0.22233  0.96136  0.73185  1.0000
  H   H2248     1.0  0.43600  0.81858  0.86482  1.0000
  H   H2249     1.0  0.43759  0.83844  0.88803  1.0000
  S   S373      1.0  0.32968  0.96271  0.94807  1.0000
  C   C2807     1.0  0.20452  0.93926  0.84857  1.0000
  C   C2808     1.0  0.46009  0.92667  0.92258  1.0000
  H   H2250     1.0  0.01402  0.83094  0.54142  1.0000
  C   C2809     1.0  0.19456  0.83529  0.88730  1.0000
  C   C2810     1.0  0.36991  0.85397  0.92991  1.0000
  C   C2811     1.0  0.38052  0.83341  0.95820  1.0000
  Fe  Fe184     1.0  0.41040  0.78342  0.78547  1.0000
  C   C2812     1.0  0.21555  0.93395  0.90468  1.0000
  C   C2813     1.0  0.24496  0.97402  0.88089  1.0000
  C   C2814     1.0  0.20021  0.91819  0.93517  1.0000
  C   C2815     1.0  0.33505  0.83910  0.92080  1.0000
  C   C2816     1.0  0.12611  0.96089  0.66661  1.0000
  H   H2251     1.0  0.22527  0.93311  0.89112  1.0000
  C   C2817     1.0  0.22133  0.93996  0.83487  1.0000
  S   S374      1.0  0.10477  0.93556  0.94380  1.0000
  C   C2818     1.0  0.11769  0.94854  0.92374  1.0000
  P   P96       1.0  0.19189  0.81817  0.70067  1.0000
  H   H2252     1.0  0.46674  0.93307  0.88169  1.0000
  H   H2253     1.0  0.09258  0.96206  0.91131  1.0000
  C   C2819     1.0  0.17185  0.80797  0.71578  1.0000
  C   C2820     1.0  0.05281  0.82599  0.68034  1.0000
  C   C2821     1.0  0.38817  0.81535  0.82822  1.0000
  C   C2822     1.0  0.16494  0.84804  0.68550  1.0000
  C   C2823     1.0  0.44977  0.94846  0.86069  1.0000
  H   H2254     1.0  0.13871  0.82732  0.94263  1.0000
  H   H2255     1.0  0.22536  0.95861  0.93974  1.0000
  H   H2256     1.0  0.39092  0.98114  0.97049  1.0000
  H   H2257     1.0  0.21310  0.82036  0.76041  1.0000
  C   C2824     1.0  0.05492  0.95733  0.96069  1.0000
  H   H2258     1.0  0.01347  0.95540  0.63094  1.0000
  H   H2259     1.0  0.24627  0.95971  0.87815  1.0000
  C   C2825     1.0  0.23047  0.96925  0.96303  1.0000
  H   H2260     1.0  0.00217  0.78635  0.53570  1.0000
  H   H2261     1.0  0.35990  0.87790  0.96735  1.0000
  H   H2262     1.0  0.43164  0.92197  0.93770  1.0000
  H   H2263     1.0  0.47276  0.80498  0.88974  1.0000
  C   C2826     1.0  0.19566  0.80850  0.66475  1.0000
  H   H2264     1.0  0.08633  0.96881  0.86210  1.0000
  C   C2827     1.0  0.27170  0.87324  0.95946  1.0000
  C   C2828     1.0  0.45171  0.89567  0.93821  1.0000
  C   C2829     1.0  0.15808  0.86714  0.67814  1.0000
  C   C2830     1.0  0.39953  0.96617  0.94665  1.0000
  H   H2265     1.0  0.04106  0.84799  0.63724  1.0000
  P   P97       1.0  0.18558  0.97597  0.93474  1.0000
  C   C2831     1.0  0.16793  0.97035  0.72401  1.0000
  C   C2832     1.0  0.20984  0.96656  0.85941  1.0000
  C   C2833     1.0  0.11826  0.97083  0.89344  1.0000
  C   C2834     1.0  0.26386  0.98003  0.82979  1.0000
  C   C2835     1.0  0.37196  0.80941  0.84047  1.0000
  H   H2266     1.0  0.19800  0.90514  0.94529  1.0000
  C   C2836     1.0  0.06685  0.79891  0.54002  1.0000
  S   S375      1.0  0.38133  0.78772  0.77691  1.0000
  C   C2837     1.0  0.05500  0.83526  0.66129  1.0000
  C   C2838     1.0  0.01841  0.83035  0.68175  1.0000
  P   P98       1.0  0.99974  0.84843  0.65088  1.0000
  H   H2267     1.0  0.06805  0.81361  0.53344  1.0000
  Fe  Fe185     1.0  0.09398  0.78314  0.65800  1.0000
  H   H2268     1.0  0.18912  0.81986  0.74157  1.0000
  C   C2839     1.0  0.99364  0.85152  0.52652  1.0000
  S   S376      1.0  0.09609  0.78479  0.68856  1.0000
  C   C2840     1.0  0.30035  0.96766  0.80898  1.0000
  C   C2841     1.0  0.99491  0.87439  0.64554  1.0000
  H   H2269     1.0  0.10822  0.97086  0.97118  1.0000
  H   H2270     1.0  0.40433  0.81489  0.85968  1.0000
  C   C2842     1.0  0.36504  0.86623  0.95943  1.0000
  C   C2843     1.0  0.22683  0.96727  0.84582  1.0000
  C   C2844     1.0  0.41484  0.95918  0.93313  1.0000
  C   C2845     1.0  0.01792  0.81429  0.61016  1.0000
  C   C2846     1.0  0.02047  0.83966  0.66253  1.0000
  C   C2847     1.0  0.00051  0.79871  0.50646  1.0000
  C   C2848     1.0  0.00570  0.90515  0.63779  1.0000
  H   H2271     1.0  0.04476  0.97553  0.67243  1.0000
  C   C2849     1.0  0.06013  0.97466  0.95054  1.0000
  C   C2850     1.0  0.47049  0.88670  0.93212  1.0000
  C   C2851     1.0  0.20230  0.80392  0.68222  1.0000
  C   C2852     1.0  0.43517  0.96376  0.85609  1.0000
  S   S377      1.0  0.09369  0.78593  0.60440  1.0000
  H   H2272     1.0  0.02468  0.81453  0.63732  1.0000
  C   C2853     1.0  0.43366  0.96168  0.93274  1.0000
  H   H2273     1.0  0.19633  0.95945  0.80362  1.0000
  C   C2854     1.0  0.15198  0.96819  0.71728  1.0000
  H   H2274     1.0  0.09741  0.79418  0.72474  1.0000
  H   H2275     1.0  0.21519  0.96556  0.74538  1.0000
  H   H2276     1.0  0.19303  0.81707  0.95314  1.0000
  H   H2277     1.0  0.09763  0.97231  0.81018  1.0000
  C   C2855     1.0  0.24702  0.97634  0.89886  1.0000
  H   H2278     1.0  0.06301  0.97287  0.69849  1.0000
  H   H2279     1.0  0.20483  0.97724  0.86847  1.0000
  C   C2856     1.0  0.12278  0.97283  0.96458  1.0000
  C   C2857     1.0  0.02601  0.97617  0.57707  1.0000
  H   H2280     1.0  0.25977  0.90876  0.97235  1.0000
  H   H2281     1.0  0.27707  0.96737  0.85475  1.0000
  C   C2858     1.0  0.02885  0.97532  0.61003  1.0000
  C   C2859     1.0  0.48043  0.97543  0.89606  1.0000
  C   C2860     1.0  0.43156  0.97218  0.88726  1.0000
  H   H2282     1.0  0.47256  0.97931  0.88432  1.0000
  H   H2283     1.0  0.45105  0.97392  0.94615  1.0000
  C   C2861     1.0  0.43685  0.97149  0.94611  1.0000
  C   C2862     1.0  0.42609  0.97564  0.86936  1.0000
  C   C2863     1.0  0.02648  0.78633  0.48275  1.0000
  S   S378      1.0  0.11661  0.88420  0.97216  1.0000
  C   C2864     1.0  0.40284  0.97575  0.95998  1.0000
  C   C2865     1.0  0.48711  0.79695  0.89068  1.0000
  C   C2866     1.0  0.23428  0.97070  0.69803  1.0000
  H   H2284     1.0  0.00262  0.80858  0.47608  1.0000
  H   H2285     1.0  0.01213  0.98092  0.51906  1.0000
  C   C2867     1.0  0.15178  0.78774  0.67160  1.0000
  C   C2868     1.0  0.05143  0.97968  0.89951  1.0000
  S   S379      1.0  0.15180  0.98025  0.87052  1.0000
  S   S380      1.0  0.35968  0.93573  0.97560  1.0000
  H   H2286     1.0  0.16830  0.96072  0.97381  1.0000
  H   H2287     1.0  0.11075  0.98013  0.88263  1.0000
  H   H2288     1.0  0.99074  0.80954  0.55759  1.0000
  Fe  Fe186     1.0  0.72048  0.13652  0.06807  1.0000
  C   C2869     1.0  0.95806  0.99856  0.21594  1.0000
  S   S381      1.0  0.71416  0.10963  0.06155  1.0000
  Fe  Fe187     1.0  0.74272  0.14802  0.09484  1.0000
  S   S382      1.0  0.76306  0.13486  0.11609  1.0000
  H   H2289     1.0  0.93224  0.98732  0.10016  1.0000
  C   C2870     1.0  0.87429  0.98540  0.38141  1.0000
  S   S383      1.0  0.71318  0.14099  0.09853  1.0000
  S   S384      1.0  0.75091  0.14053  0.06549  1.0000
  H   H2290     1.0  0.79279  0.13469  0.06098  1.0000
  H   H2291     1.0  0.51320  0.12720  0.02628  1.0000
  S   S385      1.0  0.93583  0.00899  0.06145  1.0000
  H   H2292     1.0  0.49639  0.10709  0.99132  1.0000
  S   S386      1.0  0.89222  0.00486  0.15240  1.0000
  Fe  Fe188     1.0  0.84422  0.17461  0.20664  1.0000
  C   C2871     1.0  0.49801  0.08573  0.13352  1.0000
  H   H2293     1.0  0.95285  0.02339  0.40799  1.0000
  H   H2294     1.0  0.98045  0.04615  0.27022  1.0000
  C   C2872     1.0  0.98006  0.07714  0.03695  1.0000
  C   C2873     1.0  0.87990  0.98586  0.44291  1.0000
  C   C2874     1.0  0.58917  0.17017  0.09577  1.0000
  S   S387      1.0  0.51974  0.13749  0.10063  1.0000
  Fe  Fe189     1.0  0.92127  0.03577  0.31727  1.0000
  S   S388      1.0  0.89416  0.04877  0.33462  1.0000
  S   S389      1.0  0.95012  0.04536  0.31426  1.0000
  Fe  Fe190     1.0  0.89919  0.01234  0.30122  1.0000
  S   S390      1.0  0.87050  0.02446  0.31710  1.0000
  Fe  Fe191     1.0  0.88089  0.05260  0.30863  1.0000
  S   S391      1.0  0.86449  0.08241  0.30059  1.0000
  Fe  Fe192     1.0  0.88623  0.01949  0.34172  1.0000
  S   S392      1.0  0.87100  0.01009  0.37188  1.0000
  S   S393      1.0  0.90842  0.04113  0.29064  1.0000
  S   S394      1.0  0.91465  0.00571  0.32636  1.0000
  Fe  Fe193     1.0  0.83571  0.13487  0.20718  1.0000
  S   S395      1.0  0.86216  0.14518  0.20890  1.0000
  S   S396      1.0  0.82843  0.10707  0.22517  1.0000
  C   C2875     1.0  0.89941  0.15190  0.38038  1.0000
  H   H2295     1.0  0.92715  0.09152  0.18271  1.0000
  H   H2296     1.0  0.95968  0.10572  0.97964  1.0000
  Fe  Fe194     1.0  0.86690  0.15030  0.17681  1.0000
  S   S397      1.0  0.89739  0.14265  0.16146  1.0000
  H   H2297     1.0  0.93825  0.03502  0.37890  1.0000
  S   S398      1.0  0.84184  0.13759  0.17516  1.0000
  S   S399      1.0  0.81692  0.16380  0.20729  1.0000
  Fe  Fe195     1.0  0.89342  0.02380  0.12350  1.0000
  S   S400      1.0  0.92348  0.02794  0.11009  1.0000
  Fe  Fe196     1.0  0.87700  0.05079  0.09087  1.0000
  S   S401      1.0  0.90579  0.05737  0.07535  1.0000
  S   S402      1.0  0.85189  0.06539  0.07636  1.0000
  Fe  Fe197     1.0  0.91567  0.02565  0.08283  1.0000
  Fe  Fe198     1.0  0.91073  0.05907  0.10428  1.0000
  S   S403      1.0  0.92851  0.07855  0.10990  1.0000
  S   S404      1.0  0.88643  0.01882  0.09656  1.0000
  S   S405      1.0  0.88101  0.05523  0.11939  1.0000
  H   H2298     1.0  0.96993  0.03590  0.20404  1.0000
  C   C2876     1.0  0.73234  0.17358  0.15546  1.0000
  H   H2299     1.0  0.74370  0.17571  0.16179  1.0000
  C   C2877     1.0  0.81466  0.09361  0.12106  1.0000
  C   C2878     1.0  0.89469  0.08795  0.23281  1.0000
  H   H2300     1.0  0.93550  0.04067  0.22975  1.0000
  C   C2879     1.0  0.90484  0.12405  0.14796  1.0000
  C   C2880     1.0  0.92460  0.11843  0.14200  1.0000
  C   C2881     1.0  0.93144  0.10437  0.13054  1.0000
  C   C2882     1.0  0.91865  0.09557  0.12498  1.0000
  C   C2883     1.0  0.89877  0.10094  0.13108  1.0000
  C   C2884     1.0  0.89186  0.11530  0.14249  1.0000
  H   H2301     1.0  0.93470  0.12528  0.14593  1.0000
  H   H2302     1.0  0.94675  0.10054  0.12564  1.0000
  H   H2303     1.0  0.88877  0.09443  0.12660  1.0000
  H   H2304     1.0  0.87656  0.12005  0.14647  1.0000
  H   H2305     1.0  0.53218  0.04754  0.14595  1.0000
  C   C2885     1.0  0.85408  0.17362  0.34320  1.0000
  C   C2886     1.0  0.94565  0.04184  0.23824  1.0000
  S   S406      1.0  0.88016  0.07193  0.98676  1.0000
  C   C2887     1.0  0.93311  0.04174  0.16727  1.0000
  C   C2888     1.0  0.97495  0.07599  0.01982  1.0000
  C   C2889     1.0  0.94736  0.02875  0.25524  1.0000
  H   H2306     1.0  0.75803  0.05343  0.99744  1.0000
  C   C2890     1.0  0.82683  0.01562  0.34939  1.0000
  C   C2891     1.0  0.85485  0.08870  0.27945  1.0000
  C   C2892     1.0  0.85227  0.10794  0.27045  1.0000
  C   C2893     1.0  0.84427  0.11367  0.25375  1.0000
  C   C2894     1.0  0.83833  0.10022  0.24622  1.0000
  C   C2895     1.0  0.84059  0.08100  0.25540  1.0000
  C   C2896     1.0  0.84918  0.07514  0.27181  1.0000
  H   H2307     1.0  0.85655  0.11842  0.27642  1.0000
  H   H2308     1.0  0.84232  0.12856  0.24694  1.0000
  H   H2309     1.0  0.83562  0.07073  0.24977  1.0000
  H   H2310     1.0  0.85093  0.06029  0.27883  1.0000
  C   C2897     1.0  0.95517  0.05947  0.32919  1.0000
  C   C2898     1.0  0.94214  0.06409  0.34548  1.0000
  H   H2311     1.0  0.92843  0.05929  0.34912  1.0000
  C   C2899     1.0  0.78840  0.14801  0.98799  1.0000
  C   C2900     1.0  0.91519  0.17130  0.22807  1.0000
  C   C2901     1.0  0.87232  0.99338  0.16104  1.0000
  C   C2902     1.0  0.58625  0.13516  0.99735  1.0000
  C   C2903     1.0  0.59836  0.12648  0.01055  1.0000
  C   C2904     1.0  0.59163  0.12668  0.03013  1.0000
  C   C2905     1.0  0.57273  0.13538  0.03658  1.0000
  C   C2906     1.0  0.56060  0.14405  0.02337  1.0000
  C   C2907     1.0  0.56740  0.14402  0.00377  1.0000
  H   H2312     1.0  0.98565  0.04558  0.14289  1.0000
  H   H2313     1.0  0.54600  0.15074  0.02823  1.0000
  C   C2908     1.0  0.96447  0.98856  0.98061  1.0000
  Fe  Fe199     1.0  0.53392  0.14839  0.07074  1.0000
  C   C2909     1.0  0.87230  0.07076  0.01161  1.0000
  C   C2910     1.0  0.85721  0.08425  0.01897  1.0000
  C   C2911     1.0  0.85073  0.08250  0.03887  1.0000
  C   C2912     1.0  0.85963  0.06746  0.05144  1.0000
  C   C2913     1.0  0.87510  0.05429  0.04406  1.0000
  C   C2914     1.0  0.88133  0.05589  0.02423  1.0000
  H   H2314     1.0  0.85056  0.09593  0.00927  1.0000
  H   H2315     1.0  0.83903  0.09294  0.04453  1.0000
  H   H2316     1.0  0.88207  0.04262  0.05361  1.0000
  H   H2317     1.0  0.89310  0.04546  0.01869  1.0000
  H   H2318     1.0  0.97859  0.09943  0.46394  1.0000
  C   C2915     1.0  0.77483  0.14834  0.12608  1.0000
  C   C2916     1.0  0.78712  0.13861  0.13896  1.0000
  C   C2917     1.0  0.79618  0.14869  0.14787  1.0000
  H   H2319     1.0  0.78955  0.12316  0.14214  1.0000
  H   H2320     1.0  0.80532  0.14094  0.15800  1.0000
  H   H2321     1.0  0.70858  0.05686  0.98012  1.0000
  C   C2918     1.0  0.58220  0.15386  0.09488  1.0000
  H   H2322     1.0  0.82959  0.98642  0.21566  1.0000
  H   H2323     1.0  0.65119  0.12606  0.05171  1.0000
  C   C2919     1.0  0.77117  0.14468  0.00023  1.0000
  C   C2920     1.0  0.84153  0.98699  0.15851  1.0000
  C   C2921     1.0  0.97038  0.04573  0.19057  1.0000
  H   H2324     1.0  0.93908  0.99976  0.43427  1.0000
  H   H2325     1.0  0.78147  0.17356  0.07719  1.0000
  C   C2922     1.0  0.88624  0.15441  0.34104  1.0000
  C   C2923     1.0  0.70278  0.10599  0.04371  1.0000
  C   C2924     1.0  0.69374  0.12084  0.03094  1.0000
  C   C2925     1.0  0.68645  0.11649  0.01607  1.0000
  C   C2926     1.0  0.68882  0.09736  0.01366  1.0000
  C   C2927     1.0  0.69724  0.08277  0.02687  1.0000
  C   C2928     1.0  0.70388  0.08701  0.04187  1.0000
  H   H2326     1.0  0.69283  0.13556  0.03226  1.0000
  H   H2327     1.0  0.68003  0.12787  0.00589  1.0000
  H   H2328     1.0  0.69924  0.06800  0.02516  1.0000
  H   H2329     1.0  0.71078  0.07545  0.05160  1.0000
  H   H2330     1.0  0.84318  0.02412  0.43966  1.0000
  H   H2331     1.0  0.96049  0.00656  0.20155  1.0000
  C   C2929     1.0  0.51556  0.07549  0.13817  1.0000
  H   H2332     1.0  0.76484  0.13274  0.99946  1.0000
  C   C2930     1.0  0.93384  0.01517  0.01118  1.0000
  H   H2333     1.0  0.88313  0.00891  0.20052  1.0000
  C   C2931     1.0  0.81327  0.09971  0.10178  1.0000
  C   C2932     1.0  0.88673  0.09534  0.21632  1.0000
  C   C2933     1.0  0.90440  0.10848  0.99431  1.0000
  C   C2934     1.0  0.82758  0.99761  0.31892  1.0000
  C   C2935     1.0  0.73104  0.15480  0.15487  1.0000
  H   H2334     1.0  0.50533  0.16182  0.01402  1.0000
  H   H2335     1.0  0.62164  0.15054  0.05215  1.0000
  C   C2936     1.0  0.93197  0.12372  0.97967  1.0000
  H   H2336     1.0  0.97460  0.02011  0.04490  1.0000
  Fe  Fe200     1.0  0.49365  0.13947  0.08755  1.0000
  C   C2937     1.0  0.97263  0.07067  0.15532  1.0000
  C   C2938     1.0  0.77207  0.16837  0.12176  1.0000
  C   C2939     1.0  0.95991  0.03035  0.26671  1.0000
  H   H2337     1.0  0.94676  0.05401  0.06839  1.0000
  C   C2940     1.0  0.82704  0.10083  0.12891  1.0000
  H   H2338     1.0  0.61290  0.16370  0.99130  1.0000
  H   H2339     1.0  0.60104  0.11992  0.04031  1.0000
  H   H2340     1.0  0.56307  0.13406  0.10887  1.0000
  H   H2341     1.0  0.97366  0.07015  0.06778  1.0000
  S   S407      1.0  0.70982  0.16698  0.05563  1.0000
  C   C2941     1.0  0.51120  0.06453  0.01935  1.0000
  C   C2942     1.0  0.91845  0.09016  0.19683  1.0000
  S   S408      1.0  0.98436  0.12614  0.39518  1.0000
  C   C2943     1.0  0.87048  0.00499  0.43955  1.0000
  H   H2342     1.0  0.92036  0.07651  0.24442  1.0000
  C   C2944     1.0  0.78870  0.10331  0.19866  1.0000
  C   C2945     1.0  0.77512  0.10891  0.18659  1.0000
  C   C2946     1.0  0.77469  0.09738  0.17367  1.0000
  C   C2947     1.0  0.78807  0.08042  0.17256  1.0000
  C   C2948     1.0  0.80207  0.07483  0.18438  1.0000
  C   C2949     1.0  0.80198  0.08629  0.19770  1.0000
  P   P99       1.0  0.82049  0.05372  0.18187  1.0000
  C   C2950     1.0  0.81806  0.03501  0.20281  1.0000
  C   C2951     1.0  0.81862  0.04418  0.16150  1.0000
  C   C2952     1.0  0.80494  0.03249  0.16324  1.0000
  C   C2953     1.0  0.80362  0.02487  0.14760  1.0000
  C   C2954     1.0  0.81592  0.02887  0.13011  1.0000
  C   C2955     1.0  0.82930  0.04078  0.12816  1.0000
  C   C2956     1.0  0.83064  0.04843  0.14377  1.0000
  C   C2957     1.0  0.82564  0.01581  0.20112  1.0000
  C   C2958     1.0  0.82409  0.00122  0.21716  1.0000
  C   C2959     1.0  0.91203  0.12477  0.98465  1.0000
  C   C2960     1.0  0.80779  0.02466  0.23698  1.0000
  C   C2961     1.0  0.80910  0.03929  0.22093  1.0000
  C   C2962     1.0  0.84445  0.05929  0.17792  1.0000
  C   C2963     1.0  0.86057  0.04480  0.17492  1.0000
  C   C2964     1.0  0.87919  0.04893  0.17134  1.0000
  C   C2965     1.0  0.88190  0.06749  0.17081  1.0000
  C   C2966     1.0  0.86597  0.08197  0.17371  1.0000
  C   C2967     1.0  0.84738  0.07802  0.17693  1.0000
  H   H2343     1.0  0.78925  0.11230  0.20858  1.0000
  H   H2344     1.0  0.76507  0.12230  0.18708  1.0000
  H   H2345     1.0  0.76426  0.10187  0.16414  1.0000
  H   H2346     1.0  0.78755  0.07196  0.16222  1.0000
  H   H2347     1.0  0.81266  0.08249  0.20692  1.0000
  H   H2348     1.0  0.79546  0.02906  0.17676  1.0000
  H   H2349     1.0  0.79335  0.01550  0.14918  1.0000
  H   H2350     1.0  0.81514  0.02272  0.11806  1.0000
  H   H2351     1.0  0.83877  0.04400  0.11456  1.0000
  H   H2352     1.0  0.84107  0.05767  0.14188  1.0000
  H   H2353     1.0  0.83269  0.01200  0.18741  1.0000
  H   H2354     1.0  0.90930  0.02318  0.37620  1.0000
  C   C2968     1.0  0.92864  0.01067  0.18666  1.0000
  H   H2355     1.0  0.80086  0.02807  0.25090  1.0000
  H   H2356     1.0  0.80304  0.05379  0.22289  1.0000
  H   H2357     1.0  0.85882  0.03037  0.17495  1.0000
  H   H2358     1.0  0.89152  0.03775  0.16866  1.0000
  H   H2359     1.0  0.89629  0.07077  0.16777  1.0000
  H   H2360     1.0  0.86790  0.09641  0.17324  1.0000
  H   H2361     1.0  0.83558  0.08984  0.17830  1.0000
  C   C2969     1.0  0.86925  0.09459  0.34765  1.0000
  C   C2970     1.0  0.87194  0.08063  0.36385  1.0000
  C   C2971     1.0  0.88393  0.08249  0.37578  1.0000
  C   C2972     1.0  0.89299  0.09847  0.37171  1.0000
  C   C2973     1.0  0.89008  0.11276  0.35565  1.0000
  C   C2974     1.0  0.87838  0.11052  0.34347  1.0000
  P   P100      1.0  0.90230  0.13312  0.34971  1.0000
  C   C2975     1.0  0.58417  0.17756  0.11286  1.0000
  C   C2976     1.0  0.90943  0.13693  0.37070  1.0000
  C   C2977     1.0  0.92567  0.12511  0.37713  1.0000
  H   H2362     1.0  0.97343  0.08033  0.14164  1.0000
  C   C2978     1.0  0.83065  0.98641  0.33671  1.0000
  H   H2363     1.0  0.74141  0.14294  0.16046  1.0000
  H   H2364     1.0  0.80354  0.09437  0.09569  1.0000
  H   H2365     1.0  0.86128  0.02923  0.00068  1.0000
  C   C2979     1.0  0.92404  0.12847  0.33243  1.0000
  C   C2980     1.0  0.93878  0.13907  0.33011  1.0000
  C   C2981     1.0  0.95640  0.13432  0.31819  1.0000
  C   C2982     1.0  0.95949  0.11896  0.30860  1.0000
  C   C2983     1.0  0.94485  0.10851  0.31069  1.0000
  C   C2984     1.0  0.92717  0.11322  0.32249  1.0000
  H   H2366     1.0  0.86038  0.09285  0.33811  1.0000
  H   H2367     1.0  0.86509  0.06813  0.36689  1.0000
  H   H2368     1.0  0.88638  0.07141  0.38807  1.0000
  H   H2369     1.0  0.90232  0.09946  0.38109  1.0000
  H   H2370     1.0  0.87647  0.12093  0.33062  1.0000
  C   C2985     1.0  0.90559  0.15483  0.39628  1.0000
  H   H2371     1.0  0.93377  0.11370  0.36970  1.0000
  H   H2372     1.0  0.90872  0.16874  0.32254  1.0000
  C   C2986     1.0  0.91604  0.99793  0.42034  1.0000
  C   C2987     1.0  0.97263  0.99463  0.22687  1.0000
  C   C2988     1.0  0.91893  0.03427  0.98492  1.0000
  H   H2373     1.0  0.86063  0.14525  0.35915  1.0000
  H   H2374     1.0  0.94457  0.11902  0.39758  1.0000
  C   C2989     1.0  0.70404  0.16662  0.13840  1.0000
  H   H2375     1.0  0.85405  0.98905  0.40741  1.0000
  H   H2376     1.0  0.94752  0.09614  0.30388  1.0000
  H   H2377     1.0  0.91642  0.10435  0.32435  1.0000
  H   H2378     1.0  0.56817  0.10761  0.98877  1.0000
  S   S409      1.0  0.95235  0.17579  0.38857  1.0000
  H   H2379     1.0  0.55799  0.15070  0.99358  1.0000
  H   H2380     1.0  0.88739  0.99484  0.47470  1.0000
  Fe  Fe201     1.0  0.82501  0.16743  0.17521  1.0000
  C   C2990     1.0  0.55788  0.09196  0.05318  1.0000
  S   S410      1.0  0.98173  0.14493  0.34990  1.0000
  C   C2991     1.0  0.97323  0.06444  0.97908  1.0000
  C   C2992     1.0  0.93270  0.15899  0.27899  1.0000
  C   C2993     1.0  0.90017  0.01061  0.22098  1.0000
  H   H2381     1.0  0.93691  0.15062  0.33798  1.0000
  H   H2382     1.0  0.49151  0.00651  0.13027  1.0000
  H   H2383     1.0  0.73151  0.13846  0.99526  1.0000
  C   C2994     1.0  0.62734  0.16331  0.07426  1.0000
  C   C2995     1.0  0.79665  0.16344  0.98897  1.0000
  C   C2996     1.0  0.96363  0.09494  0.21059  1.0000
  C   C2997     1.0  0.92183  0.14299  0.40252  1.0000
  H   H2384     1.0  0.50654  0.03023  0.14540  1.0000
  H   H2385     1.0  0.58672  0.14732  0.08224  1.0000
  H   H2386     1.0  0.85983  0.10377  0.06908  1.0000
  C   C2998     1.0  0.83071  0.99562  0.35179  1.0000
  C   C2999     1.0  0.94066  0.99187  0.22353  1.0000
  C   C3000     1.0  0.52617  0.11973  0.99854  1.0000
  C   C3001     1.0  0.98074  0.98941  0.98763  1.0000
  H   H2387     1.0  0.83484  0.16321  0.26022  1.0000
  C   C3002     1.0  0.86800  0.13134  0.06676  1.0000
  C   C3003     1.0  0.98856  0.01563  0.03647  1.0000
  H   H2388     1.0  0.89530  0.99964  0.40232  1.0000
  H   H2389     1.0  0.98791  0.13907  0.20584  1.0000
  C   C3004     1.0  0.88621  0.10616  0.04941  1.0000
  H   H2390     1.0  0.87863  0.01655  0.43445  1.0000
  C   C3005     1.0  0.93944  0.03333  0.15098  1.0000
  H   H2391     1.0  0.98265  0.08271  0.00641  1.0000
  H   H2392     1.0  0.98308  0.06255  0.31213  1.0000
  C   C3006     1.0  0.92846  0.04916  0.98475  1.0000
  C   C3007     1.0  0.93667  0.08966  0.99294  1.0000
  H   H2393     1.0  0.94324  0.04216  0.13712  1.0000
  H   H2394     1.0  0.56688  0.09409  0.02293  1.0000
  H   H2395     1.0  0.52300  0.05680  0.02650  1.0000
  H   H2396     1.0  0.94496  0.00714  0.13981  1.0000
  C   C3008     1.0  0.55494  0.09253  0.03469  1.0000
  H   H2397     1.0  0.82855  0.99095  0.30671  1.0000
  H   H2398     1.0  0.91050  0.07863  0.00628  1.0000
  C   C3009     1.0  0.53667  0.09175  0.03155  1.0000
  C   C3010     1.0  0.85036  0.00936  0.44263  1.0000
  H   H2399     1.0  0.50715  0.09008  0.04520  1.0000
  H   H2400     1.0  0.85390  0.04184  0.24394  1.0000
  C   C3011     1.0  0.72004  0.14167  0.98705  1.0000
  H   H2401     1.0  0.95957  0.09310  0.17135  1.0000
  C   C3012     1.0  0.83770  0.11449  0.11757  1.0000
  C   C3013     1.0  0.55429  0.06625  0.98670  1.0000
  C   C3014     1.0  0.52143  0.09039  0.04724  1.0000
  H   H2402     1.0  0.64173  0.99023  0.46537  1.0000
  Fe  Fe202     1.0  0.97839  0.15536  0.37732  1.0000
  C   C3015     1.0  0.94191  0.98440  0.07063  1.0000
  H   H2403     1.0  0.51235  0.08976  0.07758  1.0000
  C   C3016     1.0  0.64807  0.13618  0.06143  1.0000
  H   H2404     1.0  0.82736  0.02257  0.36098  1.0000
  C   C3017     1.0  0.54257  0.09100  0.06863  1.0000
  H   H2405     1.0  0.82124  0.02616  0.30287  1.0000
  H   H2406     1.0  0.88547  0.08716  0.24674  1.0000
  H   H2407     1.0  0.96787  0.14226  0.31671  1.0000
  C   C3018     1.0  0.86687  0.03345  0.23736  1.0000
  H   H2408     1.0  0.49480  0.04164  0.02913  1.0000
  C   C3019     1.0  0.84830  0.03765  0.00733  1.0000
  C   C3020     1.0  0.87440  0.14745  0.10277  1.0000
  C   C3021     1.0  0.89797  0.13587  0.04482  1.0000
  H   H2409     1.0  0.85779  0.00608  0.13726  1.0000
  C   C3022     1.0  0.96941  0.05790  0.24398  1.0000
  C   C3023     1.0  0.98367  0.09346  0.20500  1.0000
  H   H2410     1.0  0.92295  0.03723  0.19758  1.0000
  C   C3024     1.0  0.88043  0.15697  0.11455  1.0000
  C   C3025     1.0  0.96304  0.06533  0.18997  1.0000
  C   C3026     1.0  0.52434  0.09014  0.06567  1.0000
  H   H2411     1.0  0.79441  0.17546  0.27750  1.0000
  H   H2412     1.0  0.82034  0.04212  0.32998  1.0000
  H   H2413     1.0  0.93705  0.11394  0.21877  1.0000
  C   C3027     1.0  0.50384  0.04572  0.14230  1.0000
  C   C3028     1.0  0.96994  0.06911  0.05443  1.0000
  C   C3029     1.0  0.91455  0.08175  0.23137  1.0000
  C   C3030     1.0  0.96121  0.12833  0.21268  1.0000
  H   H2414     1.0  0.74900  0.15371  0.02309  1.0000
  C   C3031     1.0  0.51847  0.05549  0.14258  1.0000
  C   C3032     1.0  0.96459  0.07781  0.17221  1.0000
  C   C3033     1.0  0.93181  0.12808  0.39299  1.0000
  H   H2415     1.0  0.63671  0.17128  0.09735  1.0000
  H   H2416     1.0  0.88714  0.16164  0.37555  1.0000
  S   S411      1.0  0.50870  0.14812  0.05754  1.0000
  H   H2417     1.0  0.80571  0.15138  0.09415  1.0000
  C   C3034     1.0  0.84235  0.16624  0.10858  1.0000
  H   H2418     1.0  0.88783  0.09196  0.04617  1.0000
  H   H2419     1.0  0.82295  0.11759  0.07543  1.0000
  C   C3035     1.0  0.87024  0.11298  0.06241  1.0000
  H   H2420     1.0  0.93723  0.07723  0.37043  1.0000
  H   H2421     1.0  0.83891  0.17538  0.34941  1.0000
  P   P101      1.0  0.53215  0.09434  0.00754  1.0000
  C   C3036     1.0  0.97102  0.04482  0.26103  1.0000
  C   C3037     1.0  0.95248  0.11246  0.21447  1.0000
  H   H2422     1.0  0.88384  0.03609  0.25728  1.0000
  H   H2423     1.0  0.52697  0.08307  0.13809  1.0000
  H   H2424     1.0  0.73212  0.08201  0.99754  1.0000
  P   P102      1.0  0.84765  0.14027  0.08388  1.0000
  H   H2425     1.0  0.85372  0.02849  0.21552  1.0000
  C   C3038     1.0  0.83609  0.12089  0.09823  1.0000
  C   C3039     1.0  0.94359  0.02994  0.01087  1.0000
  H   H2426     1.0  0.95322  0.02782  0.02088  1.0000
  C   C3040     1.0  0.82413  0.11307  0.09036  1.0000
  C   C3041     1.0  0.97859  0.03865  0.17365  1.0000
  C   C3042     1.0  0.56900  0.14615  0.11010  1.0000
  C   C3043     1.0  0.56869  0.09388  0.98499  1.0000
  C   C3044     1.0  0.91667  0.09106  0.99869  1.0000
  H   H2427     1.0  0.97340  0.11483  0.29997  1.0000
  H   H2428     1.0  0.91361  0.00605  0.99879  1.0000
  H   H2429     1.0  0.67342  0.12401  0.07395  1.0000
  C   C3045     1.0  0.66059  0.13495  0.07400  1.0000
  H   H2430     1.0  0.54260  0.05830  0.99167  1.0000
  C   C3046     1.0  0.91472  0.16483  0.27318  1.0000
  C   C3047     1.0  0.90036  0.01893  0.23660  1.0000
  C   C3048     1.0  0.65646  0.14772  0.08679  1.0000
  C   C3049     1.0  0.63982  0.16173  0.08707  1.0000
  Fe  Fe203     1.0  0.73974  0.17145  0.05542  1.0000
  C   C3050     1.0  0.71751  0.12820  0.97714  1.0000
  H   H2431     1.0  0.54479  0.09134  0.08279  1.0000
  H   H2432     1.0  0.91318  0.01647  0.24273  1.0000
  C   C3051     1.0  0.88373  0.03020  0.24484  1.0000
  H   H2433     1.0  0.82800  0.09621  0.14388  1.0000
  C   C3052     1.0  0.92661  0.08247  0.21332  1.0000
  H   H2434     1.0  0.89819  0.16670  0.40338  1.0000
  C   C3053     1.0  0.66874  0.18099  0.03475  1.0000
  H   H2435     1.0  0.97911  0.99359  0.02742  1.0000
  H   H2436     1.0  0.93219  0.05705  0.16599  1.0000
  C   C3054     1.0  0.86644  0.15654  0.34861  1.0000
  H   H2437     1.0  0.82392  0.99806  0.45149  1.0000
  H   H2438     1.0  0.94053  0.14460  0.27882  1.0000
  C   C3055     1.0  0.95648  0.05669  0.23258  1.0000
  H   H2439     1.0  0.84685  0.12025  0.12403  1.0000
  S   S412      1.0  0.68518  0.09054  0.99292  1.0000
  H   H2440     1.0  0.66615  0.14671  0.09658  1.0000
  C   C3056     1.0  0.76230  0.15645  0.01370  1.0000
  P   P103      1.0  0.95238  0.07473  0.21168  1.0000
  H   H2441     1.0  0.61292  0.11961  0.00569  1.0000
  P   P104      1.0  0.92166  0.99648  0.20981  1.0000
  C   C3057     1.0  0.71694  0.15132  0.14631  1.0000
  C   C3058     1.0  0.94043  0.01364  0.15248  1.0000
  C   C3059     1.0  0.96487  0.08090  0.35305  1.0000
  C   C3060     1.0  0.89864  0.09667  0.19840  1.0000
  C   C3061     1.0  0.81526  0.00563  0.23509  1.0000
  H   H2442     1.0  0.93569  0.00213  0.02166  1.0000
  C   C3062     1.0  0.82298  0.02661  0.33191  1.0000
  H   H2443     1.0  0.82745  0.16981  0.10676  1.0000
  C   C3063     1.0  0.90503  0.14166  0.22789  1.0000
  C   C3064     1.0  0.90845  0.15451  0.23814  1.0000
  H   H2444     1.0  0.92706  0.14576  0.41435  1.0000
  P   P105      1.0  0.90422  0.14905  0.26395  1.0000
  C   C3065     1.0  0.87879  0.15275  0.27363  1.0000
  C   C3066     1.0  0.91525  0.12427  0.27015  1.0000
  C   C3067     1.0  0.93423  0.11804  0.26143  1.0000
  C   C3068     1.0  0.94269  0.09872  0.26506  1.0000
  C   C3069     1.0  0.93224  0.08545  0.27740  1.0000
  C   C3070     1.0  0.91340  0.09155  0.28622  1.0000
  C   C3071     1.0  0.90481  0.11081  0.28247  1.0000
  H   H2445     1.0  0.90876  0.14469  0.03802  1.0000
  C   C3072     1.0  0.94046  0.04732  0.99808  1.0000
  C   C3073     1.0  0.83941  0.15761  0.28938  1.0000
  C   C3074     1.0  0.85306  0.15333  0.30133  1.0000
  C   C3075     1.0  0.87268  0.15110  0.29349  1.0000
  H   H2446     1.0  0.80598  0.08346  0.12988  1.0000
  S   S413      1.0  0.73313  0.17936  0.08466  1.0000
  C   C3076     1.0  0.98117  0.12674  0.20723  1.0000
  C   C3077     1.0  0.63143  0.15022  0.06161  1.0000
  H   H2447     1.0  0.88894  0.10920  0.99819  1.0000
  C   C3078     1.0  0.90861  0.14538  0.20790  1.0000
  H   H2448     1.0  0.90593  0.13543  0.20004  1.0000
  C   C3079     1.0  0.85728  0.99644  0.15089  1.0000
  C   C3080     1.0  0.86743  0.17089  0.12356  1.0000
  H   H2449     1.0  0.89949  0.12878  0.23535  1.0000
  S   S414      1.0  0.52597  0.17940  0.07363  1.0000
  H   H2450     1.0  0.94248  0.12817  0.25184  1.0000
  H   H2451     1.0  0.95743  0.09410  0.25852  1.0000
  H   H2452     1.0  0.93879  0.07049  0.28043  1.0000
  H   H2453     1.0  0.90540  0.08131  0.29604  1.0000
  H   H2454     1.0  0.88999  0.11488  0.28909  1.0000
  C   C3081     1.0  0.86500  0.15737  0.26168  1.0000
  H   H2455     1.0  0.95247  0.14192  0.21542  1.0000
  C   C3082     1.0  0.95462  0.06010  0.05477  1.0000
  H   H2456     1.0  0.84843  0.15159  0.31668  1.0000
  H   H2457     1.0  0.88315  0.14780  0.30286  1.0000
  H   H2458     1.0  0.57192  0.09307  0.05544  1.0000
  H   H2459     1.0  0.86919  0.15921  0.24628  1.0000
  H   H2460     1.0  0.82422  0.15917  0.29545  1.0000
  C   C3083     1.0  0.51181  0.08310  0.00876  1.0000
  C   C3084     1.0  0.79218  0.05947  0.09318  1.0000
  C   C3085     1.0  0.77410  0.05410  0.09945  1.0000
  C   C3086     1.0  0.76242  0.05490  0.08620  1.0000
  C   C3087     1.0  0.76880  0.06106  0.06669  1.0000
  C   C3088     1.0  0.78698  0.06647  0.06030  1.0000
  C   C3089     1.0  0.79859  0.06565  0.07372  1.0000
  P   P106      1.0  0.79479  0.07619  0.03542  1.0000
  C   C3090     1.0  0.81578  0.06095  0.02459  1.0000
  C   C3091     1.0  0.77558  0.07851  0.02241  1.0000
  C   C3092     1.0  0.76088  0.09462  0.02237  1.0000
  C   C3093     1.0  0.74542  0.09589  0.01323  1.0000
  C   C3094     1.0  0.74444  0.08115  0.00414  1.0000
  C   C3095     1.0  0.75897  0.06501  0.00419  1.0000
  C   C3096     1.0  0.77441  0.06359  0.01345  1.0000
  C   C3097     1.0  0.82107  0.06348  0.00456  1.0000
  C   C3098     1.0  0.83727  0.05191  0.99601  1.0000
  C   C3099     1.0  0.82351  0.01761  0.31663  1.0000
  C   C3100     1.0  0.84304  0.03483  0.02723  1.0000
  C   C3101     1.0  0.82686  0.04639  0.03585  1.0000
  C   C3102     1.0  0.80008  0.09975  0.03413  1.0000
  C   C3103     1.0  0.81140  0.10845  0.01773  1.0000
  C   C3104     1.0  0.81660  0.12601  0.01728  1.0000
  C   C3105     1.0  0.80997  0.13541  0.03286  1.0000
  C   C3106     1.0  0.79818  0.12722  0.04900  1.0000
  C   C3107     1.0  0.79311  0.10954  0.04963  1.0000
  H   H2461     1.0  0.80113  0.05930  0.10336  1.0000
  H   H2462     1.0  0.76901  0.04964  0.11458  1.0000
  H   H2463     1.0  0.74821  0.05116  0.09105  1.0000
  H   H2464     1.0  0.75925  0.06202  0.05681  1.0000
  H   H2465     1.0  0.81244  0.07026  0.06915  1.0000
  H   H2466     1.0  0.76102  0.10598  0.02982  1.0000
  H   H2467     1.0  0.73382  0.10801  0.01386  1.0000
  Fe  Fe204     1.0  0.70413  0.17195  0.08599  1.0000
  H   H2468     1.0  0.71630  0.13678  0.14539  1.0000
  H   H2469     1.0  0.78520  0.05069  0.01389  1.0000
  H   H2470     1.0  0.81277  0.07452  0.99549  1.0000
  C   C3108     1.0  0.82157  0.18072  0.04402  1.0000
  H   H2471     1.0  0.76266  0.17607  0.11187  1.0000
  H   H2472     1.0  0.85191  0.02412  0.03602  1.0000
  H   H2473     1.0  0.82342  0.04402  0.05125  1.0000
  H   H2474     1.0  0.81638  0.10179  0.00524  1.0000
  H   H2475     1.0  0.82535  0.13261  0.00458  1.0000
  H   H2476     1.0  0.81357  0.14926  0.03219  1.0000
  H   H2477     1.0  0.93670  0.05300  0.03835  1.0000
  H   H2478     1.0  0.78361  0.10374  0.06220  1.0000
  H   H2479     1.0  0.78034  0.18141  0.24816  1.0000
  H   H2480     1.0  0.93860  0.01761  0.25986  1.0000
  H   H2481     1.0  0.89253  0.10309  0.18569  1.0000
  H   H2482     1.0  0.87135  0.10026  0.21740  1.0000
  C   C3109     1.0  0.51685  0.13242  0.01111  1.0000
  H   H2483     1.0  0.89513  0.15328  0.11705  1.0000
  C   C3110     1.0  0.84538  0.15977  0.26957  1.0000
  S   S415      1.0  0.56465  0.13498  0.06124  1.0000
  C   C3111     1.0  0.79314  0.16871  0.14386  1.0000
  S   S416      1.0  0.85081  0.18071  0.17445  1.0000
  C   C3112     1.0  0.97288  0.06603  0.32467  1.0000
  C   C3113     1.0  0.94712  0.07442  0.35749  1.0000
  C   C3114     1.0  0.92787  0.03046  0.18509  1.0000
  C   C3115     1.0  0.93478  0.00239  0.17018  1.0000
  C   C3116     1.0  0.57126  0.16957  0.12822  1.0000
  Fe  Fe205     1.0  0.49924  0.17825  0.06329  1.0000
  C   C3117     1.0  0.79656  0.17210  0.07061  1.0000
  C   C3118     1.0  0.86673  0.02577  0.22141  1.0000
  C   C3119     1.0  0.88338  0.01458  0.21306  1.0000
  C   C3120     1.0  0.94919  0.05929  0.03768  1.0000
  P   P107      1.0  0.95238  0.06688  0.99780  1.0000
  H   H2484     1.0  0.55276  0.14849  0.13833  1.0000
  C   C3121     1.0  0.81037  0.15938  0.08010  1.0000
  C   C3122     1.0  0.92141  0.01737  0.99830  1.0000
  C   C3123     1.0  0.95975  0.06667  0.02002  1.0000
  C   C3124     1.0  0.93234  0.00477  0.42179  1.0000
  H   H2485     1.0  0.88060  0.15698  0.06085  1.0000
  C   C3125     1.0  0.51225  0.15206  0.00419  1.0000
  C   C3126     1.0  0.82991  0.15688  0.07144  1.0000
  C   C3127     1.0  0.49634  0.09280  0.99960  1.0000
  H   H2486     1.0  0.84166  0.05436  0.98060  1.0000
  H   H2487     1.0  0.69315  0.16390  0.13169  1.0000
  H   H2488     1.0  0.93475  0.98743  0.17071  1.0000
  C   C3128     1.0  0.89348  0.16964  0.32808  1.0000
  C   C3129     1.0  0.93195  0.02483  0.39049  1.0000
  H   H2489     1.0  0.88455  0.13614  0.09659  1.0000
  C   C3130     1.0  0.90013  0.11753  0.04072  1.0000
  H   H2490     1.0  0.91260  0.11210  0.03085  1.0000
  H   H2491     1.0  0.82979  0.98937  0.15080  1.0000
  H   H2492     1.0  0.86834  0.99307  0.26597  1.0000
  C   C3131     1.0  0.91520  0.16213  0.19797  1.0000
  C   C3132     1.0  0.51677  0.15916  0.98463  1.0000
  H   H2493     1.0  0.96074  0.02061  0.28024  1.0000
  C   C3133     1.0  0.70744  0.15918  0.98682  1.0000
  Fe  Fe206     1.0  0.51008  0.16871  0.10264  1.0000
  C   C3134     1.0  0.85542  0.15236  0.09931  1.0000
  C   C3135     1.0  0.56332  0.15417  0.12668  1.0000
  C   C3136     1.0  0.88199  0.14276  0.05776  1.0000
  S   S417      1.0  0.90414  0.99266  0.27945  1.0000
  C   C3137     1.0  0.94086  0.17193  0.28508  1.0000
  C   C3138     1.0  0.77045  0.17190  0.01475  1.0000
  C   C3139     1.0  0.55323  0.08395  0.99211  1.0000
  C   C3140     1.0  0.91852  0.17507  0.20805  1.0000
  S   S418      1.0  0.97122  0.09188  0.36992  1.0000
  H   H2494     1.0  0.81410  0.99424  0.24747  1.0000
  C   C3141     1.0  0.91570  0.01816  0.38897  1.0000
  H   H2495     1.0  0.72673  0.11432  0.97787  1.0000
  C   C3142     1.0  0.83950  0.99471  0.44931  1.0000
  H   H2496     1.0  0.49583  0.10123  0.12966  1.0000
  C   C3143     1.0  0.66978  0.17705  0.01654  1.0000
  H   H2497     1.0  0.98602  0.99990  0.22105  1.0000
  C   C3144     1.0  0.53034  0.12694  0.97885  1.0000
  H   H2498     1.0  0.66778  0.16964  0.04715  1.0000
  H   H2499     1.0  0.95486  0.16754  0.28928  1.0000
  C   C3145     1.0  0.94428  0.10626  0.98387  1.0000
  C   C3146     1.0  0.97763  0.07685  0.33639  1.0000
  S   S419      1.0  0.63540  0.08811  0.97953  1.0000
  H   H2500     1.0  0.98407  0.02348  0.17413  1.0000
  H   H2501     1.0  0.80988  0.16614  0.97941  1.0000
  Fe  Fe207     1.0  0.98881  0.11551  0.36731  1.0000
  C   C3147     1.0  0.97957  0.05109  0.15603  1.0000
  C   C3148     1.0  0.84838  0.17546  0.12064  1.0000
  H   H2502     1.0  0.97792  0.06915  0.24012  1.0000
  H   H2503     1.0  0.74374  0.17657  0.97667  1.0000
  H   H2504     1.0  0.83409  0.98756  0.36534  1.0000
  S   S420      1.0  0.51023  0.17940  0.12988  1.0000
  C   C3149     1.0  0.94022  0.01819  0.40691  1.0000
  H   H2505     1.0  0.70936  0.16927  0.99494  1.0000
  C   C3150     1.0  0.90777  0.00479  0.40383  1.0000
  H   H2506     1.0  0.98498  0.00317  0.98613  1.0000
  H   H2507     1.0  0.56712  0.17561  0.14119  1.0000
  H   H2508     1.0  0.51336  0.17439  0.97931  1.0000
  H   H2509     1.0  0.91744  0.16515  0.18245  1.0000
  C   C3151     1.0  0.96995  0.98386  0.24537  1.0000
  H   H2510     1.0  0.85031  0.16641  0.04637  1.0000
  C   C3152     1.0  0.83542  0.16784  0.05338  1.0000
  C   C3153     1.0  0.78759  0.17547  0.00231  1.0000
  C   C3154     1.0  0.49526  0.05592  0.02093  1.0000
  H   H2511     1.0  0.66961  0.16255  0.01512  1.0000
  C   C3155     1.0  0.78129  0.17847  0.13052  1.0000
  H   H2512     1.0  0.87210  0.17790  0.13302  1.0000
  H   H2513     1.0  0.64163  0.17033  0.99987  1.0000
  H   H2514     1.0  0.90250  0.13814  0.98073  1.0000
  C   C3156     1.0  0.63976  0.17421  0.98512  1.0000
  H   H2515     1.0  0.56826  0.17750  0.06581  1.0000
  P   P108      1.0  0.60527  0.18062  0.07546  1.0000
  C   C3157     1.0  0.69240  0.16343  0.97635  1.0000
  C   C3158     1.0  0.62338  0.17044  0.98034  1.0000
  H   H2516     1.0  0.50752  0.05021  0.52309  1.0000
  H   H2517     1.0  0.92007  0.09027  0.55336  1.0000
  H   H2518     1.0  0.65532  0.17188  0.57613  1.0000
  C   C3159     1.0  0.53096  0.04354  0.57022  1.0000
  C   C3160     1.0  0.96756  0.05292  0.55323  1.0000
  S   S421      1.0  0.53911  0.12903  0.54106  1.0000
  H   H2519     1.0  0.67657  0.05098  0.61443  1.0000
  C   C3161     1.0  0.64815  0.05545  0.81822  1.0000
  Fe  Fe208     1.0  0.83037  0.12619  0.95985  1.0000
  C   C3162     1.0  0.49728  0.98275  0.89406  1.0000
  Fe  Fe209     1.0  0.87023  0.13465  0.94159  1.0000
  S   S422      1.0  0.88166  0.10453  0.93679  1.0000
  S   S423      1.0  0.88842  0.15788  0.93252  1.0000
  Fe  Fe210     1.0  0.85366  0.10636  0.92726  1.0000
  S   S424      1.0  0.85203  0.09160  0.90342  1.0000
  C   C3163     1.0  0.66556  0.02822  0.80341  1.0000
  S   S425      1.0  0.84336  0.13724  0.92957  1.0000
  C   C3164     1.0  0.60118  0.17655  0.52062  1.0000
  C   C3165     1.0  0.70295  0.13255  0.96626  1.0000
  H   H2520     1.0  0.96720  0.00402  0.56337  1.0000
  Fe  Fe211     1.0  0.78479  0.15288  0.83106  1.0000
  H   H2521     1.0  0.62009  0.15647  0.90493  1.0000
  S   S426      1.0  0.80625  0.12530  0.83471  1.0000
  C   C3166     1.0  0.70899  0.16399  0.87317  1.0000
  H   H2522     1.0  0.53503  0.00651  0.60793  1.0000
  H   H2523     1.0  0.56707  0.03102  0.51505  1.0000
  S   S427      1.0  0.75322  0.15197  0.83984  1.0000
  C   C3167     1.0  0.80869  0.06255  0.91369  1.0000
  Fe  Fe212     1.0  0.65798  0.11825  0.93238  1.0000
  S   S428      1.0  0.66900  0.13240  0.90246  1.0000
  S   S429      1.0  0.62973  0.10871  0.93580  1.0000
  C   C3168     1.0  0.96286  0.06632  0.56555  1.0000
  C   C3169     1.0  0.57120  0.00912  0.74223  1.0000
  H   H2524     1.0  0.59767  0.07245  0.89680  1.0000
  S   S430      1.0  0.59894  0.04068  0.87909  1.0000
  C   C3170     1.0  0.75937  0.09671  0.88189  1.0000
  C   C3171     1.0  0.63549  0.01241  0.74600  1.0000
  C   C3172     1.0  0.52160  0.08726  0.53504  1.0000
  S   S431      1.0  0.62205  0.99937  0.57409  1.0000
  Fe  Fe213     1.0  0.66394  0.12747  0.70753  1.0000
  S   S432      1.0  0.68895  0.10343  0.71119  1.0000
  S   S433      1.0  0.66928  0.14979  0.68094  1.0000
  Fe  Fe214     1.0  0.63932  0.10994  0.74391  1.0000
  S   S434      1.0  0.66267  0.08484  0.75003  1.0000
  S   S435      1.0  0.60959  0.11466  0.76193  1.0000
  Fe  Fe215     1.0  0.68236  0.10686  0.74217  1.0000
  S   S436      1.0  0.70695  0.10648  0.75785  1.0000
  Fe  Fe216     1.0  0.66681  0.08424  0.71843  1.0000
  S   S437      1.0  0.67011  0.05683  0.70648  1.0000
  S   S438      1.0  0.65857  0.13197  0.73792  1.0000
  S   S439      1.0  0.64221  0.10812  0.71298  1.0000
  S   S440      1.0  0.56856  0.04369  0.80268  1.0000
  Fe  Fe217     1.0  0.58837  0.00714  0.63998  1.0000
  C   C3173     1.0  0.55906  0.02077  0.69369  1.0000
  Fe  Fe218     1.0  0.57640  0.04609  0.61624  1.0000
  S   S441      1.0  0.60626  0.04651  0.59941  1.0000
  S   S442      1.0  0.55039  0.06966  0.61697  1.0000
  Fe  Fe219     1.0  0.60721  0.01540  0.59857  1.0000
  Fe  Fe220     1.0  0.61579  0.03616  0.62801  1.0000
  S   S443      1.0  0.63480  0.05480  0.63396  1.0000
  S   S444      1.0  0.57637  0.01617  0.61281  1.0000
  S   S445      1.0  0.58581  0.03711  0.64464  1.0000
  C   C3174     1.0  0.74478  0.09450  0.89805  1.0000
  Fe  Fe221     1.0  0.66314  0.09964  0.97316  1.0000
  C   C3175     1.0  0.94586  0.07983  0.56547  1.0000
  C   C3176     1.0  0.95463  0.05270  0.54143  1.0000
  C   C3177     1.0  0.74564  0.12114  0.92759  1.0000
  C   C3178     1.0  0.65885  0.05638  0.68717  1.0000
  C   C3179     1.0  0.65097  0.07328  0.67604  1.0000
  C   C3180     1.0  0.64287  0.07258  0.66029  1.0000
  C   C3181     1.0  0.64213  0.05495  0.65572  1.0000
  C   C3182     1.0  0.64971  0.03804  0.66708  1.0000
  C   C3183     1.0  0.65797  0.03873  0.68273  1.0000
  H   H2525     1.0  0.65153  0.08688  0.67935  1.0000
  H   H2526     1.0  0.63747  0.08579  0.65143  1.0000
  H   H2527     1.0  0.65040  0.02450  0.66302  1.0000
  H   H2528     1.0  0.66414  0.02556  0.69115  1.0000
  C   C3184     1.0  0.59900  0.09469  0.77450  1.0000
  C   C3185     1.0  0.57893  0.09727  0.77980  1.0000
  C   C3186     1.0  0.56978  0.08167  0.78902  1.0000
  C   C3187     1.0  0.58062  0.06339  0.79353  1.0000
  C   C3188     1.0  0.60075  0.06094  0.78915  1.0000
  C   C3189     1.0  0.60996  0.07649  0.77934  1.0000
  H   H2529     1.0  0.57035  0.11129  0.77633  1.0000
  H   H2530     1.0  0.55423  0.08370  0.79242  1.0000
  H   H2531     1.0  0.60906  0.04689  0.79291  1.0000
  H   H2532     1.0  0.62547  0.07444  0.77564  1.0000
  C   C3190     1.0  0.61153  0.04310  0.89672  1.0000
  H   H2533     1.0  0.64228  0.07061  0.81691  1.0000
  H   H2534     1.0  0.62746  0.01433  0.90046  1.0000
  Fe  Fe222     1.0  0.64383  0.08038  0.95002  1.0000
  S   S446      1.0  0.61942  0.00500  0.62574  1.0000
  C   C3191     1.0  0.63086  0.04888  0.92457  1.0000
  C   C3192     1.0  0.63421  0.03099  0.91875  1.0000
  C   C3193     1.0  0.60811  0.06091  0.90267  1.0000
  C   C3194     1.0  0.61785  0.06389  0.91629  1.0000
  H   H2535     1.0  0.64417  0.01925  0.92511  1.0000
  H   H2536     1.0  0.50901  0.11697  0.52765  1.0000
  C   C3195     1.0  0.70141  0.01367  0.65237  1.0000
  C   C3196     1.0  0.72126  0.15258  0.78520  1.0000
  C   C3197     1.0  0.70377  0.15559  0.77848  1.0000
  C   C3198     1.0  0.69896  0.14148  0.77061  1.0000
  C   C3199     1.0  0.71184  0.12435  0.76870  1.0000
  C   C3200     1.0  0.72922  0.12121  0.77563  1.0000
  C   C3201     1.0  0.73386  0.13515  0.78393  1.0000
  H   H2537     1.0  0.79338  0.02115  0.91486  1.0000
  H   H2538     1.0  0.68523  0.14371  0.76616  1.0000
  H   H2539     1.0  0.73924  0.10795  0.77445  1.0000
  H   H2540     1.0  0.74733  0.13252  0.78905  1.0000
  C   C3202     1.0  0.61086  0.98749  0.56168  1.0000
  C   C3203     1.0  0.62674  0.98475  0.68387  1.0000
  C   C3204     1.0  0.69407  0.15336  0.87805  1.0000
  C   C3205     1.0  0.68711  0.14638  0.89725  1.0000
  C   C3206     1.0  0.69473  0.15054  0.91165  1.0000
  C   C3207     1.0  0.52120  0.03547  0.61029  1.0000
  C   C3208     1.0  0.63986  0.17350  0.58074  1.0000
  H   H2541     1.0  0.68810  0.15027  0.86687  1.0000
  H   H2542     1.0  0.68937  0.14511  0.92643  1.0000
  C   C3209     1.0  0.60473  0.16886  0.53913  1.0000
  C   C3210     1.0  0.91358  0.14986  0.92928  1.0000
  C   C3211     1.0  0.92131  0.13076  0.93563  1.0000
  C   C3212     1.0  0.94134  0.12453  0.93250  1.0000
  C   C3213     1.0  0.95383  0.13726  0.92290  1.0000
  C   C3214     1.0  0.94616  0.15647  0.91680  1.0000
  C   C3215     1.0  0.92607  0.16277  0.92018  1.0000
  H   H2543     1.0  0.91192  0.12077  0.94308  1.0000
  C   C3216     1.0  0.71674  0.16812  0.88749  1.0000
  C   C3217     1.0  0.90754  0.98476  0.49389  1.0000
  C   C3218     1.0  0.83809  0.10178  0.88537  1.0000
  C   C3219     1.0  0.83568  0.08987  0.87365  1.0000
  C   C3220     1.0  0.82517  0.09723  0.85881  1.0000
  C   C3221     1.0  0.81727  0.11673  0.85512  1.0000
  C   C3222     1.0  0.81957  0.12878  0.86683  1.0000
  C   C3223     1.0  0.82981  0.12121  0.88212  1.0000
  H   H2544     1.0  0.84204  0.07484  0.87601  1.0000
  H   H2545     1.0  0.82357  0.08782  0.84981  1.0000
  H   H2546     1.0  0.81379  0.14391  0.86390  1.0000
  H   H2547     1.0  0.83151  0.13031  0.89133  1.0000
  S   S447      1.0  0.56531  0.02099  0.85702  1.0000
  C   C3224     1.0  0.73242  0.06981  0.93472  1.0000
  H   H2548     1.0  0.98370  0.09835  0.82683  1.0000
  H   H2549     1.0  0.57144  0.03523  0.56452  1.0000
  S   S448      1.0  0.67263  0.08941  0.94490  1.0000
  H   H2550     1.0  0.73814  0.12562  0.91556  1.0000
  H   H2551     1.0  0.52931  0.15209  0.95680  1.0000
  C   C3225     1.0  0.60709  0.01563  0.68741  1.0000
  C   C3226     1.0  0.96808  0.99156  0.59275  1.0000
  C   C3227     1.0  0.76249  0.09654  0.94946  1.0000
  C   C3228     1.0  0.55555  0.98759  0.77686  1.0000
  H   H2552     1.0  0.95657  0.09825  0.89715  1.0000
  C   C3229     1.0  0.83117  0.16045  0.75954  1.0000
  C   C3230     1.0  0.59982  0.17822  0.59203  1.0000
  H   H2553     1.0  0.66473  0.17495  0.76114  1.0000
  Fe  Fe223     1.0  0.74965  0.17169  0.81196  1.0000
  C   C3231     1.0  0.54257  0.11332  0.56254  1.0000
  C   C3232     1.0  0.52878  0.11428  0.57918  1.0000
  C   C3233     1.0  0.53138  0.10082  0.59586  1.0000
  C   C3234     1.0  0.54783  0.08647  0.59595  1.0000
  C   C3235     1.0  0.56174  0.08565  0.57936  1.0000
  C   C3236     1.0  0.55908  0.09906  0.56267  1.0000
  H   H2554     1.0  0.57441  0.07460  0.57935  1.0000
  H   H2555     1.0  0.56973  0.09826  0.54976  1.0000
  S   S449      1.0  0.85619  0.12647  0.97226  1.0000
  C   C3237     1.0  0.62472  0.02813  0.90480  1.0000
  C   C3238     1.0  0.60201  0.09484  0.82295  1.0000
  H   H2556     1.0  0.60418  0.04232  0.55741  1.0000
  H   H2557     1.0  0.67977  0.99210  0.75632  1.0000
  C   C3239     1.0  0.68516  0.02095  0.62517  1.0000
  H   H2558     1.0  0.77577  0.15161  0.88143  1.0000
  H   H2559     1.0  0.56749  0.98586  0.55137  1.0000
  H   H2560     1.0  0.55810  0.07593  0.51427  1.0000
  P   P109      1.0  0.91325  0.16676  0.86166  1.0000
  H   H2561     1.0  0.82895  0.17826  0.81927  1.0000
  C   C3240     1.0  0.92691  0.14511  0.87317  1.0000
  C   C3241     1.0  0.94706  0.14120  0.86792  1.0000
  C   C3242     1.0  0.95769  0.12433  0.87651  1.0000
  C   C3243     1.0  0.94827  0.11105  0.89011  1.0000
  C   C3244     1.0  0.92822  0.11465  0.89519  1.0000
  C   C3245     1.0  0.91757  0.13169  0.88693  1.0000
  C   C3246     1.0  0.55692  0.00619  0.51268  1.0000
  C   C3247     1.0  0.57534  0.04585  0.55215  1.0000
  H   H2562     1.0  0.95626  0.00157  0.97381  1.0000
  H   H2563     1.0  0.58335  0.17779  0.50001  1.0000
  H   H2564     1.0  0.61395  0.06674  0.52932  1.0000
  C   C3248     1.0  0.53950  0.16152  0.59794  1.0000
  C   C3249     1.0  0.97242  0.00473  0.57601  1.0000
  H   H2565     1.0  0.62597  0.00953  0.66149  1.0000
  C   C3250     1.0  0.71621  0.06134  0.74533  1.0000
  C   C3251     1.0  0.93629  0.15563  0.80770  1.0000
  C   C3252     1.0  0.92978  0.15345  0.82748  1.0000
  S   S450      1.0  0.97889  0.12861  0.91902  1.0000
  H   H2566     1.0  0.55413  0.99600  0.72938  1.0000
  H   H2567     1.0  0.95746  0.04194  0.53247  1.0000
  H   H2568     1.0  0.68876  0.16342  0.81733  1.0000
  C   C3253     1.0  0.65243  0.02374  0.83750  1.0000
  H   H2569     1.0  0.95460  0.15131  0.85733  1.0000
  H   H2570     1.0  0.52126  0.98318  0.90697  1.0000
  H   H2571     1.0  0.83356  0.16208  0.87745  1.0000
  H   H2572     1.0  0.92094  0.10457  0.90608  1.0000
  H   H2573     1.0  0.90212  0.13437  0.89159  1.0000
  C   C3254     1.0  0.85679  0.16870  0.88750  1.0000
  C   C3255     1.0  0.66122  0.01582  0.76845  1.0000
  H   H2574     1.0  0.70177  0.04198  0.79178  1.0000
  H   H2575     1.0  0.70580  0.11341  0.87638  1.0000
  H   H2576     1.0  0.79060  0.08972  0.91590  1.0000
  C   C3256     1.0  0.50804  0.06462  0.52434  1.0000
  C   C3257     1.0  0.72077  0.10866  0.87788  1.0000
  C   C3258     1.0  0.93420  0.17386  0.79634  1.0000
  H   H2577     1.0  0.94303  0.14320  0.80120  1.0000
  H   H2578     1.0  0.93127  0.13919  0.83602  1.0000
  C   C3259     1.0  0.67049  0.05777  0.86985  1.0000
  C   C3260     1.0  0.67386  0.05653  0.88831  1.0000
  C   C3261     1.0  0.66731  0.07228  0.89757  1.0000
  C   C3262     1.0  0.65681  0.08906  0.88869  1.0000
  C   C3263     1.0  0.65278  0.09018  0.87043  1.0000
  C   C3264     1.0  0.66024  0.07465  0.86081  1.0000
  P   P110      1.0  0.63887  0.11165  0.85904  1.0000
  C   C3265     1.0  0.62247  0.12309  0.87759  1.0000
  C   C3266     1.0  0.65469  0.12774  0.84490  1.0000
  C   C3267     1.0  0.64713  0.14706  0.83875  1.0000
  C   C3268     1.0  0.65937  0.15987  0.82878  1.0000
  C   C3269     1.0  0.67922  0.15346  0.82478  1.0000
  C   C3270     1.0  0.68683  0.13418  0.83045  1.0000
  C   C3271     1.0  0.67466  0.12134  0.84055  1.0000
  C   C3272     1.0  0.60508  0.11671  0.88634  1.0000
  C   C3273     1.0  0.59312  0.12476  0.90151  1.0000
  C   C3274     1.0  0.59838  0.13925  0.90810  1.0000
  C   C3275     1.0  0.61560  0.14573  0.89945  1.0000
  C   C3276     1.0  0.62760  0.13768  0.88432  1.0000
  C   C3277     1.0  0.62492  0.10493  0.84449  1.0000
  C   C3278     1.0  0.62250  0.11581  0.82641  1.0000
  C   C3279     1.0  0.61110  0.11072  0.81568  1.0000
  C   C3280     1.0  0.61618  0.08864  0.85133  1.0000
  H   H2579     1.0  0.67562  0.04559  0.86263  1.0000
  H   H2580     1.0  0.68136  0.04333  0.89556  1.0000
  H   H2581     1.0  0.66987  0.07131  0.91189  1.0000
  H   H2582     1.0  0.65169  0.10100  0.89622  1.0000
  H   H2583     1.0  0.65792  0.07549  0.84644  1.0000
  H   H2584     1.0  0.63180  0.15228  0.84199  1.0000
  C   C3281     1.0  0.49506  0.07976  0.51610  1.0000
  P   P111      1.0  0.86533  0.17112  0.79275  1.0000
  H   H2585     1.0  0.70223  0.12928  0.82708  1.0000
  H   H2586     1.0  0.68093  0.10656  0.84507  1.0000
  H   H2587     1.0  0.60082  0.10530  0.88183  1.0000
  H   H2588     1.0  0.57996  0.11943  0.90845  1.0000
  H   H2589     1.0  0.58942  0.14505  0.92025  1.0000
  H   H2590     1.0  0.68673  0.15724  0.73444  1.0000
  H   H2591     1.0  0.64119  0.14246  0.87835  1.0000
  H   H2592     1.0  0.62933  0.12817  0.82051  1.0000
  H   H2593     1.0  0.60926  0.11907  0.80172  1.0000
  H   H2594     1.0  0.61815  0.07971  0.86499  1.0000
  H   H2595     1.0  0.68756  0.03200  0.74048  1.0000
  H   H2596     1.0  0.93788  0.13632  0.97193  1.0000
  C   C3282     1.0  0.60613  0.98915  0.71416  1.0000
  S   S451      1.0  0.64271  0.05164  0.94262  1.0000
  C   C3283     1.0  0.69400  0.00730  0.63897  1.0000
  Fe  Fe224     1.0  0.75199  0.17840  0.85148  1.0000
  C   C3284     1.0  0.70934  0.16171  0.90678  1.0000
  S   S452      1.0  0.58253  0.98959  0.82847  1.0000
  C   C3285     1.0  0.62152  0.16620  0.75757  1.0000
  C   C3286     1.0  0.59094  0.99106  0.56244  1.0000
  H   H2597     1.0  0.59069  0.08362  0.50795  1.0000
  H   H2598     1.0  0.61331  0.15418  0.62482  1.0000
  C   C3287     1.0  0.56786  0.06875  0.52401  1.0000
  C   C3288     1.0  0.72379  0.05989  0.92525  1.0000
  C   C3289     1.0  0.98389  0.01824  0.57551  1.0000
  H   H2599     1.0  0.76189  0.04241  0.91919  1.0000
  Fe  Fe225     1.0  0.86587  0.09640  0.96671  1.0000
  H   H2600     1.0  0.56745  0.00654  0.69327  1.0000
  C   C3290     1.0  0.78889  0.13781  0.90585  1.0000
  C   C3291     1.0  0.55573  0.02260  0.52027  1.0000
  H   H2601     1.0  0.57269  0.00020  0.78989  1.0000
  H   H2602     1.0  0.59294  0.09101  0.81486  1.0000
  H   H2603     1.0  0.88237  0.17426  0.89407  1.0000
  H   H2604     1.0  0.54398  0.01345  0.57284  1.0000
  C   C3292     1.0  0.54024  0.02769  0.53469  1.0000
  C   C3293     1.0  0.86056  0.15669  0.85822  1.0000
  C   C3294     1.0  0.68807  0.18005  0.70988  1.0000
  H   H2605     1.0  0.71434  0.16920  0.85829  1.0000
  C   C3295     1.0  0.52708  0.99994  0.53346  1.0000
  S   S453      1.0  0.59428  0.13509  0.97276  1.0000
  C   C3296     1.0  0.64517  0.04333  0.83595  1.0000
  H   H2606     1.0  0.52832  0.07145  0.69437  1.0000
  H   H2607     1.0  0.67929  0.15322  0.95732  1.0000
  C   C3297     1.0  0.59398  0.04993  0.54820  1.0000
  C   C3298     1.0  0.62080  0.17464  0.96131  1.0000
  C   C3299     1.0  0.65837  0.04796  0.80205  1.0000
  C   C3300     1.0  0.77372  0.06764  0.91841  1.0000
  C   C3301     1.0  0.52120  0.05813  0.58046  1.0000
  C   C3302     1.0  0.53587  0.02486  0.58029  1.0000
  C   C3303     1.0  0.59974  0.00837  0.70647  1.0000
  C   C3304     1.0  0.59950  0.06359  0.53233  1.0000
  C   C3305     1.0  0.87636  0.16976  0.88373  1.0000
  H   H2608     1.0  0.69225  0.98979  0.59960  1.0000
  C   C3306     1.0  0.80960  0.04324  0.91331  1.0000
  H   H2609     1.0  0.78885  0.12353  0.90374  1.0000
  H   H2610     1.0  0.50235  0.99198  0.88089  1.0000
  C   C3307     1.0  0.70702  0.14798  0.71075  1.0000
  C   C3308     1.0  0.52580  0.01636  0.54108  1.0000
  H   H2611     1.0  0.97327  0.12175  0.87299  1.0000
  P   P112      1.0  0.58090  0.02335  0.71998  1.0000
  H   H2612     1.0  0.71979  0.00602  0.78297  1.0000
  C   C3309     1.0  0.65519  0.13472  0.64089  1.0000
  C   C3310     1.0  0.55816  0.16247  0.58788  1.0000
  C   C3311     1.0  0.54267  0.99483  0.51931  1.0000
  C   C3312     1.0  0.69325  0.16141  0.71974  1.0000
  H   H2613     1.0  0.70745  0.05518  0.72115  1.0000
  H   H2614     1.0  0.92770  0.06603  0.53224  1.0000
  C   C3313     1.0  0.62053  0.00385  0.67620  1.0000
  C   C3314     1.0  0.71570  0.15302  0.69171  1.0000
  C   C3315     1.0  0.79612  0.15886  0.92390  1.0000
  S   S454      1.0  0.65074  0.12947  0.95996  1.0000
  C   C3316     1.0  0.65323  0.00008  0.74569  1.0000
  Fe  Fe226     1.0  0.51470  0.15424  0.54219  1.0000
  C   C3317     1.0  0.57833  0.15943  0.71272  1.0000
  P   P113      1.0  0.67813  0.01863  0.78219  1.0000
  S   S455      1.0  0.78396  0.17785  0.84474  1.0000
  C   C3318     1.0  0.75267  0.10171  0.93391  1.0000
  H   H2615     1.0  0.94713  0.10971  0.93723  1.0000
  H   H2616     1.0  0.61608  0.17324  0.54376  1.0000
  H   H2617     1.0  0.59797  0.17943  0.65021  1.0000
  C   C3319     1.0  0.78164  0.15368  0.89318  1.0000
  H   H2618     1.0  0.57588  0.17303  0.71747  1.0000
  C   C3320     1.0  0.56209  0.05525  0.54011  1.0000
  C   C3321     1.0  0.73534  0.11055  0.86184  1.0000
  H   H2619     1.0  0.76598  0.10657  0.85146  1.0000
  C   C3322     1.0  0.75463  0.10470  0.86386  1.0000
  H   H2620     1.0  0.63678  0.04894  0.84845  1.0000
  C   C3323     1.0  0.58954  0.04307  0.72487  1.0000
  C   C3324     1.0  0.57795  0.05417  0.73808  1.0000
  C   C3325     1.0  0.58442  0.06934  0.74217  1.0000
  C   C3326     1.0  0.60271  0.07327  0.73359  1.0000
  C   C3327     1.0  0.61432  0.06234  0.72050  1.0000
  C   C3328     1.0  0.60782  0.04734  0.71602  1.0000
  C   C3329     1.0  0.56218  0.03219  0.70563  1.0000
  C   C3330     1.0  0.54531  0.02769  0.68185  1.0000
  C   C3331     1.0  0.53435  0.04601  0.68195  1.0000
  C   C3332     1.0  0.53701  0.05735  0.69409  1.0000
  C   C3333     1.0  0.55094  0.05055  0.70579  1.0000
  H   H2621     1.0  0.56397  0.05097  0.74545  1.0000
  H   H2622     1.0  0.57532  0.07781  0.75227  1.0000
  H   H2623     1.0  0.60807  0.08459  0.73725  1.0000
  H   H2624     1.0  0.62855  0.06534  0.71418  1.0000
  H   H2625     1.0  0.61737  0.03899  0.70604  1.0000
  C   C3334     1.0  0.49538  0.09862  0.51731  1.0000
  H   H2626     1.0  0.52387  0.05142  0.67258  1.0000
  H   H2627     1.0  0.60768  0.10981  0.63907  1.0000
  C   C3335     1.0  0.93763  0.06624  0.54138  1.0000
  Fe  Fe227     1.0  0.57994  0.02141  0.82641  1.0000
  H   H2628     1.0  0.67862  0.01678  0.61510  1.0000
  H   H2629     1.0  0.62549  0.01084  0.73757  1.0000
  H   H2630     1.0  0.70504  0.03807  0.66280  1.0000
  H   H2631     1.0  0.51597  0.12519  0.57912  1.0000
  H   H2632     1.0  0.58717  0.01827  0.75973  1.0000
  H   H2633     1.0  0.61502  0.07770  0.92063  1.0000
  C   C3336     1.0  0.71090  0.17165  0.68181  1.0000
  C   C3337     1.0  0.69052  0.15018  0.96574  1.0000
  C   C3338     1.0  0.53090  0.02085  0.60023  1.0000
  C   C3339     1.0  0.62277  0.14641  0.63462  1.0000
  H   H2634     1.0  0.65687  0.98896  0.73710  1.0000
  C   C3340     1.0  0.69999  0.03325  0.65197  1.0000
  C   C3341     1.0  0.55827  0.99709  0.74247  1.0000
  C   C3342     1.0  0.93330  0.07986  0.55333  1.0000
  H   H2635     1.0  0.97230  0.06623  0.57530  1.0000
  C   C3343     1.0  0.89352  0.12134  0.82040  1.0000
  C   C3344     1.0  0.87932  0.10988  0.82641  1.0000
  C   C3345     1.0  0.86103  0.11685  0.82180  1.0000
  C   C3346     1.0  0.85673  0.13538  0.81153  1.0000
  C   C3347     1.0  0.87106  0.14677  0.80494  1.0000
  C   C3348     1.0  0.88939  0.13974  0.80970  1.0000
  C   C3349     1.0  0.63751  0.16605  0.76550  1.0000
  H   H2636     1.0  0.51781  0.07278  0.57327  1.0000
  C   C3350     1.0  0.92152  0.16956  0.83610  1.0000
  H   H2637     1.0  0.71755  0.17552  0.66702  1.0000
  H   H2638     1.0  0.58179  0.00064  0.57148  1.0000
  H   H2639     1.0  0.66684  0.99322  0.67193  1.0000
  S   S456      1.0  0.57365  0.98566  0.66232  1.0000
  H   H2640     1.0  0.51791  0.03254  0.62577  1.0000
  H   H2641     1.0  0.85634  0.14555  0.77103  1.0000
  H   H2642     1.0  0.73291  0.07625  0.96236  1.0000
  H   H2643     1.0  0.70277  0.04190  0.92806  1.0000
  C   C3351     1.0  0.97476  0.99208  0.60923  1.0000
  H   H2644     1.0  0.71510  0.16510  0.91791  1.0000
  C   C3352     1.0  0.84661  0.17352  0.77912  1.0000
  C   C3353     1.0  0.50866  0.10235  0.52678  1.0000
  H   H2645     1.0  0.83027  0.14873  0.75296  1.0000
  P   P114      1.0  0.53844  0.04890  0.54456  1.0000
  H   H2646     1.0  0.66622  0.17888  0.64771  1.0000
  H   H2647     1.0  0.74374  0.15016  0.93127  1.0000
  H   H2648     1.0  0.90759  0.11606  0.82430  1.0000
  H   H2649     1.0  0.88234  0.09570  0.83490  1.0000
  H   H2650     1.0  0.85000  0.10801  0.82644  1.0000
  H   H2651     1.0  0.84213  0.14075  0.80898  1.0000
  H   H2652     1.0  0.90032  0.14867  0.80557  1.0000
  H   H2653     1.0  0.60225  0.03039  0.68114  1.0000
  H   H2654     1.0  0.51363  0.02017  0.55203  1.0000
  H   H2655     1.0  0.69376  0.16887  0.77959  1.0000
  H   H2656     1.0  0.59863  0.06270  0.95820  1.0000
  S   S457      1.0  0.59940  0.98558  0.86845  1.0000
  H   H2657     1.0  0.59666  0.09416  0.96725  1.0000
  H   H2658     1.0  0.95874  0.08225  0.95666  1.0000
  H   H2659     1.0  0.64961  0.01431  0.85117  1.0000
  C   C3354     1.0  0.79088  0.07475  0.91600  1.0000
  C   C3355     1.0  0.98574  0.00580  0.60901  1.0000
  H   H2660     1.0  0.89768  0.14980  0.76935  1.0000
  C   C3356     1.0  0.79266  0.03610  0.91529  1.0000
  C   C3357     1.0  0.74874  0.13517  0.93651  1.0000
  C   C3358     1.0  0.64269  0.14474  0.62849  1.0000
  C   C3359     1.0  0.84881  0.16256  0.87459  1.0000
  H   H2661     1.0  0.63975  0.03957  0.77679  1.0000
  C   C3360     1.0  0.58630  0.17166  0.51426  1.0000
  C   C3361     1.0  0.58644  0.07302  0.52027  1.0000
  H   H2662     1.0  0.56923  0.00187  0.50204  1.0000
  C   C3362     1.0  0.79645  0.14038  0.92100  1.0000
  C   C3363     1.0  0.77478  0.04824  0.91778  1.0000
  H   H2663     1.0  0.56349  0.07582  0.65025  1.0000
  C   C3364     1.0  0.58287  0.98263  0.55101  1.0000
  C   C3365     1.0  0.56878  0.99913  0.77665  1.0000
  C   C3366     1.0  0.58595  0.06862  0.96760  1.0000
  C   C3367     1.0  0.66234  0.01614  0.82128  1.0000
  H   H2664     1.0  0.95569  0.16646  0.90961  1.0000
  H   H2665     1.0  0.94508  0.17616  0.87565  1.0000
  H   H2666     1.0  0.63646  0.98919  0.50043  1.0000
  H   H2667     1.0  0.53182  0.09044  0.54225  1.0000
  H   H2668     1.0  0.72779  0.06057  0.90992  1.0000
  H   H2669     1.0  0.92536  0.15978  0.74565  1.0000
  C   C3368     1.0  0.97216  0.07384  0.96026  1.0000
  C   C3369     1.0  0.72544  0.10095  0.89597  1.0000
  H   H2670     1.0  0.55286  0.05976  0.71477  1.0000
  C   C3370     1.0  0.88803  0.16503  0.86672  1.0000
  H   H2671     1.0  0.72454  0.07199  0.73680  1.0000
  C   C3371     1.0  0.64352  0.02833  0.76843  1.0000
  H   H2672     1.0  0.88896  0.15354  0.84152  1.0000
  C   C3372     1.0  0.69129  0.04667  0.63812  1.0000
  Fe  Fe228     1.0  0.59526  0.01791  0.86318  1.0000
  H   H2673     1.0  0.72170  0.06525  0.77199  1.0000
  H   H2674     1.0  0.77442  0.09239  0.88307  1.0000
  C   C3373     1.0  0.70442  0.04790  0.95525  1.0000
  Fe  Fe229     1.0  0.62357  0.11744  0.96456  1.0000
  H   H2675     1.0  0.69322  0.03991  0.96312  1.0000
  H   H2676     1.0  0.67061  0.13385  0.63642  1.0000
  H   H2677     1.0  0.54338  0.01887  0.67238  1.0000
  H   H2678     1.0  0.59777  0.07127  0.84616  1.0000
  H   H2679     1.0  0.68956  0.06184  0.63825  1.0000
  C   C3374     1.0  0.60465  0.08374  0.84068  1.0000
  H   H2680     1.0  0.85447  0.15118  0.84860  1.0000
  C   C3375     1.0  0.71305  0.05753  0.96482  1.0000
  C   C3376     1.0  0.65222  0.17578  0.75489  1.0000
  H   H2681     1.0  0.66041  0.05755  0.78841  1.0000
  C   C3377     1.0  0.57679  0.00964  0.75942  1.0000
  C   C3378     1.0  0.55043  0.12950  0.61409  1.0000
  C   C3379     1.0  0.53558  0.14502  0.61095  1.0000
  H   H2682     1.0  0.92598  0.06231  0.97451  1.0000
  H   H2683     1.0  0.82346  0.03388  0.91139  1.0000
  C   C3380     1.0  0.57311  0.14685  0.59073  1.0000
  C   C3381     1.0  0.56913  0.13037  0.60406  1.0000
  P   P115      1.0  0.59666  0.14748  0.57604  1.0000
  C   C3382     1.0  0.59333  0.15621  0.55151  1.0000
  C   C3383     1.0  0.60959  0.16305  0.58259  1.0000
  S   S458      1.0  0.79864  0.13267  0.97147  1.0000
  H   H2684     1.0  0.60832  0.17126  0.95762  1.0000
  H   H2685     1.0  0.59618  0.08189  0.63448  1.0000
  H   H2686     1.0  0.66709  0.00082  0.82284  1.0000
  C   C3384     1.0  0.62971  0.16078  0.57700  1.0000
  C   C3385     1.0  0.64999  0.16782  0.67489  1.0000
  C   C3386     1.0  0.72688  0.06858  0.95462  1.0000
  S   S459      1.0  0.72665  0.17119  0.79466  1.0000
  C   C3387     1.0  0.57503  0.15900  0.52638  1.0000
  C   C3388     1.0  0.57850  0.15128  0.54493  1.0000
  C   C3389     1.0  0.61031  0.12343  0.57878  1.0000
  C   C3390     1.0  0.60926  0.11070  0.56717  1.0000
  C   C3391     1.0  0.61906  0.09178  0.57022  1.0000
  C   C3392     1.0  0.62986  0.08544  0.58490  1.0000
  C   C3393     1.0  0.63065  0.09791  0.59672  1.0000
  C   C3394     1.0  0.62086  0.11680  0.59376  1.0000
  H   H2687     1.0  0.54736  0.11646  0.62378  1.0000
  H   H2688     1.0  0.52098  0.14411  0.61832  1.0000
  C   C3395     1.0  0.70977  0.04910  0.93547  1.0000
  H   H2689     1.0  0.71080  0.13359  0.71855  1.0000
  H   H2690     1.0  0.58015  0.11787  0.60634  1.0000
  H   H2691     1.0  0.65354  0.17482  0.82434  1.0000
  H   H2692     1.0  0.55404  0.15017  0.64437  1.0000
  H   H2693     1.0  0.50934  0.06552  0.60825  1.0000
  C   C3396     1.0  0.52145  0.06827  0.53391  1.0000
  H   H2694     1.0  0.63751  0.14945  0.56929  1.0000
  H   H2695     1.0  0.76816  0.08166  0.95450  1.0000
  S   S460      1.0  0.50690  0.17247  0.56484  1.0000
  S   S461      1.0  0.83903  0.09532  0.95678  1.0000
  H   H2696     1.0  0.56339  0.15533  0.52147  1.0000
  H   H2697     1.0  0.56938  0.14170  0.55419  1.0000
  H   H2698     1.0  0.60059  0.11519  0.55606  1.0000
  H   H2699     1.0  0.61796  0.08189  0.56146  1.0000
  H   H2700     1.0  0.63727  0.07072  0.58746  1.0000
  H   H2701     1.0  0.63856  0.09276  0.60846  1.0000
  H   H2702     1.0  0.62123  0.12609  0.60340  1.0000
  C   C3397     1.0  0.78851  0.17494  0.91145  1.0000
  H   H2703     1.0  0.52058  0.10145  0.60868  1.0000
  C   C3398     1.0  0.69518  0.03880  0.74764  1.0000
  H   H2704     1.0  0.73169  0.11687  0.84788  1.0000
  H   H2705     1.0  0.55379  0.12550  0.67629  1.0000
  C   C3399     1.0  0.70313  0.04450  0.77637  1.0000
  H   H2706     1.0  0.80148  0.16057  0.93610  1.0000
  C   C3400     1.0  0.63241  0.17009  0.68746  1.0000
  C   C3401     1.0  0.66607  0.00174  0.75685  1.0000
  H   H2707     1.0  0.70795  0.00352  0.66344  1.0000
  C   C3402     1.0  0.68398  0.04052  0.62469  1.0000
  C   C3403     1.0  0.76552  0.11059  0.95833  1.0000
  C   C3404     1.0  0.88010  0.15798  0.85426  1.0000
  S   S462      1.0  0.60936  0.01983  0.83215  1.0000
  H   H2708     1.0  0.82183  0.06811  0.91211  1.0000
  C   C3405     1.0  0.71266  0.99375  0.78809  1.0000
  H   H2709     1.0  0.54239  0.09765  0.67102  1.0000
  H   H2710     1.0  0.65757  0.11864  0.66898  1.0000
  C   C3406     1.0  0.69274  0.99563  0.78907  1.0000
  H   H2711     1.0  0.80222  0.12801  0.93076  1.0000
  C   C3407     1.0  0.70657  0.05193  0.73654  1.0000
  C   C3408     1.0  0.78196  0.17218  0.89561  1.0000
  H   H2712     1.0  0.60081  0.98309  0.72883  1.0000
  H   H2713     1.0  0.64851  0.15145  0.61428  1.0000
  C   C3409     1.0  0.63060  0.02649  0.75745  1.0000
  C   C3410     1.0  0.69329  0.03507  0.76766  1.0000
  C   C3411     1.0  0.71457  0.05755  0.76521  1.0000
  H   H2714     1.0  0.62257  0.12120  0.67995  1.0000
  P   P116      1.0  0.75071  0.08355  0.92129  1.0000
  H   H2715     1.0  0.71390  0.10004  0.90828  1.0000
  H   H2716     1.0  0.61682  0.03603  0.75784  1.0000
  C   C3412     1.0  0.58276  0.12488  0.71989  1.0000
  C   C3413     1.0  0.57937  0.14240  0.72604  1.0000
  H   H2717     1.0  0.76141  0.14074  0.95856  1.0000
  C   C3414     1.0  0.58086  0.15895  0.69321  1.0000
  C   C3415     1.0  0.58439  0.14137  0.68684  1.0000
  C   C3416     1.0  0.58541  0.12429  0.70039  1.0000
  P   P117      1.0  0.58954  0.14054  0.66150  1.0000
  C   C3417     1.0  0.58146  0.11994  0.65787  1.0000
  C   C3418     1.0  0.57733  0.16240  0.64865  1.0000
  C   C3419     1.0  0.56019  0.16292  0.64223  1.0000
  H   H2718     1.0  0.58866  0.11048  0.69592  1.0000
  H   H2719     1.0  0.57786  0.14268  0.74115  1.0000
  H   H2720     1.0  0.94235  0.09018  0.57497  1.0000
  H   H2721     1.0  0.61451  0.98690  0.79621  1.0000
  C   C3420     1.0  0.59337  0.10747  0.64612  1.0000
  C   C3421     1.0  0.58692  0.09156  0.64348  1.0000
  C   C3422     1.0  0.56855  0.08805  0.65245  1.0000
  C   C3423     1.0  0.55665  0.10036  0.66419  1.0000
  C   C3424     1.0  0.56312  0.11615  0.66704  1.0000
  C   C3425     1.0  0.61524  0.13826  0.65335  1.0000
  C   C3426     1.0  0.62792  0.12785  0.66555  1.0000
  C   C3427     1.0  0.64780  0.12612  0.65931  1.0000
  C   C3428     1.0  0.75877  0.12990  0.95178  1.0000
  C   C3429     1.0  0.51629  0.05406  0.60040  1.0000
  H   H2722     1.0  0.70102  0.12204  0.95860  1.0000
  H   H2723     1.0  0.58367  0.11180  0.73035  1.0000
  S   S463      1.0  0.73578  0.18108  0.88127  1.0000
  C   C3430     1.0  0.89922  0.16472  0.76618  1.0000
  H   H2724     1.0  0.72601  0.14243  0.68462  1.0000
  C   C3431     1.0  0.68087  0.98215  0.60762  1.0000
  C   C3432     1.0  0.58491  0.08628  0.97276  1.0000
  H   H2725     1.0  0.61049  0.15802  0.76549  1.0000
  H   H2726     1.0  0.56080  0.17521  0.57749  1.0000
  H   H2727     1.0  0.63883  0.15783  0.77963  1.0000
  H   H2728     1.0  0.63030  0.16020  0.70088  1.0000
  S   S464      1.0  0.78162  0.17068  0.80204  1.0000
  H   H2729     1.0  0.93939  0.17562  0.78106  1.0000
  Fe  Fe230     1.0  0.61097  0.98796  0.83686  1.0000
  H   H2730     1.0  0.84786  0.17235  0.90062  1.0000
  C   C3433     1.0  0.91486  0.17035  0.75263  1.0000
  Fe  Fe231     1.0  0.57056  0.98885  0.85964  1.0000
  C   C3434     1.0  0.84583  0.15865  0.76994  1.0000
  H   H2731     1.0  0.57143  0.04499  0.97036  1.0000
  H   H2732     1.0  0.53721  0.11744  0.96880  1.0000
  H   H2733     1.0  0.76060  0.17492  0.94364  1.0000
  H   H2734     1.0  0.51613  0.99103  0.53865  1.0000
  H   H2735     1.0  0.90906  0.03621  0.97508  1.0000
  H   H2736     1.0  0.53741  0.18057  0.62814  1.0000
  C   C3435     1.0  0.65262  0.18064  0.65747  1.0000
  H   H2737     1.0  0.73435  0.99075  0.63830  1.0000
  C   C3436     1.0  0.52576  0.14660  0.97196  1.0000
  H   H2738     1.0  0.66924  0.98271  0.58251  1.0000
  C   C3437     1.0  0.55071  0.18015  0.63289  1.0000
  H   H2739     1.0  0.58037  0.17236  0.68326  1.0000
  H   H2740     1.0  0.60785  0.17625  0.73288  1.0000
  H   H2741     1.0  0.98957  0.06582  0.81883  1.0000
  P   P118      1.0  0.98930  0.03530  0.55385  1.0000
  C   C3438     1.0  0.88562  0.17831  0.77538  1.0000
  C   C3439     1.0  0.57062  0.05863  0.97453  1.0000
  H   H2742     1.0  0.52806  0.17352  0.59534  1.0000
  H   H2743     1.0  0.77335  0.10657  0.97016  1.0000
  C   C3440     1.0  0.81747  0.17725  0.75792  1.0000
  C   C3441     1.0  0.62009  0.17639  0.73916  1.0000
  H   H2744     1.0  0.58432  0.18070  0.59608  1.0000
  H   H2745     1.0  0.98325  0.08698  0.49752  1.0000
  P   P119      1.0  0.69595  0.98180  0.63996  1.0000
  H   H2746     1.0  0.89786  0.99061  0.50565  1.0000
  S   S465      1.0  0.51840  0.17884  0.51769  1.0000
  C   C3442     1.0  0.58481  0.17936  0.64539  1.0000
  C   C3443     1.0  0.55052  0.98634  0.75974  1.0000
  H   H2747     1.0  0.80587  0.17850  0.75022  1.0000
  C   C3444     1.0  0.98852  0.07268  0.94593  1.0000
  H   H2748     1.0  0.92014  0.17764  0.91563  1.0000
  H   H2749     1.0  0.54402  0.98182  0.51374  1.0000
  H   H2750     1.0  0.98774  0.08070  0.93158  1.0000
  C   C3445     1.0  0.90167  0.98709  0.47630  1.0000
  C   C3446     1.0  0.51174  0.28522  0.20586  1.0000
  H   H2751     1.0  0.50974  0.29346  0.21710  1.0000
  H   H2752     1.0  0.61488  0.32561  0.08812  1.0000
  C   C3447     1.0  0.84982  0.37263  0.35761  1.0000
  S   S466      1.0  0.74437  0.35779  0.36316  1.0000
  C   C3448     1.0  0.52893  0.25845  0.19065  1.0000
  Fe  Fe232     1.0  0.73497  0.37236  0.38869  1.0000
  S   S467      1.0  0.71130  0.36274  0.41219  1.0000
  Fe  Fe233     1.0  0.77429  0.35881  0.36656  1.0000
  S   S468      1.0  0.79787  0.33276  0.36845  1.0000
  H   H2753     1.0  0.97921  0.30121  0.27587  1.0000
  C   C3449     1.0  0.67247  0.21007  0.00268  1.0000
  C   C3450     1.0  0.85448  0.26544  0.22509  1.0000
  H   H2754     1.0  0.51441  0.24425  0.11200  1.0000
  C   C3451     1.0  0.70405  0.33472  0.46581  1.0000
  C   C3452     1.0  0.97836  0.21735  0.30669  1.0000
  C   C3453     1.0  0.69616  0.24614  0.13368  1.0000
  C   C3454     1.0  0.72243  0.33863  0.46445  1.0000
  H   H2755     1.0  0.67790  0.36130  0.34000  1.0000
  Fe  Fe234     1.0  0.60853  0.27480  0.12536  1.0000
  S   S469      1.0  0.60266  0.25652  0.15448  1.0000
  S   S470      1.0  0.63720  0.27054  0.10536  1.0000
  Fe  Fe235     1.0  0.56959  0.30048  0.13066  1.0000
  S   S471      1.0  0.56112  0.28347  0.15971  1.0000
  S   S472      1.0  0.54591  0.32594  0.12611  1.0000
  Fe  Fe236     1.0  0.59037  0.28466  0.16483  1.0000
  S   S473      1.0  0.59083  0.29320  0.19339  1.0000
  Fe  Fe237     1.0  0.57391  0.25733  0.14641  1.0000
  S   S474      1.0  0.55843  0.23144  0.15474  1.0000
  S   S475      1.0  0.59832  0.30272  0.13619  1.0000
  S   S476      1.0  0.58039  0.27436  0.11684  1.0000
  Fe  Fe238     1.0  0.63592  0.36909  0.23517  1.0000
  C   C3455     1.0  0.90181  0.34030  0.41303  1.0000
  S   S477      1.0  0.63810  0.34948  0.21349  1.0000
  C   C3456     1.0  0.49071  0.29403  0.05621  1.0000
  H   H2756     1.0  0.51508  0.30659  0.12866  1.0000
  S   S478      1.0  0.67629  0.36167  0.28665  1.0000
  S   S479      1.0  0.63039  0.36306  0.26738  1.0000
  C   C3457     1.0  0.90494  0.18362  0.27392  1.0000
  Fe  Fe239     1.0  0.87335  0.28310  0.29484  1.0000
  S   S480      1.0  0.89898  0.28393  0.27097  1.0000
  S   S481      1.0  0.84808  0.30745  0.29229  1.0000
  Fe  Fe240     1.0  0.89174  0.24507  0.31612  1.0000
  S   S482      1.0  0.91847  0.24319  0.29391  1.0000
  S   S483      1.0  0.88666  0.22278  0.34268  1.0000
  Fe  Fe241     1.0  0.91642  0.27455  0.29462  1.0000
  S   S484      1.0  0.94280  0.28485  0.29848  1.0000
  Fe  Fe242     1.0  0.89809  0.25265  0.27270  1.0000
  S   S485      1.0  0.90172  0.23908  0.24615  1.0000
  S   S486      1.0  0.89080  0.27564  0.31823  1.0000
  S   S487      1.0  0.87140  0.25256  0.29511  1.0000
  C   C3458     1.0  0.58821  0.35087  0.46431  1.0000
  C   C3459     1.0  0.86521  0.33963  0.40664  1.0000
  Fe  Fe243     1.0  0.96195  0.36906  0.34202  1.0000
  S   S488      1.0  0.94604  0.36480  0.31979  1.0000
  S   S489      1.0  0.95926  0.35057  0.37095  1.0000
  S   S490      1.0  0.84251  0.19415  0.22806  1.0000
  C   C3460     1.0  0.88567  0.22562  0.24184  1.0000
  C   C3461     1.0  0.88992  0.21799  0.22488  1.0000
  C   C3462     1.0  0.87723  0.20778  0.22066  1.0000
  C   C3463     1.0  0.86012  0.20506  0.23340  1.0000
  C   C3464     1.0  0.85619  0.21221  0.25059  1.0000
  C   C3465     1.0  0.86877  0.22251  0.25476  1.0000
  H   H2757     1.0  0.90294  0.22032  0.21477  1.0000
  H   H2758     1.0  0.88045  0.20245  0.20734  1.0000
  H   H2759     1.0  0.84332  0.20981  0.26078  1.0000
  H   H2760     1.0  0.86533  0.22812  0.26792  1.0000
  C   C3466     1.0  0.94244  0.30676  0.30585  1.0000
  C   C3467     1.0  0.92854  0.32301  0.30172  1.0000
  C   C3468     1.0  0.92990  0.34068  0.30598  1.0000
  C   C3469     1.0  0.94471  0.34217  0.31503  1.0000
  C   C3470     1.0  0.95832  0.32582  0.31956  1.0000
  C   C3471     1.0  0.95737  0.30832  0.31471  1.0000
  H   H2761     1.0  0.91711  0.32209  0.29470  1.0000
  H   H2762     1.0  0.91937  0.35326  0.30233  1.0000
  H   H2763     1.0  0.96986  0.32681  0.32637  1.0000
  H   H2764     1.0  0.96838  0.29598  0.31772  1.0000
  C   C3472     1.0  0.52698  0.26974  0.10426  1.0000
  C   C3473     1.0  0.84941  0.36446  0.45521  1.0000
  C   C3474     1.0  0.90606  0.21047  0.35424  1.0000
  C   C3475     1.0  0.52671  0.35718  0.07005  1.0000
  H   H2765     1.0  0.90956  0.35252  0.34880  1.0000
  C   C3476     1.0  0.77601  0.27756  0.29089  1.0000
  H   H2766     1.0  0.76112  0.27778  0.29057  1.0000
  H   H2767     1.0  0.63897  0.19934  0.06961  1.0000
  H   H2768     1.0  0.65366  0.33581  0.44297  1.0000
  H   H2769     1.0  0.59013  0.18944  0.11448  1.0000
  C   C3477     1.0  0.60309  0.31011  0.19820  1.0000
  C   C3478     1.0  0.61738  0.31819  0.18456  1.0000
  C   C3479     1.0  0.62765  0.33040  0.18944  1.0000
  C   C3480     1.0  0.62360  0.33507  0.20789  1.0000
  C   C3481     1.0  0.60894  0.32742  0.22138  1.0000
  C   C3482     1.0  0.59885  0.31497  0.21658  1.0000
  H   H2770     1.0  0.62088  0.31462  0.17039  1.0000
  H   H2771     1.0  0.63898  0.33613  0.17888  1.0000
  H   H2772     1.0  0.60576  0.33068  0.23565  1.0000
  H   H2773     1.0  0.58788  0.30880  0.22728  1.0000
  C   C3483     1.0  0.53873  0.33642  0.10407  1.0000
  C   C3484     1.0  0.52002  0.34675  0.10438  1.0000
  C   C3485     1.0  0.51393  0.35676  0.08744  1.0000
  C   C3486     1.0  0.77434  0.30387  0.33816  1.0000
  C   C3487     1.0  0.54527  0.34612  0.06952  1.0000
  C   C3488     1.0  0.55124  0.33555  0.08656  1.0000
  H   H2774     1.0  0.51016  0.34717  0.11778  1.0000
  C   C3489     1.0  0.93760  0.19000  0.35479  1.0000
  H   H2775     1.0  0.53576  0.26502  0.21558  1.0000
  H   H2776     1.0  0.56563  0.32735  0.08625  1.0000
  C   C3490     1.0  0.52475  0.19413  0.13479  1.0000
  C   C3491     1.0  0.53539  0.20644  0.12080  1.0000
  C   C3492     1.0  0.54588  0.21824  0.12634  1.0000
  C   C3493     1.0  0.54589  0.21756  0.14583  1.0000
  C   C3494     1.0  0.53561  0.20493  0.15947  1.0000
  C   C3495     1.0  0.59339  0.23600  0.08426  1.0000
  H   H2777     1.0  0.53543  0.20697  0.10583  1.0000
  H   H2778     1.0  0.55395  0.22776  0.11563  1.0000
  H   H2779     1.0  0.58075  0.24619  0.08872  1.0000
  C   C3496     1.0  0.51456  0.29305  0.12514  1.0000
  H   H2780     1.0  0.77596  0.24457  0.10793  1.0000
  C   C3497     1.0  0.90352  0.20903  0.37406  1.0000
  H   H2781     1.0  0.79139  0.19248  0.04516  1.0000
  C   C3498     1.0  0.64844  0.24648  0.10517  1.0000
  C   C3499     1.0  0.66678  0.24216  0.09406  1.0000
  C   C3500     1.0  0.67539  0.22300  0.09295  1.0000
  C   C3501     1.0  0.66555  0.20816  0.10286  1.0000
  C   C3502     1.0  0.64747  0.21250  0.11430  1.0000
  C   C3503     1.0  0.63897  0.23156  0.11551  1.0000
  H   H2782     1.0  0.67420  0.25367  0.08610  1.0000
  H   H2783     1.0  0.68935  0.21974  0.08411  1.0000
  H   H2784     1.0  0.63977  0.20108  0.12195  1.0000
  H   H2785     1.0  0.62479  0.23470  0.12397  1.0000
  C   C3504     1.0  0.52804  0.26412  0.04221  1.0000
  C   C3505     1.0  0.91416  0.32208  0.35312  1.0000
  H   H2786     1.0  0.97766  0.20465  0.35454  1.0000
  C   C3506     1.0  0.71566  0.36915  0.31560  1.0000
  C   C3507     1.0  0.70365  0.36106  0.30790  1.0000
  C   C3508     1.0  0.75396  0.20187  0.97799  1.0000
  C   C3509     1.0  0.56884  0.34490  0.15562  1.0000
  H   H2787     1.0  0.89111  0.18847  0.26941  1.0000
  H   H2788     1.0  0.72418  0.36035  0.32584  1.0000
  H   H2789     1.0  0.70314  0.34597  0.31224  1.0000
  C   C3510     1.0  0.55130  0.36434  0.18578  1.0000
  C   C3511     1.0  0.73105  0.21551  0.16759  1.0000
  C   C3512     1.0  0.81207  0.32630  0.34719  1.0000
  C   C3513     1.0  0.80849  0.33647  0.32933  1.0000
  C   C3514     1.0  0.81971  0.33060  0.31258  1.0000
  C   C3515     1.0  0.83467  0.31472  0.31359  1.0000
  C   C3516     1.0  0.83826  0.30458  0.33148  1.0000
  C   C3517     1.0  0.82696  0.31036  0.34824  1.0000
  H   H2790     1.0  0.79702  0.34875  0.32845  1.0000
  H   H2791     1.0  0.81678  0.33838  0.29880  1.0000
  H   H2792     1.0  0.84958  0.29217  0.33242  1.0000
  H   H2793     1.0  0.82970  0.30239  0.36206  1.0000
  H   H2794     1.0  0.90558  0.21103  0.28030  1.0000
  H   H2795     1.0  0.70442  0.23134  0.18110  1.0000
  H   H2796     1.0  0.67424  0.22150  0.99051  1.0000
  H   H2797     1.0  0.81330  0.35425  0.38953  1.0000
  H   H2798     1.0  0.59228  0.32951  0.27197  1.0000
  C   C3518     1.0  0.52699  0.28736  0.10899  1.0000
  H   H2799     1.0  0.67897  0.36844  0.44243  1.0000
  Fe  Fe244     1.0  0.65585  0.37700  0.26592  1.0000
  P   P120      1.0  0.97105  0.24498  0.35980  1.0000
  H   H2800     1.0  0.61226  0.34303  0.11457  1.0000
  C   C3519     1.0  0.92323  0.20104  0.34451  1.0000
  H   H2801     1.0  0.49701  0.21139  0.10305  1.0000
  H   H2802     1.0  0.71590  0.34587  0.26107  1.0000
  C   C3520     1.0  0.67789  0.25743  0.13328  1.0000
  H   H2803     1.0  0.91766  0.18168  0.23552  1.0000
  H   H2804     1.0  0.49312  0.25371  0.14085  1.0000
  C   C3521     1.0  0.54468  0.38074  0.11877  1.0000
  C   C3522     1.0  0.62790  0.22796  0.07459  1.0000
  H   H2805     1.0  0.63789  0.34780  0.47309  1.0000
  H   H2806     1.0  0.55897  0.25790  0.03460  1.0000
  H   H2807     1.0  0.86799  0.26940  0.22560  1.0000
  P   P121      1.0  0.76457  0.31379  0.30178  1.0000
  C   C3523     1.0  0.75938  0.31081  0.32760  1.0000
  C   C3524     1.0  0.77451  0.33548  0.29260  1.0000
  C   C3525     1.0  0.76898  0.35083  0.30264  1.0000
  H   H2808     1.0  0.73218  0.33952  0.45080  1.0000
  H   H2809     1.0  0.80417  0.35604  0.25406  1.0000
  C   C3526     1.0  0.51056  0.25887  0.04178  1.0000
  C   C3527     1.0  0.78711  0.33754  0.27492  1.0000
  C   C3528     1.0  0.74064  0.31664  0.33726  1.0000
  C   C3529     1.0  0.73687  0.31495  0.35718  1.0000
  C   C3530     1.0  0.75183  0.30784  0.36756  1.0000
  C   C3531     1.0  0.74262  0.31615  0.29266  1.0000
  C   C3532     1.0  0.73003  0.30304  0.30066  1.0000
  C   C3533     1.0  0.71275  0.30511  0.29410  1.0000
  C   C3534     1.0  0.70780  0.32043  0.27969  1.0000
  C   C3535     1.0  0.72017  0.33359  0.27174  1.0000
  C   C3536     1.0  0.73753  0.33148  0.27813  1.0000
  H   H2810     1.0  0.75915  0.34976  0.31620  1.0000
  H   H2811     1.0  0.75345  0.23603  0.13775  1.0000
  C   C3537     1.0  0.64832  0.35097  0.44266  1.0000
  H   H2812     1.0  0.65832  0.35841  0.41252  1.0000
  H   H2813     1.0  0.79140  0.32601  0.26679  1.0000
  H   H2814     1.0  0.72902  0.32303  0.32946  1.0000
  H   H2815     1.0  0.72252  0.31986  0.36454  1.0000
  H   H2816     1.0  0.74910  0.30722  0.38291  1.0000
  H   H2817     1.0  0.73345  0.29139  0.31219  1.0000
  H   H2818     1.0  0.70298  0.29511  0.30043  1.0000
  H   H2819     1.0  0.69412  0.32251  0.27498  1.0000
  C   C3538     1.0  0.75215  0.23158  0.12491  1.0000
  H   H2820     1.0  0.74657  0.34217  0.27201  1.0000
  C   C3539     1.0  0.76331  0.23142  0.09104  1.0000
  H   H2821     1.0  0.51718  0.18401  0.16495  1.0000
  C   C3540     1.0  0.57161  0.18499  0.03537  1.0000
  H   H2822     1.0  0.91603  0.19814  0.39937  1.0000
  H   H2823     1.0  0.98124  0.33688  0.20928  1.0000
  C   C3541     1.0  0.72659  0.22665  0.19773  1.0000
  H   H2824     1.0  0.97151  0.26092  0.31938  1.0000
  C   C3542     1.0  0.98154  0.22882  0.37901  1.0000
  H   H2825     1.0  0.97984  0.21096  0.29421  1.0000
  C   C3543     1.0  0.49391  0.33108  0.05904  1.0000
  C   C3544     1.0  0.67185  0.19153  0.00030  1.0000
  C   C3545     1.0  0.73800  0.22090  0.12512  1.0000
  H   H2826     1.0  0.51998  0.25585  0.16529  1.0000
  H   H2827     1.0  0.82994  0.27531  0.29163  1.0000
  P   P122      1.0  0.84634  0.36572  0.43096  1.0000
  C   C3546     1.0  0.81488  0.27589  0.29136  1.0000
  C   C3547     1.0  0.86141  0.18870  0.33029  1.0000
  C   C3548     1.0  0.82201  0.36471  0.38136  1.0000
  H   H2828     1.0  0.59235  0.37532  0.11421  1.0000
  C   C3549     1.0  0.97725  0.21395  0.34078  1.0000
  H   H2829     1.0  0.81933  0.24754  0.28507  1.0000
  H   H2830     1.0  0.50349  0.23033  0.07103  1.0000
  H   H2831     1.0  0.58347  0.36594  0.31338  1.0000
  C   C3550     1.0  0.75755  0.20926  0.18508  1.0000
  H   H2832     1.0  0.54039  0.24610  0.18991  1.0000
  H   H2833     1.0  0.97607  0.31109  0.36311  1.0000
  C   C3551     1.0  0.78910  0.36568  0.43308  1.0000
  C   C3552     1.0  0.91810  0.19880  0.38409  1.0000
  H   H2834     1.0  0.83230  0.34223  0.46798  1.0000
  H   H2835     1.0  0.78908  0.30016  0.33115  1.0000
  C   C3553     1.0  0.58409  0.33260  0.46581  1.0000
  H   H2836     1.0  0.97226  0.19008  0.41327  1.0000
  C   C3554     1.0  0.84118  0.35138  0.47036  1.0000
  C   C3555     1.0  0.89974  0.32879  0.40081  1.0000
  C   C3556     1.0  0.87189  0.35363  0.30538  1.0000
  C   C3557     1.0  0.68897  0.37717  0.44311  1.0000
  H   H2837     1.0  0.61227  0.37695  0.19137  1.0000
  C   C3558     1.0  0.59662  0.34840  0.07257  1.0000
  C   C3559     1.0  0.87647  0.32594  0.34723  1.0000
  H   H2838     1.0  0.79382  0.18751  0.00300  1.0000
  C   C3560     1.0  0.57790  0.18203  0.05282  1.0000
  C   C3561     1.0  0.52631  0.26912  0.20511  1.0000
  H   H2839     1.0  0.77240  0.20302  0.18620  1.0000
  H   H2840     1.0  0.84240  0.34424  0.36686  1.0000
  H   H2841     1.0  0.77160  0.37970  0.30303  1.0000
  C   C3562     1.0  0.59895  0.37835  0.35475  1.0000
  C   C3563     1.0  0.86451  0.35228  0.28959  1.0000
  H   H2842     1.0  0.66988  0.20211  0.05098  1.0000
  C   C3564     1.0  0.60483  0.34970  0.10271  1.0000
  C   C3565     1.0  0.97474  0.23391  0.33904  1.0000
  C   C3566     1.0  0.63295  0.37730  0.45922  1.0000
  C   C3567     1.0  0.70631  0.37684  0.43002  1.0000
  C   C3568     1.0  0.97986  0.30918  0.26136  1.0000
  H   H2843     1.0  0.95004  0.33094  0.22970  1.0000
  C   C3569     1.0  0.67215  0.36848  0.35208  1.0000
  H   H2844     1.0  0.57741  0.37266  0.06070  1.0000
  C   C3570     1.0  0.78684  0.19233  0.25114  1.0000
  C   C3571     1.0  0.79478  0.18897  0.26768  1.0000
  C   C3572     1.0  0.80346  0.20291  0.27134  1.0000
  C   C3573     1.0  0.80439  0.22013  0.25836  1.0000
  C   C3574     1.0  0.79683  0.22346  0.24151  1.0000
  C   C3575     1.0  0.78766  0.20958  0.23820  1.0000
  P   P123      1.0  0.79764  0.24594  0.22504  1.0000
  C   C3576     1.0  0.81990  0.25386  0.22463  1.0000
  C   C3577     1.0  0.79636  0.24245  0.20147  1.0000
  C   C3578     1.0  0.80760  0.22636  0.19426  1.0000
  C   C3579     1.0  0.80624  0.22318  0.17638  1.0000
  C   C3580     1.0  0.79352  0.23587  0.16559  1.0000
  C   C3581     1.0  0.78219  0.25187  0.17264  1.0000
  C   C3582     1.0  0.78360  0.25519  0.19049  1.0000
  C   C3583     1.0  0.82070  0.26512  0.23782  1.0000
  C   C3584     1.0  0.85379  0.25447  0.21178  1.0000
  C   C3585     1.0  0.83666  0.24855  0.21162  1.0000
  C   C3586     1.0  0.77763  0.26368  0.23323  1.0000
  C   C3587     1.0  0.77799  0.28325  0.22632  1.0000
  C   C3588     1.0  0.76269  0.29710  0.23274  1.0000
  C   C3589     1.0  0.74689  0.29152  0.24599  1.0000
  C   C3590     1.0  0.74637  0.27209  0.25289  1.0000
  C   C3591     1.0  0.76167  0.25819  0.24653  1.0000
  H   H2845     1.0  0.57878  0.19303  0.00478  1.0000
  S   S491      1.0  0.76478  0.37103  0.39358  1.0000
  H   H2846     1.0  0.80993  0.20018  0.28399  1.0000
  H   H2847     1.0  0.81154  0.23057  0.26119  1.0000
  H   H2848     1.0  0.78144  0.21184  0.22549  1.0000
  H   H2849     1.0  0.81732  0.21613  0.20252  1.0000
  H   H2850     1.0  0.81492  0.21072  0.17095  1.0000
  H   H2851     1.0  0.79237  0.23311  0.15185  1.0000
  H   H2852     1.0  0.77225  0.26166  0.16429  1.0000
  H   H2853     1.0  0.77460  0.26762  0.19564  1.0000
  H   H2854     1.0  0.80808  0.26939  0.24804  1.0000
  H   H2855     1.0  0.86676  0.25002  0.20195  1.0000
  H   H2856     1.0  0.83682  0.23949  0.20161  1.0000
  H   H2857     1.0  0.79011  0.28779  0.21594  1.0000
  H   H2858     1.0  0.76302  0.31219  0.22734  1.0000
  H   H2859     1.0  0.73495  0.30228  0.25073  1.0000
  H   H2860     1.0  0.73402  0.26782  0.26306  1.0000
  H   H2861     1.0  0.76093  0.24321  0.25197  1.0000
  H   H2862     1.0  0.49452  0.34549  0.06034  1.0000
  H   H2863     1.0  0.95820  0.21281  0.38737  1.0000
  S   S492      1.0  0.93235  0.37772  0.41014  1.0000
  H   H2864     1.0  0.58116  0.32837  0.45350  1.0000
  H   H2865     1.0  0.57604  0.35938  0.28424  1.0000
  H   H2866     1.0  0.89036  0.25970  0.38825  1.0000
  C   C3592     1.0  0.98195  0.26620  0.35321  1.0000
  H   H2867     1.0  0.77908  0.19393  0.12706  1.0000
  C   C3593     1.0  0.70545  0.18544  0.13868  1.0000
  C   C3594     1.0  0.60633  0.33989  0.08779  1.0000
  C   C3595     1.0  0.96330  0.32588  0.23532  1.0000
  S   S493      1.0  0.51966  0.37195  0.04920  1.0000
  C   C3596     1.0  0.49183  0.32576  0.15600  1.0000
  H   H2868     1.0  0.78228  0.29759  0.36601  1.0000
  C   C3597     1.0  0.80150  0.29227  0.29498  1.0000
  C   C3598     1.0  0.78943  0.26113  0.28733  1.0000
  H   H2869     1.0  0.64761  0.25999  0.14496  1.0000
  C   C3599     1.0  0.49996  0.29080  0.19198  1.0000
  C   C3600     1.0  0.77054  0.30236  0.35804  1.0000
  H   H2870     1.0  0.55514  0.34611  0.05603  1.0000
  C   C3601     1.0  0.54566  0.23825  0.02573  1.0000
  H   H2871     1.0  0.92899  0.32066  0.35474  1.0000
  C   C3602     1.0  0.66177  0.25133  0.14555  1.0000
  H   H2872     1.0  0.69563  0.19702  0.13184  1.0000
  C   C3603     1.0  0.49638  0.31604  0.07439  1.0000
  H   H2873     1.0  0.74642  0.20258  0.99250  1.0000
  C   C3604     1.0  0.83793  0.27079  0.23810  1.0000
  C   C3605     1.0  0.51085  0.24324  0.03322  1.0000
  C   C3606     1.0  0.60797  0.20405  0.07790  1.0000
  C   C3607     1.0  0.51438  0.25792  0.11561  1.0000
  S   S494      1.0  0.75873  0.18715  0.03109  1.0000
  H   H2874     1.0  0.55666  0.36901  0.11988  1.0000
  H   H2875     1.0  0.87259  0.34274  0.27992  1.0000
  H   H2876     1.0  0.83857  0.27917  0.24853  1.0000
  C   C3608     1.0  0.88769  0.30774  0.35085  1.0000
  C   C3609     1.0  0.68444  0.37175  0.36295  1.0000
  H   H2877     1.0  0.77321  0.23525  0.07792  1.0000
  H   H2878     1.0  0.92333  0.18823  0.20037  1.0000
  C   C3610     1.0  0.60755  0.36990  0.33859  1.0000
  C   C3611     1.0  0.97386  0.24548  0.32100  1.0000
  C   C3612     1.0  0.86069  0.37621  0.45900  1.0000
  H   H2879     1.0  0.89028  0.21609  0.38169  1.0000
  H   H2880     1.0  0.57533  0.33760  0.14372  1.0000
  C   C3613     1.0  0.55297  0.33894  0.16845  1.0000
  C   C3614     1.0  0.90292  0.34028  0.34978  1.0000
  C   C3615     1.0  0.82291  0.33867  0.43436  1.0000
  C   C3616     1.0  0.60884  0.31914  0.29461  1.0000
  C   C3617     1.0  0.59547  0.33228  0.28489  1.0000
  C   C3618     1.0  0.58632  0.34907  0.29178  1.0000
  C   C3619     1.0  0.59076  0.35289  0.30820  1.0000
  C   C3620     1.0  0.60462  0.34010  0.31766  1.0000
  C   C3621     1.0  0.61322  0.32289  0.31111  1.0000
  P   P124      1.0  0.60921  0.34458  0.33953  1.0000
  C   C3622     1.0  0.63361  0.33459  0.34286  1.0000
  C   C3623     1.0  0.52831  0.23293  0.02529  1.0000
  C   C3624     1.0  0.71959  0.18914  0.14731  1.0000
  H   H2881     1.0  0.95058  0.18234  0.34742  1.0000
  C   C3625     1.0  0.88557  0.35114  0.42241  1.0000
  C   C3626     1.0  0.62614  0.20942  0.07360  1.0000
  H   H2882     1.0  0.55920  0.23015  0.01974  1.0000
  C   C3627     1.0  0.63816  0.32950  0.36131  1.0000
  C   C3628     1.0  0.65726  0.32265  0.36379  1.0000
  C   C3629     1.0  0.67195  0.32112  0.34787  1.0000
  C   C3630     1.0  0.66756  0.32672  0.32947  1.0000
  C   C3631     1.0  0.64853  0.33366  0.32695  1.0000
  C   C3632     1.0  0.59125  0.33457  0.35805  1.0000
  C   C3633     1.0  0.59548  0.31593  0.36838  1.0000
  C   C3634     1.0  0.58123  0.30805  0.38224  1.0000
  C   C3635     1.0  0.56259  0.31856  0.38558  1.0000
  C   C3636     1.0  0.55812  0.33687  0.37491  1.0000
  C   C3637     1.0  0.57233  0.34478  0.36105  1.0000
  H   H2883     1.0  0.61586  0.30610  0.28927  1.0000
  C   C3638     1.0  0.69206  0.37242  0.29494  1.0000
  H   H2884     1.0  0.62335  0.31240  0.31864  1.0000
  C   C3639     1.0  0.49060  0.32760  0.04203  1.0000
  H   H2885     1.0  0.88187  0.29515  0.35103  1.0000
  C   C3640     1.0  0.93107  0.19065  0.28564  1.0000
  H   H2886     1.0  0.53674  0.26522  0.09187  1.0000
  H   H2887     1.0  0.50619  0.32010  0.15910  1.0000
  H   H2888     1.0  0.62704  0.33118  0.37376  1.0000
  H   H2889     1.0  0.66073  0.31885  0.37804  1.0000
  H   H2890     1.0  0.68677  0.31609  0.34974  1.0000
  H   H2891     1.0  0.67891  0.32622  0.31704  1.0000
  H   H2892     1.0  0.64561  0.33869  0.31252  1.0000
  H   H2893     1.0  0.60966  0.30735  0.36555  1.0000
  H   H2894     1.0  0.58457  0.29368  0.39021  1.0000
  H   H2895     1.0  0.55152  0.31239  0.39623  1.0000
  H   H2896     1.0  0.54357  0.34489  0.37721  1.0000
  H   H2897     1.0  0.56852  0.35881  0.35254  1.0000
  C   C3641     1.0  0.86108  0.36518  0.31855  1.0000
  C   C3642     1.0  0.76487  0.23663  0.10796  1.0000
  C   C3643     1.0  0.61660  0.38096  0.32218  1.0000
  C   C3644     1.0  0.74571  0.21874  0.19929  1.0000
  P   P125      1.0  0.87027  0.36592  0.33953  1.0000
  H   H2898     1.0  0.69987  0.36717  0.35929  1.0000
  C   C3645     1.0  0.97183  0.21432  0.39023  1.0000
  C   C3646     1.0  0.94539  0.25077  0.36822  1.0000
  C   C3647     1.0  0.93209  0.25024  0.35692  1.0000
  C   C3648     1.0  0.91234  0.25348  0.36418  1.0000
  C   C3649     1.0  0.90567  0.25743  0.38265  1.0000
  C   C3650     1.0  0.91877  0.25822  0.39391  1.0000
  C   C3651     1.0  0.93855  0.25481  0.38677  1.0000
  C   C3652     1.0  0.80660  0.37168  0.43148  1.0000
  C   C3653     1.0  0.83867  0.35907  0.36851  1.0000
  C   C3654     1.0  0.78854  0.34628  0.43484  1.0000
  C   C3655     1.0  0.56754  0.37012  0.17314  1.0000
  C   C3656     1.0  0.49471  0.29757  0.07304  1.0000
  H   H2899     1.0  0.53191  0.34400  0.19350  1.0000
  H   H2900     1.0  0.52826  0.27588  0.04907  1.0000
  C   C3657     1.0  0.67688  0.38128  0.37840  1.0000
  H   H2901     1.0  0.91604  0.34109  0.41506  1.0000
  H   H2902     1.0  0.93676  0.24702  0.34262  1.0000
  H   H2903     1.0  0.90221  0.25260  0.35553  1.0000
  H   H2904     1.0  0.85132  0.33977  0.40331  1.0000
  C   C3658     1.0  0.97547  0.23725  0.30494  1.0000
  H   H2905     1.0  0.94857  0.25507  0.39581  1.0000
  H   H2906     1.0  0.62354  0.37475  0.30960  1.0000
  H   H2907     1.0  0.86222  0.32715  0.34411  1.0000
  H   H2908     1.0  0.91362  0.26115  0.40829  1.0000
  H   H2909     1.0  0.58849  0.36084  0.45086  1.0000
  H   H2910     1.0  0.80648  0.30408  0.29808  1.0000
  C   C3659     1.0  0.66384  0.23389  0.15822  1.0000
  C   C3660     1.0  0.68206  0.22253  0.15867  1.0000
  C   C3661     1.0  0.69834  0.22850  0.14629  1.0000
  C   C3662     1.0  0.82378  0.35825  0.43169  1.0000
  H   H2911     1.0  0.71738  0.23404  0.20873  1.0000
  H   H2912     1.0  0.64625  0.37524  0.17654  1.0000
  C   C3663     1.0  0.57732  0.37374  0.21384  1.0000
  H   H2913     1.0  0.59760  0.34070  0.06112  1.0000
  H   H2914     1.0  0.49924  0.31883  0.08747  1.0000
  C   C3664     1.0  0.59353  0.36795  0.10249  1.0000
  C   C3665     1.0  0.74884  0.22143  0.09099  1.0000
  C   C3666     1.0  0.73616  0.21631  0.10793  1.0000
  Fe  Fe245     1.0  0.95418  0.37772  0.38262  1.0000
  C   C3667     1.0  0.80886  0.26025  0.28770  1.0000
  H   H2915     1.0  0.83821  0.18606  0.12786  1.0000
  H   H2916     1.0  0.91237  0.32039  0.39360  1.0000
  H   H2917     1.0  0.54754  0.32676  0.16665  1.0000
  H   H2918     1.0  0.82584  0.18895  0.02998  1.0000
  C   C3668     1.0  0.54552  0.25388  0.03412  1.0000
  H   H2919     1.0  0.88675  0.19876  0.31349  1.0000
  H   H2920     1.0  0.91569  0.29188  0.35535  1.0000
  C   C3669     1.0  0.78191  0.29327  0.29492  1.0000
  H   H2921     1.0  0.49968  0.18518  0.20876  1.0000
  C   C3670     1.0  0.84641  0.36262  0.28667  1.0000
  H   H2922     1.0  0.65122  0.22911  0.16750  1.0000
  H   H2923     1.0  0.68341  0.20899  0.16851  1.0000
  C   C3671     1.0  0.63953  0.35770  0.45961  1.0000
  H   H2924     1.0  0.67240  0.22811  0.02268  1.0000
  H   H2925     1.0  0.67606  0.27078  0.12318  1.0000
  C   C3672     1.0  0.88396  0.34241  0.34670  1.0000
  H   H2926     1.0  0.74746  0.21762  0.07781  1.0000
  H   H2927     1.0  0.72485  0.20882  0.10761  1.0000
  H   H2928     1.0  0.53683  0.29656  0.10034  1.0000
  H   H2929     1.0  0.95912  0.28373  0.36981  1.0000
  H   H2930     1.0  0.80496  0.31769  0.43716  1.0000
  H   H2931     1.0  0.83572  0.32791  0.43566  1.0000
  H   H2932     1.0  0.93739  0.20069  0.29032  1.0000
  C   C3673     1.0  0.90663  0.30584  0.35350  1.0000
  H   H2933     1.0  0.78472  0.24904  0.28442  1.0000
  H   H2934     1.0  0.97441  0.24641  0.29116  1.0000
  H   H2935     1.0  0.92518  0.20185  0.32922  1.0000
  C   C3674     1.0  0.61158  0.24115  0.08021  1.0000
  C   C3675     1.0  0.75032  0.20781  0.16923  1.0000
  H   H2936     1.0  0.61313  0.25527  0.08169  1.0000
  C   C3676     1.0  0.51737  0.26413  0.17659  1.0000
  C   C3677     1.0  0.54418  0.34867  0.18353  1.0000
  C   C3678     1.0  0.78876  0.36977  0.27773  1.0000
  C   C3679     1.0  0.96282  0.31579  0.25402  1.0000
  C   C3680     1.0  0.86706  0.35066  0.41957  1.0000
  C   C3681     1.0  0.58516  0.36659  0.07239  1.0000
  H   H2937     1.0  0.84055  0.36111  0.27469  1.0000
  H   H2938     1.0  0.57860  0.36038  0.24309  1.0000
  C   C3682     1.0  0.52506  0.19355  0.15405  1.0000
  C   C3683     1.0  0.93505  0.18898  0.37464  1.0000
  C   C3684     1.0  0.98087  0.32923  0.22386  1.0000
  C   C3685     1.0  0.88144  0.32846  0.39762  1.0000
  H   H2939     1.0  0.53578  0.20394  0.17448  1.0000
  H   H2940     1.0  0.49927  0.36408  0.08791  1.0000
  C   C3686     1.0  0.80544  0.33276  0.43557  1.0000
  P   P126      1.0  0.72180  0.21362  0.14695  1.0000
  H   H2941     1.0  0.88586  0.34535  0.30748  1.0000
  C   C3687     1.0  0.50297  0.28052  0.17700  1.0000
  H   H2942     1.0  0.75988  0.20075  0.15821  1.0000
  C   C3688     1.0  0.67145  0.21392  0.02094  1.0000
  H   H2943     1.0  0.59243  0.37006  0.36781  1.0000
  H   H2944     1.0  0.87986  0.31974  0.38794  1.0000
  H   H2945     1.0  0.85205  0.20222  0.32658  1.0000
  C   C3689     1.0  0.57629  0.36024  0.15806  1.0000
  H   H2946     1.0  0.94923  0.31297  0.26286  1.0000
  H   H2947     1.0  0.58240  0.36034  0.20860  1.0000
  H   H2948     1.0  0.58885  0.36427  0.14822  1.0000
  C   C3690     1.0  0.79430  0.35459  0.26760  1.0000
  C   C3691     1.0  0.91313  0.19647  0.28003  1.0000
  C   C3692     1.0  0.49293  0.23685  0.08178  1.0000
  C   C3693     1.0  0.77607  0.36789  0.29521  1.0000
  H   H2949     1.0  0.49755  0.23861  0.03326  1.0000
  H   H2950     1.0  0.52640  0.36574  0.14178  1.0000
  S   S495      1.0  0.67449  0.18409  0.10062  1.0000
  H   H2951     1.0  0.70840  0.25113  0.12397  1.0000
  H   H2952     1.0  0.57732  0.21388  0.08573  1.0000
  H   H2953     1.0  0.52831  0.22059  0.01916  1.0000
  H   H2954     1.0  0.50273  0.21812  0.19144  1.0000
  C   C3694     1.0  0.49150  0.21129  0.18952  1.0000
  H   H2955     1.0  0.49517  0.35500  0.15328  1.0000
  C   C3695     1.0  0.57515  0.37369  0.23340  1.0000
  H   H2956     1.0  0.69971  0.33257  0.45319  1.0000
  H   H2957     1.0  0.88767  0.36024  0.43147  1.0000
  H   H2958     1.0  0.64298  0.37210  0.34811  1.0000
  C   C3696     1.0  0.50215  0.26346  0.13194  1.0000
  C   C3697     1.0  0.50201  0.28118  0.13679  1.0000
  C   C3698     1.0  0.59154  0.21762  0.08278  1.0000
  H   H2959     1.0  0.64200  0.23194  0.07158  1.0000
  H   H2960     1.0  0.77498  0.34177  0.43572  1.0000
  C   C3699     1.0  0.83563  0.37430  0.29957  1.0000
  C   C3700     1.0  0.58350  0.37649  0.08739  1.0000
  C   C3701     1.0  0.66984  0.19933  0.03692  1.0000
  H   H2961     1.0  0.55750  0.18227  0.03514  1.0000
  C   C3702     1.0  0.80215  0.18275  0.05257  1.0000
  C   C3703     1.0  0.97315  0.28279  0.36080  1.0000
  C   C3704     1.0  0.97928  0.20572  0.32459  1.0000
  C   C3705     1.0  0.71925  0.22503  0.18197  1.0000
  C   C3706     1.0  0.65089  0.36388  0.42535  1.0000
  H   H2962     1.0  0.75136  0.21998  0.21150  1.0000
  H   H2963     1.0  0.54417  0.37190  0.19739  1.0000
  H   H2964     1.0  0.49635  0.28622  0.08521  1.0000
  H   H2965     1.0  0.98165  0.19027  0.32597  1.0000
  C   C3707     1.0  0.98266  0.29842  0.35697  1.0000
  S   S496      1.0  0.66289  0.38087  0.23376  1.0000
  S   S497      1.0  0.80329  0.18202  0.15567  1.0000
  H   H2966     1.0  0.77592  0.37610  0.43289  1.0000
  C   C3708     1.0  0.63527  0.38084  0.16772  1.0000
  C   C3709     1.0  0.59648  0.18460  0.05325  1.0000
  C   C3710     1.0  0.84291  0.37560  0.31546  1.0000
  C   C3711     1.0  0.58360  0.19105  0.01829  1.0000
  S   S498      1.0  0.98551  0.37653  0.38279  1.0000
  C   C3712     1.0  0.97969  0.20154  0.40506  1.0000
  C   C3713     1.0  0.88105  0.18668  0.32274  1.0000
  C   C3714     1.0  0.65234  0.37459  0.35671  1.0000
  C   C3715     1.0  0.52731  0.37877  0.13131  1.0000
  C   C3716     1.0  0.60180  0.19449  0.01868  1.0000
  H   H2967     1.0  0.61092  0.19962  0.00548  1.0000
  C   C3717     1.0  0.60829  0.19114  0.03606  1.0000
  H   H2968     1.0  0.62254  0.19361  0.03615  1.0000
  P   P127      1.0  0.67568  0.18574  0.97664  1.0000
  C   C3718     1.0  0.53114  0.22355  0.66101  1.0000
  S   S499      1.0  0.74101  0.34922  0.61519  1.0000
  S   S500      1.0  0.74619  0.19852  0.82441  1.0000
  Fe  Fe246     1.0  0.70903  0.35801  0.61641  1.0000
  S   S501      1.0  0.68649  0.33865  0.62997  1.0000
  Fe  Fe247     1.0  0.74352  0.36830  0.58634  1.0000
  S   S502      1.0  0.76507  0.35681  0.56240  1.0000
  H   H2969     1.0  0.80367  0.34155  0.54752  1.0000
  S   S503      1.0  0.51885  0.22339  0.54544  1.0000
  C   C3719     1.0  0.96798  0.29559  0.88415  1.0000
  Fe  Fe248     1.0  0.58607  0.27894  0.61732  1.0000
  S   S504      1.0  0.60454  0.27914  0.58831  1.0000
  S   S505      1.0  0.56308  0.30381  0.62439  1.0000
  Fe  Fe249     1.0  0.60603  0.23971  0.63347  1.0000
  S   S506      1.0  0.62648  0.23690  0.60579  1.0000
  S   S507      1.0  0.60194  0.21804  0.66080  1.0000
  Fe  Fe250     1.0  0.62896  0.26772  0.60460  1.0000
  S   S508      1.0  0.65685  0.27986  0.59361  1.0000
  Fe  Fe251     1.0  0.60021  0.24864  0.59194  1.0000
  S   S509      1.0  0.59560  0.23342  0.56927  1.0000
  S   S510      1.0  0.61056  0.26936  0.63347  1.0000
  S   S511      1.0  0.57981  0.24960  0.61970  1.0000
  C   C3720     1.0  0.64439  0.27749  0.53513  1.0000
  H   H2970     1.0  0.59729  0.27304  0.54668  1.0000
  S   S512      1.0  0.51122  0.33001  0.56075  1.0000
  S   S513      1.0  0.79496  0.22017  0.80186  1.0000
  C   C3721     1.0  0.83898  0.18590  0.82227  1.0000
  H   H2971     1.0  0.71704  0.34918  0.66777  1.0000
  H   H2972     1.0  0.83958  0.36688  0.69378  1.0000
  C   C3722     1.0  0.73855  0.32643  0.54931  1.0000
  S   S514      1.0  0.97308  0.34813  0.85445  1.0000
  C   C3723     1.0  0.53592  0.28706  0.52865  1.0000
  C   C3724     1.0  0.54308  0.26901  0.52372  1.0000
  C   C3725     1.0  0.69730  0.18520  0.69090  1.0000
  Fe  Fe252     1.0  0.90267  0.26546  0.81833  1.0000
  S   S515      1.0  0.88576  0.26626  0.84793  1.0000
  S   S516      1.0  0.92315  0.23922  0.81035  1.0000
  Fe  Fe253     1.0  0.88310  0.30522  0.80266  1.0000
  S   S517      1.0  0.86408  0.30888  0.83094  1.0000
  S   S518      1.0  0.88637  0.32770  0.77594  1.0000
  Fe  Fe254     1.0  0.89126  0.29655  0.84302  1.0000
  S   S519      1.0  0.89894  0.30961  0.86562  1.0000
  Fe  Fe255     1.0  0.86040  0.27830  0.83305  1.0000
  S   S520      1.0  0.83249  0.26653  0.84499  1.0000
  S   S521      1.0  0.91030  0.29451  0.81462  1.0000
  S   S522      1.0  0.87718  0.27585  0.80372  1.0000
  H   H2973     1.0  0.50618  0.30335  0.61839  1.0000
  C   C3726     1.0  0.86570  0.34427  0.77102  1.0000
  C   C3727     1.0  0.84783  0.34309  0.78286  1.0000
  C   C3728     1.0  0.83143  0.35631  0.77845  1.0000
  C   C3729     1.0  0.49807  0.28354  0.58194  1.0000
  C   C3730     1.0  0.59151  0.34356  0.49763  1.0000
  C   C3731     1.0  0.86722  0.35888  0.75495  1.0000
  H   H2974     1.0  0.84668  0.33203  0.79543  1.0000
  H   H2975     1.0  0.81758  0.35525  0.78755  1.0000
  H   H2976     1.0  0.74618  0.34857  0.68030  1.0000
  H   H2977     1.0  0.88104  0.35987  0.74577  1.0000
  C   C3732     1.0  0.94050  0.23221  0.82523  1.0000
  C   C3733     1.0  0.95365  0.21498  0.82447  1.0000
  C   C3734     1.0  0.96744  0.20938  0.83649  1.0000
  C   C3735     1.0  0.65114  0.18614  0.95168  1.0000
  C   C3736     1.0  0.95541  0.23861  0.84937  1.0000
  C   C3737     1.0  0.94141  0.24399  0.83771  1.0000
  H   H2978     1.0  0.95328  0.20599  0.81459  1.0000
  H   H2979     1.0  0.84663  0.22198  0.88164  1.0000
  H   H2980     1.0  0.93142  0.25735  0.83830  1.0000
  C   C3738     1.0  0.95145  0.33904  0.85758  1.0000
  C   C3739     1.0  0.93824  0.33789  0.87479  1.0000
  C   C3740     1.0  0.92203  0.32919  0.87689  1.0000
  C   C3741     1.0  0.91884  0.32159  0.86185  1.0000
  C   C3742     1.0  0.93176  0.32328  0.84447  1.0000
  C   C3743     1.0  0.94793  0.33196  0.84237  1.0000
  H   H2981     1.0  0.94076  0.34324  0.88662  1.0000
  H   H2982     1.0  0.91210  0.32800  0.89037  1.0000
  H   H2983     1.0  0.92957  0.31748  0.83279  1.0000
  H   H2984     1.0  0.95802  0.33283  0.82899  1.0000
  C   C3744     1.0  0.80554  0.23253  0.81424  1.0000
  C   C3745     1.0  0.82144  0.24115  0.80449  1.0000
  C   C3746     1.0  0.82993  0.25154  0.81367  1.0000
  C   C3747     1.0  0.82248  0.25354  0.83270  1.0000
  C   C3748     1.0  0.80657  0.24495  0.84242  1.0000
  C   C3749     1.0  0.79816  0.23444  0.83330  1.0000
  H   H2985     1.0  0.82730  0.23964  0.78982  1.0000
  H   H2986     1.0  0.84219  0.25801  0.80602  1.0000
  H   H2987     1.0  0.80078  0.24638  0.85712  1.0000
  H   H2988     1.0  0.78588  0.22796  0.84096  1.0000
  C   C3750     1.0  0.62049  0.19858  0.66566  1.0000
  H   H2989     1.0  0.59467  0.37062  0.47928  1.0000
  H   H2990     1.0  0.64002  0.20582  0.63940  1.0000
  C   C3751     1.0  0.54106  0.23883  0.65754  1.0000
  C   C3752     1.0  0.54810  0.31075  0.60728  1.0000
  C   C3753     1.0  0.53464  0.32779  0.60716  1.0000
  C   C3754     1.0  0.52320  0.33382  0.59291  1.0000
  C   C3755     1.0  0.52514  0.32270  0.57889  1.0000
  C   C3756     1.0  0.53840  0.30551  0.57927  1.0000
  C   C3757     1.0  0.54985  0.29954  0.59343  1.0000
  H   H2991     1.0  0.53317  0.33638  0.61798  1.0000
  H   H2992     1.0  0.51282  0.34697  0.59285  1.0000
  H   H2993     1.0  0.54012  0.29690  0.56845  1.0000
  H   H2994     1.0  0.56020  0.28636  0.59347  1.0000
  C   C3758     1.0  0.53958  0.22397  0.55471  1.0000
  C   C3759     1.0  0.53920  0.23890  0.56440  1.0000
  C   C3760     1.0  0.55593  0.24140  0.56993  1.0000
  C   C3761     1.0  0.57345  0.22920  0.56541  1.0000
  C   C3762     1.0  0.57375  0.21403  0.55610  1.0000
  C   C3763     1.0  0.55691  0.21127  0.55096  1.0000
  H   H2995     1.0  0.52602  0.24906  0.56696  1.0000
  H   H2996     1.0  0.55548  0.25334  0.57678  1.0000
  H   H2997     1.0  0.58722  0.20460  0.55245  1.0000
  H   H2998     1.0  0.69764  0.32699  0.55056  1.0000
  C   C3764     1.0  0.67844  0.32251  0.61942  1.0000
  C   C3765     1.0  0.68843  0.31659  0.60235  1.0000
  C   C3766     1.0  0.68175  0.30338  0.59481  1.0000
  C   C3767     1.0  0.66489  0.29610  0.60405  1.0000
  C   C3768     1.0  0.65488  0.30207  0.62110  1.0000
  C   C3769     1.0  0.66166  0.31511  0.62874  1.0000
  H   H2999     1.0  0.70140  0.32205  0.59505  1.0000
  H   H3000     1.0  0.68969  0.29881  0.58168  1.0000
  H   H3001     1.0  0.64191  0.29663  0.62842  1.0000
  H   H3002     1.0  0.65383  0.31951  0.64198  1.0000
  H   H3003     1.0  0.50364  0.20302  0.58400  1.0000
  H   H3004     1.0  0.97909  0.23953  0.79632  1.0000
  C   C3770     1.0  0.69917  0.34475  0.69567  1.0000
  H   H3005     1.0  0.88846  0.20420  0.86468  1.0000
  H   H3006     1.0  0.49261  0.29306  0.65270  1.0000
  H   H3007     1.0  0.63785  0.19840  0.59311  1.0000
  H   H3008     1.0  0.51340  0.27150  0.62938  1.0000
  C   C3771     1.0  0.91753  0.37561  0.62336  1.0000
  C   C3772     1.0  0.65586  0.21559  0.68925  1.0000
  H   H3009     1.0  0.88769  0.37518  0.84891  1.0000
  H   H3010     1.0  0.53634  0.21011  0.66975  1.0000
  C   C3773     1.0  0.98852  0.22850  0.92508  1.0000
  C   C3774     1.0  0.60759  0.36461  0.56968  1.0000
  C   C3775     1.0  0.93435  0.37505  0.76594  1.0000
  Fe  Fe256     1.0  0.98861  0.36416  0.86847  1.0000
  C   C3776     1.0  0.98787  0.29006  0.84756  1.0000
  C   C3777     1.0  0.92299  0.35927  0.79797  1.0000
  C   C3778     1.0  0.83312  0.19054  0.77697  1.0000
  C   C3779     1.0  0.78514  0.36812  0.55242  1.0000
  H   H3011     1.0  0.70805  0.24469  0.92203  1.0000
  C   C3780     1.0  0.92751  0.37358  0.80549  1.0000
  H   H3012     1.0  0.98510  0.24910  0.87915  1.0000
  C   C3781     1.0  0.91937  0.18778  0.82456  1.0000
  H   H3013     1.0  0.68632  0.33773  0.51248  1.0000
  H   H3014     1.0  0.66826  0.23919  0.71921  1.0000
  H   H3015     1.0  0.87655  0.20853  0.77634  1.0000
  C   C3782     1.0  0.91687  0.18961  0.74796  1.0000
  C   C3783     1.0  0.86435  0.20578  0.83066  1.0000
  H   H3016     1.0  0.87664  0.24316  0.76490  1.0000
  Fe  Fe257     1.0  0.50875  0.19727  0.54049  1.0000
  H   H3017     1.0  0.87406  0.21371  0.83377  1.0000
  C   C3784     1.0  0.65104  0.18592  0.73625  1.0000
  C   C3785     1.0  0.49656  0.22100  0.60507  1.0000
  Fe  Fe258     1.0  0.49348  0.35961  0.55988  1.0000
  C   C3786     1.0  0.77294  0.31668  0.69619  1.0000
  H   H3018     1.0  0.79301  0.35265  0.70278  1.0000
  H   H3019     1.0  0.86051  0.37591  0.79168  1.0000
  C   C3787     1.0  0.93328  0.18811  0.87578  1.0000
  H   H3020     1.0  0.76715  0.22634  0.97562  1.0000
  H   H3021     1.0  0.96247  0.27983  0.84540  1.0000
  C   C3788     1.0  0.76572  0.21523  0.96848  1.0000
  H   H3022     1.0  0.58107  0.20948  0.63404  1.0000
  C   C3789     1.0  0.98637  0.30020  0.87764  1.0000
  H   H3023     1.0  0.56955  0.37390  0.51754  1.0000
  C   C3790     1.0  0.96229  0.26787  0.79151  1.0000
  H   H3024     1.0  0.73722  0.38142  0.69832  1.0000
  C   C3791     1.0  0.69249  0.37497  0.53300  1.0000
  C   C3792     1.0  0.65367  0.18234  0.97085  1.0000
  H   H3025     1.0  0.94836  0.20422  0.88731  1.0000
  H   H3026     1.0  0.79021  0.37849  0.59674  1.0000
  C   C3793     1.0  0.73135  0.38118  0.49535  1.0000
  C   C3794     1.0  0.80657  0.33236  0.68448  1.0000
  H   H3027     1.0  0.96904  0.30641  0.80699  1.0000
  H   H3028     1.0  0.96003  0.29825  0.89802  1.0000
  C   C3795     1.0  0.70072  0.35548  0.53467  1.0000
  C   C3796     1.0  0.69182  0.34216  0.54905  1.0000
  H   H3029     1.0  0.74222  0.34532  0.47907  1.0000
  C   C3797     1.0  0.90152  0.20385  0.86979  1.0000
  H   H3030     1.0  0.65711  0.26691  0.69560  1.0000
  H   H3031     1.0  0.93706  0.37553  0.75062  1.0000
  C   C3798     1.0  0.98186  0.23306  0.90774  1.0000
  C   C3799     1.0  0.58335  0.31988  0.48332  1.0000
  C   C3800     1.0  0.57525  0.19650  0.63616  1.0000
  C   C3801     1.0  0.63005  0.18842  0.59032  1.0000
  H   H3032     1.0  0.56840  0.24894  0.51513  1.0000
  C   C3802     1.0  0.73529  0.32618  0.53105  1.0000
  C   C3803     1.0  0.79151  0.34021  0.69771  1.0000
  C   C3804     1.0  0.74879  0.31031  0.55942  1.0000
  C   C3805     1.0  0.75572  0.29376  0.55145  1.0000
  C   C3806     1.0  0.75248  0.29336  0.53329  1.0000
  C   C3807     1.0  0.74232  0.30954  0.52307  1.0000
  C   C3808     1.0  0.88183  0.37548  0.83631  1.0000
  C   C3809     1.0  0.95961  0.28672  0.79442  1.0000
  C   C3810     1.0  0.49702  0.20419  0.59862  1.0000
  C   C3811     1.0  0.90309  0.20329  0.75662  1.0000
  H   H3033     1.0  0.55398  0.23722  0.66349  1.0000
  C   C3812     1.0  0.63470  0.18629  0.72858  1.0000
  C   C3813     1.0  0.82109  0.19551  0.92950  1.0000
  C   C3814     1.0  0.93519  0.20408  0.88256  1.0000
  C   C3815     1.0  0.91807  0.37866  0.64153  1.0000
  C   C3816     1.0  0.76842  0.37186  0.72971  1.0000
  H   H3034     1.0  0.75148  0.31084  0.57338  1.0000
  H   H3035     1.0  0.60449  0.18777  0.69301  1.0000
  C   C3817     1.0  0.86672  0.37601  0.80392  1.0000
  H   H3036     1.0  0.76368  0.28130  0.55934  1.0000
  H   H3037     1.0  0.75791  0.28053  0.52711  1.0000
  H   H3038     1.0  0.74002  0.30900  0.50901  1.0000
  H   H3039     1.0  0.94510  0.28497  0.87735  1.0000
  C   C3818     1.0  0.54855  0.29929  0.52831  1.0000
  C   C3819     1.0  0.81868  0.36539  0.53684  1.0000
  H   H3040     1.0  0.57981  0.30591  0.48430  1.0000
  C   C3820     1.0  0.76555  0.25000  0.88515  1.0000
  C   C3821     1.0  0.74908  0.24620  0.88063  1.0000
  C   C3822     1.0  0.74368  0.22828  0.88762  1.0000
  C   C3823     1.0  0.75500  0.21404  0.89871  1.0000
  C   C3824     1.0  0.77231  0.21724  0.90218  1.0000
  C   C3825     1.0  0.77698  0.23568  0.89613  1.0000
  P   P128      1.0  0.78670  0.19859  0.91663  1.0000
  C   C3826     1.0  0.77434  0.19939  0.94087  1.0000
  C   C3827     1.0  0.51468  0.22552  0.65305  1.0000
  Fe  Fe259     1.0  0.74053  0.37598  0.62641  1.0000
  H   H3041     1.0  0.85813  0.33457  0.68985  1.0000
  S   S523      1.0  0.75989  0.37345  0.64822  1.0000
  C   C3828     1.0  0.79437  0.26168  0.73926  1.0000
  C   C3829     1.0  0.51809  0.25808  0.63817  1.0000
  C   C3830     1.0  0.56289  0.26316  0.51846  1.0000
  C   C3831     1.0  0.88956  0.26841  0.75828  1.0000
  C   C3832     1.0  0.77586  0.21405  0.94995  1.0000
  C   C3833     1.0  0.81117  0.20229  0.91406  1.0000
  H   H3042     1.0  0.88508  0.19412  0.80849  1.0000
  H   H3043     1.0  0.88663  0.34473  0.83946  1.0000
  H   H3044     1.0  0.50714  0.21356  0.65601  1.0000
  C   C3834     1.0  0.50017  0.26903  0.59786  1.0000
  H   H3045     1.0  0.71406  0.34003  0.73791  1.0000
  H   H3046     1.0  0.76962  0.26399  0.87999  1.0000
  H   H3047     1.0  0.74045  0.25716  0.87181  1.0000
  H   H3048     1.0  0.73085  0.22522  0.88430  1.0000
  H   H3049     1.0  0.75027  0.20042  0.90440  1.0000
  H   H3050     1.0  0.78940  0.23912  0.89980  1.0000
  H   H3051     1.0  0.78686  0.25165  0.73611  1.0000
  H   H3052     1.0  0.60913  0.36571  0.53957  1.0000
  H   H3053     1.0  0.78833  0.37398  0.66985  1.0000
  C   C3835     1.0  0.55343  0.35117  0.55211  1.0000
  H   H3054     1.0  0.53328  0.25941  0.52430  1.0000
  H   H3055     1.0  0.78489  0.22453  0.94273  1.0000
  C   C3836     1.0  0.50809  0.24280  0.64143  1.0000
  C   C3837     1.0  0.76709  0.37678  0.50609  1.0000
  H   H3056     1.0  0.72564  0.19650  0.75341  1.0000
  H   H3057     1.0  0.55109  0.21025  0.62236  1.0000
  C   C3838     1.0  0.88124  0.35829  0.83101  1.0000
  H   H3058     1.0  0.71545  0.18907  0.95709  1.0000
  H   H3059     1.0  0.59458  0.34804  0.50976  1.0000
  H   H3060     1.0  0.66845  0.33808  0.57279  1.0000
  H   H3061     1.0  0.65819  0.27037  0.53897  1.0000
  H   H3062     1.0  0.62894  0.25629  0.55389  1.0000
  H   H3063     1.0  0.54251  0.31308  0.53233  1.0000
  H   H3064     1.0  0.92200  0.23237  0.88793  1.0000
  H   H3065     1.0  0.54213  0.26805  0.64351  1.0000
  C   C3839     1.0  0.64984  0.24991  0.67830  1.0000
  C   C3840     1.0  0.63783  0.19591  0.65277  1.0000
  H   H3066     1.0  0.76003  0.35140  0.52504  1.0000
  P   P129      1.0  0.67085  0.19738  0.72222  1.0000
  H   H3067     1.0  0.59667  0.31002  0.55860  1.0000
  H   H3068     1.0  0.54091  0.36224  0.55076  1.0000
  H   H3069     1.0  0.61326  0.33986  0.67577  1.0000
  H   H3070     1.0  0.81588  0.37107  0.72334  1.0000
  C   C3841     1.0  0.75505  0.36336  0.51451  1.0000
  H   H3071     1.0  0.80781  0.20528  0.76545  1.0000
  H   H3072     1.0  0.92420  0.20409  0.79603  1.0000
  C   C3842     1.0  0.96941  0.28542  0.85422  1.0000
  S   S524      1.0  0.71155  0.37534  0.58656  1.0000
  H   H3073     1.0  0.74625  0.30257  0.79553  1.0000
  C   C3843     1.0  0.62793  0.26956  0.54357  1.0000
  C   C3844     1.0  0.84569  0.20649  0.84120  1.0000
  H   H3074     1.0  0.95597  0.24769  0.85913  1.0000
  H   H3075     1.0  0.66888  0.37667  0.61812  1.0000
  P   P130      1.0  0.72209  0.34724  0.51829  1.0000
  H   H3076     1.0  0.55756  0.19987  0.54331  1.0000
  H   H3077     1.0  0.80422  0.37086  0.62628  1.0000
  H   H3078     1.0  0.60157  0.30975  0.67720  1.0000
  H   H3079     1.0  0.58414  0.33020  0.58303  1.0000
  C   C3845     1.0  0.74787  0.31046  0.78097  1.0000
  C   C3846     1.0  0.79619  0.26108  0.75810  1.0000
  C   C3847     1.0  0.83950  0.21451  0.89496  1.0000
  P   P131      1.0  0.82855  0.30228  0.75298  1.0000
  C   C3848     1.0  0.85240  0.28883  0.75491  1.0000
  C   C3849     1.0  0.83121  0.32286  0.73406  1.0000
  C   C3850     1.0  0.84450  0.32057  0.71712  1.0000
  C   C3851     1.0  0.84755  0.33637  0.70267  1.0000
  C   C3852     1.0  0.83712  0.35455  0.70486  1.0000
  C   C3853     1.0  0.82375  0.35692  0.72153  1.0000
  C   C3854     1.0  0.82097  0.34125  0.73620  1.0000
  C   C3855     1.0  0.86779  0.29859  0.75252  1.0000
  C   C3856     1.0  0.88630  0.28841  0.75403  1.0000
  H   H3080     1.0  0.81633  0.31100  0.66645  1.0000
  C   C3857     1.0  0.92605  0.36018  0.77822  1.0000
  C   C3858     1.0  0.81660  0.30910  0.77564  1.0000
  C   C3859     1.0  0.79723  0.31820  0.77799  1.0000
  C   C3860     1.0  0.78771  0.32296  0.79568  1.0000
  C   C3861     1.0  0.79727  0.31816  0.81128  1.0000
  C   C3862     1.0  0.81636  0.30868  0.80917  1.0000
  C   C3863     1.0  0.82602  0.30419  0.79144  1.0000
  H   H3081     1.0  0.89201  0.23208  0.87685  1.0000
  C   C3864     1.0  0.84003  0.19825  0.92764  1.0000
  H   H3082     1.0  0.85283  0.30659  0.71525  1.0000
  H   H3083     1.0  0.87354  0.34531  0.81049  1.0000
  H   H3084     1.0  0.92573  0.36269  0.61847  1.0000
  C   C3865     1.0  0.64297  0.29476  0.52211  1.0000
  H   H3085     1.0  0.81128  0.34385  0.74928  1.0000
  H   H3086     1.0  0.86547  0.31412  0.74982  1.0000
  H   H3087     1.0  0.89798  0.29612  0.75258  1.0000
  C   C3866     1.0  0.70590  0.20200  0.95225  1.0000
  H   H3088     1.0  0.78955  0.32170  0.76612  1.0000
  H   H3089     1.0  0.77293  0.33035  0.79733  1.0000
  H   H3090     1.0  0.78992  0.32169  0.82504  1.0000
  H   H3091     1.0  0.82372  0.30477  0.82132  1.0000
  H   H3092     1.0  0.84081  0.29691  0.79023  1.0000
  C   C3867     1.0  0.73704  0.36544  0.50918  1.0000
  C   C3868     1.0  0.53444  0.25615  0.64624  1.0000
  H   H3093     1.0  0.90458  0.21824  0.75284  1.0000
  H   H3094     1.0  0.59545  0.32670  0.61837  1.0000
  C   C3869     1.0  0.75620  0.36823  0.71879  1.0000
  C   C3870     1.0  0.55833  0.19691  0.62971  1.0000
  C   C3871     1.0  0.77446  0.33258  0.70350  1.0000
  H   H3095     1.0  0.60251  0.20276  0.60277  1.0000
  C   C3872     1.0  0.60998  0.27901  0.53926  1.0000
  C   C3873     1.0  0.56020  0.33944  0.53834  1.0000
  C   C3874     1.0  0.58334  0.37806  0.60974  1.0000
  C   C3875     1.0  0.67104  0.21397  0.75328  1.0000
  C   C3876     1.0  0.67942  0.21762  0.76744  1.0000
  C   C3877     1.0  0.69911  0.21139  0.76740  1.0000
  C   C3878     1.0  0.71048  0.20182  0.75303  1.0000
  C   C3879     1.0  0.74094  0.33015  0.77734  1.0000
  H   H3096     1.0  0.55651  0.35686  0.57885  1.0000
  H   H3097     1.0  0.80730  0.27311  0.77696  1.0000
  H   H3098     1.0  0.59085  0.27065  0.51363  1.0000
  H   H3099     1.0  0.91312  0.20047  0.83078  1.0000
  C   C3880     1.0  0.80593  0.27392  0.76225  1.0000
  H   H3100     1.0  0.59203  0.30377  0.64862  1.0000
  H   H3101     1.0  0.51049  0.28647  0.57116  1.0000
  C   C3881     1.0  0.92032  0.21990  0.88296  1.0000
  C   C3882     1.0  0.88736  0.19772  0.77007  1.0000
  C   C3883     1.0  0.57577  0.32432  0.54052  1.0000
  H   H3102     1.0  0.81936  0.33879  0.67951  1.0000
  H   H3103     1.0  0.94806  0.29731  0.78911  1.0000
  C   C3884     1.0  0.58454  0.32133  0.55659  1.0000
  C   C3885     1.0  0.73245  0.34400  0.71005  1.0000
  H   H3104     1.0  0.95261  0.26373  0.78430  1.0000
  H   H3105     1.0  0.70556  0.21351  0.77875  1.0000
  P   P132      1.0  0.58491  0.30956  0.52237  1.0000
  H   H3106     1.0  0.84417  0.26079  0.76163  1.0000
  H   H3107     1.0  0.78649  0.29705  0.67688  1.0000
  H   H3108     1.0  0.75983  0.31070  0.70025  1.0000
  C   C3886     1.0  0.57768  0.33306  0.57036  1.0000
  C   C3887     1.0  0.56223  0.34808  0.56802  1.0000
  H   H3109     1.0  0.68638  0.34508  0.69002  1.0000
  C   C3888     1.0  0.96832  0.22128  0.84888  1.0000
  C   C3889     1.0  0.75213  0.33077  0.74321  1.0000
  C   C3890     1.0  0.76232  0.18614  0.95044  1.0000
  H   H3110     1.0  0.57110  0.35471  0.60604  1.0000
  H   H3111     1.0  0.77661  0.36019  0.73826  1.0000
  C   C3891     1.0  0.49131  0.30854  0.62408  1.0000
  H   H3112     1.0  0.77679  0.18415  0.88522  1.0000
  C   C3892     1.0  0.70219  0.19822  0.73880  1.0000
  H   H3113     1.0  0.92662  0.36814  0.65077  1.0000
  H   H3114     1.0  0.79010  0.25060  0.76956  1.0000
  C   C3893     1.0  0.86393  0.37476  0.47752  1.0000
  C   C3894     1.0  0.71500  0.34187  0.72261  1.0000
  H   H3115     1.0  0.68500  0.34056  0.72512  1.0000
  C   C3895     1.0  0.85590  0.36161  0.49244  1.0000
  C   C3896     1.0  0.84438  0.35004  0.48892  1.0000
  C   C3897     1.0  0.66291  0.23674  0.70736  1.0000
  C   C3898     1.0  0.74298  0.34027  0.75854  1.0000
  C   C3899     1.0  0.67522  0.34833  0.56169  1.0000
  C   C3900     1.0  0.81231  0.28786  0.72859  1.0000
  C   C3901     1.0  0.80483  0.31674  0.67706  1.0000
  H   H3116     1.0  0.80111  0.27541  0.70991  1.0000
  H   H3117     1.0  0.97747  0.19602  0.83604  1.0000
  C   C3902     1.0  0.91627  0.18769  0.86966  1.0000
  H   H3118     1.0  0.98133  0.30580  0.94421  1.0000
  C   C3903     1.0  0.82077  0.21123  0.89656  1.0000
  C   C3904     1.0  0.66743  0.36777  0.56019  1.0000
  C   C3905     1.0  0.78803  0.30888  0.68295  1.0000
  P   P133      1.0  0.75403  0.34386  0.71893  1.0000
  H   H3119     1.0  0.72921  0.21489  0.93415  1.0000
  C   C3906     1.0  0.67405  0.22126  0.95229  1.0000
  H   H3120     1.0  0.81867  0.19685  0.84541  1.0000
  H   H3121     1.0  0.69407  0.19959  0.68303  1.0000
  H   H3122     1.0  0.85839  0.36067  0.50678  1.0000
  H   H3123     1.0  0.83783  0.34015  0.50064  1.0000
  H   H3124     1.0  0.62419  0.31772  0.50782  1.0000
  H   H3125     1.0  0.83215  0.35644  0.53223  1.0000
  H   H3126     1.0  0.65567  0.21840  0.75377  1.0000
  H   H3127     1.0  0.76597  0.30324  0.73550  1.0000
  H   H3128     1.0  0.63307  0.18492  0.93214  1.0000
  C   C3907     1.0  0.95954  0.28814  0.87248  1.0000
  C   C3908     1.0  0.60841  0.29626  0.52603  1.0000
  C   C3909     1.0  0.85576  0.26872  0.75927  1.0000
  C   C3910     1.0  0.84914  0.20797  0.91048  1.0000
  C   C3911     1.0  0.75905  0.31098  0.74699  1.0000
  C   C3912     1.0  0.71380  0.21663  0.93910  1.0000
  C   C3913     1.0  0.69659  0.33787  0.49923  1.0000
  C   C3914     1.0  0.68233  0.20409  0.73894  1.0000
  C   C3915     1.0  0.90349  0.21977  0.87659  1.0000
  C   C3916     1.0  0.87426  0.25859  0.76100  1.0000
  C   C3917     1.0  0.58689  0.32535  0.49941  1.0000
  H   H3129     1.0  0.73343  0.33923  0.55565  1.0000
  C   C3918     1.0  0.75239  0.18725  0.96903  1.0000
  H   H3130     1.0  0.51436  0.26073  0.59908  1.0000
  C   C3919     1.0  0.72797  0.34211  0.48046  1.0000
  H   H3131     1.0  0.92211  0.34923  0.77251  1.0000
  C   C3920     1.0  0.56827  0.36940  0.60826  1.0000
  C   C3921     1.0  0.69844  0.34219  0.71541  1.0000
  H   H3132     1.0  0.81430  0.18791  0.94293  1.0000
  C   C3922     1.0  0.97721  0.25421  0.79833  1.0000
  H   H3133     1.0  0.50315  0.23220  0.59526  1.0000
  C   C3923     1.0  0.62504  0.30415  0.51758  1.0000
  C   C3924     1.0  0.56853  0.29357  0.52311  1.0000
  H   H3134     1.0  0.71129  0.19035  0.72815  1.0000
  C   C3925     1.0  0.68594  0.20416  0.95890  1.0000
  H   H3135     1.0  0.91706  0.34743  0.80748  1.0000
  C   C3926     1.0  0.83295  0.37090  0.76235  1.0000
  H   H3136     1.0  0.65583  0.20135  0.68697  1.0000
  C   C3927     1.0  0.87381  0.35859  0.81476  1.0000
  C   C3928     1.0  0.64943  0.23144  0.67599  1.0000
  C   C3929     1.0  0.85762  0.18536  0.81140  1.0000
  H   H3137     1.0  0.61544  0.36374  0.64602  1.0000
  H   H3138     1.0  0.55317  0.34221  0.52606  1.0000
  H   H3139     1.0  0.73722  0.35547  0.75598  1.0000
  C   C3930     1.0  0.63121  0.32870  0.56926  1.0000
  C   C3931     1.0  0.62535  0.33939  0.55244  1.0000
  H   H3140     1.0  0.65865  0.22333  0.95744  1.0000
  C   C3932     1.0  0.61358  0.35736  0.55264  1.0000
  C   C3933     1.0  0.61327  0.35388  0.58668  1.0000
  C   C3934     1.0  0.62545  0.33605  0.58626  1.0000
  P   P134      1.0  0.60749  0.36439  0.60794  1.0000
  C   C3935     1.0  0.60662  0.34660  0.62959  1.0000
  H   H3141     1.0  0.90380  0.26061  0.76014  1.0000
  H   H3142     1.0  0.81381  0.21578  0.88416  1.0000
  C   C3936     1.0  0.98648  0.27815  0.81152  1.0000
  S   S525      1.0  0.98525  0.21515  0.86407  1.0000
  H   H3143     1.0  0.52056  0.29155  0.53297  1.0000
  C   C3937     1.0  0.85089  0.37223  0.75065  1.0000
  C   C3938     1.0  0.59972  0.32969  0.63065  1.0000
  C   C3939     1.0  0.59781  0.31655  0.64781  1.0000
  C   C3940     1.0  0.60295  0.32005  0.66398  1.0000
  C   C3941     1.0  0.60951  0.33700  0.66316  1.0000
  C   C3942     1.0  0.61099  0.35040  0.64615  1.0000
  H   H3144     1.0  0.64045  0.31481  0.56914  1.0000
  H   H3145     1.0  0.62997  0.33378  0.53926  1.0000
  H   H3146     1.0  0.64416  0.22939  0.66384  1.0000
  C   C3943     1.0  0.68199  0.23578  0.93896  1.0000
  H   H3147     1.0  0.63070  0.32788  0.59897  1.0000
  C   C3944     1.0  0.66252  0.21808  0.70516  1.0000
  C   C3945     1.0  0.81421  0.28732  0.74751  1.0000
  C   C3946     1.0  0.57557  0.27545  0.51792  1.0000
  H   H3148     1.0  0.81853  0.29797  0.71693  1.0000
  C   C3947     1.0  0.61009  0.19074  0.59596  1.0000
  Fe  Fe260     1.0  0.77844  0.19591  0.81669  1.0000
  C   C3948     1.0  0.65663  0.25256  0.69395  1.0000
  C   C3949     1.0  0.87042  0.19495  0.81606  1.0000
  C   C3950     1.0  0.80239  0.27509  0.72453  1.0000
  C   C3951     1.0  0.71645  0.34701  0.68312  1.0000
  H   H3149     1.0  0.63324  0.19384  0.71435  1.0000
  H   H3150     1.0  0.64502  0.26215  0.66786  1.0000
  C   C3952     1.0  0.75685  0.30089  0.76581  1.0000
  C   C3953     1.0  0.98932  0.25929  0.80826  1.0000
  H   H3151     1.0  0.97018  0.22678  0.90596  1.0000
  H   H3152     1.0  0.65470  0.37254  0.57010  1.0000
  H   H3153     1.0  0.86383  0.21006  0.90912  1.0000
  H   H3154     1.0  0.65573  0.30100  0.51578  1.0000
  H   H3155     1.0  0.67061  0.22485  0.77872  1.0000
  C   C3954     1.0  0.80257  0.35691  0.54569  1.0000
  H   H3156     1.0  0.84779  0.19263  0.93945  1.0000
  C   C3955     1.0  0.70187  0.23346  0.93235  1.0000
  H   H3157     1.0  0.84089  0.21509  0.85232  1.0000
  H   H3158     1.0  0.76198  0.28559  0.76870  1.0000
  H   H3159     1.0  0.64453  0.35665  0.62133  1.0000
  H   H3160     1.0  0.83360  0.20236  0.78363  1.0000
  C   C3956     1.0  0.97155  0.29182  0.80450  1.0000
  H   H3161     1.0  0.53777  0.37265  0.60899  1.0000
  C   C3957     1.0  0.73298  0.34665  0.69027  1.0000
  C   C3958     1.0  0.83312  0.19635  0.83718  1.0000
  H   H3162     1.0  0.67679  0.33163  0.48411  1.0000
  H   H3163     1.0  0.73385  0.33756  0.78908  1.0000
  C   C3959     1.0  0.71499  0.34201  0.49791  1.0000
  H   H3164     1.0  0.67274  0.24886  0.93376  1.0000
  C   C3960     1.0  0.64233  0.37113  0.61337  1.0000
  H   H3165     1.0  0.92495  0.37243  0.82088  1.0000
  H   H3166     1.0  0.92901  0.19396  0.73748  1.0000
  C   C3961     1.0  0.59182  0.35636  0.48025  1.0000
  H   H3167     1.0  0.78087  0.37522  0.51041  1.0000
  C   C3962     1.0  0.69114  0.33431  0.48319  1.0000
  C   C3963     1.0  0.61780  0.18560  0.68294  1.0000
  C   C3964     1.0  0.81856  0.19233  0.76649  1.0000
  C   C3965     1.0  0.54934  0.37945  0.61012  1.0000
  C   C3966     1.0  0.62584  0.37865  0.60507  1.0000
  H   H3168     1.0  0.98189  0.21872  0.93687  1.0000
  H   H3169     1.0  0.59875  0.37870  0.56950  1.0000
  H   H3170     1.0  0.60979  0.18656  0.51130  1.0000
  C   C3967     1.0  0.92563  0.18988  0.80475  1.0000
  H   H3171     1.0  0.94419  0.37964  0.87072  1.0000
  H   H3172     1.0  0.66212  0.19137  0.94024  1.0000
  C   C3968     1.0  0.67605  0.38105  0.54588  1.0000
  C   C3969     1.0  0.63472  0.18239  0.94698  1.0000
  H   H3173     1.0  0.88968  0.38655  0.30330  1.0000
  C   C3970     1.0  0.53545  0.45670  0.41095  1.0000
  S   S526      1.0  0.69223  0.41532  0.47474  1.0000
  C   C3971     1.0  0.52033  0.49063  0.38845  1.0000
  S   S527      1.0  0.61084  0.47962  0.45836  1.0000
  H   H3174     1.0  0.97386  0.55088  0.00091  1.0000
  H   H3175     1.0  0.90288  0.49736  0.44414  1.0000
  S   S528      1.0  0.83322  0.42035  0.46932  1.0000
  C   C3972     1.0  0.69776  0.39984  0.45818  1.0000
  C   C3973     1.0  0.58036  0.44521  0.10508  1.0000
  C   C3974     1.0  0.90136  0.46786  0.45628  1.0000
  C   C3975     1.0  0.60101  0.41275  0.09053  1.0000
  Fe  Fe261     1.0  0.84928  0.44493  0.46108  1.0000
  H   H3176     1.0  0.51491  0.50387  0.37961  1.0000
  P   P135      1.0  0.56826  0.39973  0.08787  1.0000
  S   S529      1.0  0.82269  0.46774  0.46237  1.0000
  P   P136      1.0  0.57632  0.39067  0.17583  1.0000
  C   C3976     1.0  0.74618  0.44341  0.31705  1.0000
  H   H3177     1.0  0.65991  0.41416  0.43301  1.0000
  H   H3178     1.0  0.91769  0.47101  0.39566  1.0000
  H   H3179     1.0  0.76592  0.43616  0.33697  1.0000
  S   S530      1.0  0.87090  0.44911  0.43355  1.0000
  C   C3977     1.0  0.50408  0.51921  0.04575  1.0000
  S   S531      1.0  0.63835  0.40650  0.26641  1.0000
  C   C3978     1.0  0.95001  0.55111  0.02425  1.0000
  Fe  Fe262     1.0  0.64326  0.40938  0.23435  1.0000
  S   S532      1.0  0.64932  0.43752  0.21595  1.0000
  C   C3979     1.0  0.52976  0.41163  0.10330  1.0000
  Fe  Fe263     1.0  0.58292  0.51540  0.32306  1.0000
  S   S533      1.0  0.55363  0.50896  0.33746  1.0000
  S   S534      1.0  0.58259  0.53355  0.29389  1.0000
  Fe  Fe264     1.0  0.60127  0.49316  0.35670  1.0000
  S   S535      1.0  0.57345  0.48544  0.37363  1.0000
  S   S536      1.0  0.62760  0.47985  0.36949  1.0000
  Fe  Fe265     1.0  0.56937  0.47918  0.34604  1.0000
  S   S537      1.0  0.55882  0.45185  0.34710  1.0000
  Fe  Fe266     1.0  0.56098  0.51596  0.36322  1.0000
  S   S538      1.0  0.54014  0.53373  0.38325  1.0000
  S   S539      1.0  0.59805  0.48494  0.32971  1.0000
  S   S540      1.0  0.58933  0.52435  0.34835  1.0000
  Fe  Fe267     1.0  0.60742  0.52334  0.09942  1.0000
  S   S541      1.0  0.57580  0.53512  0.10265  1.0000
  S   S542      1.0  0.63034  0.53880  0.07970  1.0000
  Fe  Fe268     1.0  0.60081  0.48749  0.12924  1.0000
  S   S543      1.0  0.56887  0.49733  0.13494  1.0000
  S   S544      1.0  0.61179  0.45696  0.14167  1.0000
  Fe  Fe269     1.0  0.57147  0.50505  0.10301  1.0000
  S   S545      1.0  0.55821  0.49370  0.08263  1.0000
  Fe  Fe270     1.0  0.57671  0.52604  0.13411  1.0000
  S   S546      1.0  0.56176  0.54540  0.15547  1.0000
  S   S547      1.0  0.60335  0.49423  0.09743  1.0000
  S   S548      1.0  0.60843  0.51537  0.13090  1.0000
  C   C3980     1.0  0.49452  0.53070  0.43684  1.0000
  S   S549      1.0  0.95460  0.39668  0.35371  1.0000
  H   H3180     1.0  0.55730  0.39782  0.31845  1.0000
  H   H3181     1.0  0.70652  0.41487  0.29175  1.0000
  C   C3981     1.0  0.60355  0.54196  0.28097  1.0000
  C   C3982     1.0  0.62105  0.53656  0.28762  1.0000
  C   C3983     1.0  0.89813  0.43025  0.40821  1.0000
  H   H3182     1.0  0.65030  0.45562  0.25112  1.0000
  C   C3984     1.0  0.61882  0.56139  0.25253  1.0000
  C   C3985     1.0  0.60257  0.55419  0.26336  1.0000
  H   H3183     1.0  0.52275  0.47337  0.36713  1.0000
  H   H3184     1.0  0.57243  0.45816  0.11011  1.0000
  H   H3185     1.0  0.56462  0.53169  0.41361  1.0000
  H   H3186     1.0  0.58912  0.55827  0.25817  1.0000
  C   C3986     1.0  0.63910  0.44309  0.19514  1.0000
  C   C3987     1.0  0.63624  0.46202  0.18515  1.0000
  C   C3988     1.0  0.62756  0.46662  0.16882  1.0000
  C   C3989     1.0  0.62205  0.45219  0.16232  1.0000
  C   C3990     1.0  0.62522  0.43329  0.17212  1.0000
  C   C3991     1.0  0.63364  0.42874  0.18852  1.0000
  H   H3187     1.0  0.64027  0.47318  0.19028  1.0000
  H   H3188     1.0  0.62515  0.48125  0.16130  1.0000
  H   H3189     1.0  0.62112  0.42213  0.16701  1.0000
  H   H3190     1.0  0.63618  0.41405  0.19583  1.0000
  C   C3992     1.0  0.57803  0.41442  0.30071  1.0000
  C   C3993     1.0  0.58629  0.43079  0.29846  1.0000
  C   C3994     1.0  0.58037  0.44282  0.31235  1.0000
  C   C3995     1.0  0.56641  0.43826  0.32855  1.0000
  C   C3996     1.0  0.55828  0.42196  0.33060  1.0000
  C   C3997     1.0  0.56390  0.41025  0.31672  1.0000
  H   H3191     1.0  0.59703  0.43426  0.28597  1.0000
  H   H3192     1.0  0.58665  0.45546  0.31057  1.0000
  H   H3193     1.0  0.54747  0.41839  0.34298  1.0000
  H   H3194     1.0  0.92456  0.55544  0.04577  1.0000
  H   H3195     1.0  0.54809  0.43454  0.01517  1.0000
  C   C3998     1.0  0.51232  0.50175  0.03985  1.0000
  C   C3999     1.0  0.53915  0.48081  0.08509  1.0000
  C   C4000     1.0  0.52271  0.48271  0.09926  1.0000
  H   H3196     1.0  0.70298  0.56726  0.98519  1.0000
  H   H3197     1.0  0.52179  0.49146  0.10981  1.0000
  H   H3198     1.0  0.55824  0.40715  0.47065  1.0000
  H   H3199     1.0  0.62932  0.38875  0.37551  1.0000
  C   C4001     1.0  0.59852  0.57014  0.04052  1.0000
  H   H3200     1.0  0.59292  0.56999  0.09612  1.0000
  C   C4002     1.0  0.62315  0.55460  0.05944  1.0000
  C   C4003     1.0  0.60412  0.55780  0.05676  1.0000
  H   H3201     1.0  0.53311  0.43431  0.46124  1.0000
  C   C4004     1.0  0.54014  0.57142  0.29283  1.0000
  H   H3202     1.0  0.96546  0.47437  0.43445  1.0000
  H   H3203     1.0  0.59373  0.55048  0.06693  1.0000
  Fe  Fe271     1.0  0.49313  0.39439  0.05559  1.0000
  C   C4005     1.0  0.74110  0.48087  0.44849  1.0000
  H   H3204     1.0  0.62953  0.40528  0.44177  1.0000
  C   C4006     1.0  0.54723  0.56484  0.35554  1.0000
  C   C4007     1.0  0.53923  0.55839  0.37451  1.0000
  H   H3205     1.0  0.53299  0.40752  0.03493  1.0000
  C   C4008     1.0  0.83844  0.42424  0.41874  1.0000
  H   H3206     1.0  0.55467  0.55471  0.34633  1.0000
  H   H3207     1.0  0.57243  0.44633  0.02691  1.0000
  C   C4009     1.0  0.88771  0.42915  0.42697  1.0000
  C   C4010     1.0  0.89114  0.41237  0.44026  1.0000
  H   H3208     1.0  0.56778  0.57617  0.22249  1.0000
  C   C4011     1.0  0.83603  0.40546  0.42700  1.0000
  C   C4012     1.0  0.91523  0.39777  0.41606  1.0000
  H   H3209     1.0  0.88331  0.41156  0.45479  1.0000
  H   H3210     1.0  0.61475  0.53303  0.99416  1.0000
  H   H3211     1.0  0.76806  0.47347  0.47401  1.0000
  C   C4013     1.0  0.61622  0.47956  0.43367  1.0000
  C   C4014     1.0  0.60491  0.49294  0.42185  1.0000
  C   C4015     1.0  0.60810  0.49284  0.40219  1.0000
  C   C4016     1.0  0.62311  0.47971  0.39417  1.0000
  C   C4017     1.0  0.63481  0.46660  0.40589  1.0000
  C   C4018     1.0  0.63124  0.46634  0.42570  1.0000
  H   H3212     1.0  0.59362  0.50335  0.42801  1.0000
  H   H3213     1.0  0.59921  0.50322  0.39318  1.0000
  H   H3214     1.0  0.64658  0.45665  0.39962  1.0000
  H   H3215     1.0  0.64023  0.45616  0.43471  1.0000
  C   C4019     1.0  0.77845  0.42662  0.40237  1.0000
  C   C4020     1.0  0.76889  0.41645  0.41896  1.0000
  C   C4021     1.0  0.77036  0.41934  0.43709  1.0000
  C   C4022     1.0  0.78137  0.43242  0.43888  1.0000
  C   C4023     1.0  0.79098  0.44256  0.42226  1.0000
  C   C4024     1.0  0.55366  0.53680  0.25266  1.0000
  H   H3216     1.0  0.75992  0.40676  0.41782  1.0000
  H   H3217     1.0  0.76260  0.41168  0.44976  1.0000
  H   H3218     1.0  0.79895  0.45316  0.42336  1.0000
  C   C4025     1.0  0.58595  0.53915  0.00997  1.0000
  C   C4026     1.0  0.63914  0.46771  0.25425  1.0000
  C   C4027     1.0  0.63411  0.47196  0.27271  1.0000
  C   C4028     1.0  0.61980  0.48766  0.27649  1.0000
  C   C4029     1.0  0.61011  0.49873  0.26205  1.0000
  C   C4030     1.0  0.61473  0.49431  0.24360  1.0000
  C   C4031     1.0  0.62979  0.47910  0.23968  1.0000
  P   P137      1.0  0.60393  0.50980  0.22424  1.0000
  C   C4032     1.0  0.62287  0.52180  0.20962  1.0000
  C   C4033     1.0  0.57052  0.43202  0.10171  1.0000
  C   C4034     1.0  0.63876  0.53647  0.17876  1.0000
  C   C4035     1.0  0.62501  0.52572  0.18963  1.0000
  H   H3219     1.0  0.69817  0.49198  0.46421  1.0000
  C   C4036     1.0  0.56906  0.52282  0.24666  1.0000
  C   C4037     1.0  0.57595  0.49753  0.18631  1.0000
  H   H3220     1.0  0.64142  0.46322  0.28399  1.0000
  H   H3221     1.0  0.61624  0.49148  0.29055  1.0000
  H   H3222     1.0  0.59936  0.51096  0.26526  1.0000
  H   H3223     1.0  0.66353  0.50453  0.47254  1.0000
  H   H3224     1.0  0.66153  0.55119  0.17915  1.0000
  H   H3225     1.0  0.63985  0.53995  0.16346  1.0000
  H   H3226     1.0  0.61592  0.52090  0.18233  1.0000
  H   H3227     1.0  0.90936  0.40526  0.35693  1.0000
  H   H3228     1.0  0.56920  0.50796  0.25342  1.0000
  H   H3229     1.0  0.64522  0.41637  0.33758  1.0000
  C   C4038     1.0  0.52344  0.49086  0.40667  1.0000
  C   C4039     1.0  0.53137  0.47397  0.41795  1.0000
  C   C4040     1.0  0.90461  0.40158  0.34526  1.0000
  P   P138      1.0  0.53478  0.47420  0.44179  1.0000
  C   C4041     1.0  0.55303  0.45401  0.44855  1.0000
  C   C4042     1.0  0.54801  0.43619  0.45777  1.0000
  C   C4043     1.0  0.56226  0.42064  0.46287  1.0000
  C   C4044     1.0  0.58159  0.42273  0.45875  1.0000
  C   C4045     1.0  0.58671  0.44028  0.44925  1.0000
  C   C4046     1.0  0.57252  0.45583  0.44408  1.0000
  C   C4047     1.0  0.54300  0.49579  0.44267  1.0000
  C   C4048     1.0  0.72415  0.57010  0.00077  1.0000
  H   H3230     1.0  0.79685  0.44775  0.39136  1.0000
  S   S550      1.0  0.65618  0.56670  0.24636  1.0000
  C   C4049     1.0  0.96812  0.43042  0.41705  1.0000
  C   C4050     1.0  0.55233  0.50633  0.42603  1.0000
  H   H3231     1.0  0.51993  0.50433  0.41176  1.0000
  C   C4051     1.0  0.98421  0.56323  0.05495  1.0000
  H   H3232     1.0  0.59254  0.41090  0.46334  1.0000
  H   H3233     1.0  0.60166  0.44204  0.44614  1.0000
  H   H3234     1.0  0.57685  0.46929  0.43674  1.0000
  C   C4052     1.0  0.69317  0.39187  0.28918  1.0000
  H   H3235     1.0  0.62636  0.38258  0.47238  1.0000
  H   H3236     1.0  0.51952  0.53959  0.34842  1.0000
  H   H3237     1.0  0.55556  0.50138  0.41250  1.0000
  C   C4053     1.0  0.70619  0.50633  0.27007  1.0000
  C   C4054     1.0  0.68932  0.50995  0.26247  1.0000
  C   C4055     1.0  0.67346  0.50183  0.27274  1.0000
  C   C4056     1.0  0.67434  0.49031  0.29073  1.0000
  C   C4057     1.0  0.69123  0.48658  0.29854  1.0000
  C   C4058     1.0  0.70714  0.49477  0.28806  1.0000
  P   P139      1.0  0.69133  0.47435  0.32303  1.0000
  C   C4059     1.0  0.67683  0.45573  0.32832  1.0000
  C   C4060     1.0  0.71556  0.46354  0.32679  1.0000
  C   C4061     1.0  0.72805  0.45318  0.31342  1.0000
  C   C4062     1.0  0.82704  0.39753  0.37237  1.0000
  P   P140      1.0  0.64739  0.40052  0.40265  1.0000
  C   C4063     1.0  0.73988  0.45460  0.34714  1.0000
  C   C4064     1.0  0.72172  0.46434  0.34361  1.0000
  C   C4065     1.0  0.68539  0.43639  0.32844  1.0000
  C   C4066     1.0  0.67398  0.42231  0.33180  1.0000
  C   C4067     1.0  0.65396  0.42733  0.33506  1.0000
  C   C4068     1.0  0.64531  0.44645  0.33514  1.0000
  C   C4069     1.0  0.65667  0.46056  0.33193  1.0000
  C   C4070     1.0  0.68131  0.49182  0.33848  1.0000
  C   C4071     1.0  0.68187  0.51137  0.33159  1.0000
  C   C4072     1.0  0.67444  0.52476  0.34373  1.0000
  C   C4073     1.0  0.66660  0.51873  0.36286  1.0000
  C   C4074     1.0  0.66621  0.49931  0.36986  1.0000
  C   C4075     1.0  0.67339  0.48592  0.35771  1.0000
  H   H3238     1.0  0.71837  0.51289  0.26221  1.0000
  H   H3239     1.0  0.68834  0.51940  0.24882  1.0000
  H   H3240     1.0  0.66024  0.50496  0.26700  1.0000
  H   H3241     1.0  0.66159  0.48486  0.29861  1.0000
  H   H3242     1.0  0.72007  0.49275  0.29401  1.0000
  H   H3243     1.0  0.72349  0.45195  0.30058  1.0000
  C   C4076     1.0  0.54351  0.41273  0.04009  1.0000
  H   H3244     1.0  0.74448  0.45488  0.36030  1.0000
  H   H3245     1.0  0.71250  0.47215  0.35424  1.0000
  H   H3246     1.0  0.70082  0.43196  0.32594  1.0000
  H   H3247     1.0  0.68074  0.40747  0.33181  1.0000
  C   C4077     1.0  0.53334  0.55473  0.08737  1.0000
  C   C4078     1.0  0.92121  0.46399  0.36786  1.0000
  H   H3248     1.0  0.64969  0.47531  0.33219  1.0000
  H   H3249     1.0  0.68790  0.51642  0.31686  1.0000
  H   H3250     1.0  0.67461  0.53985  0.33827  1.0000
  H   H3251     1.0  0.66060  0.52910  0.37222  1.0000
  H   H3252     1.0  0.65977  0.49468  0.38460  1.0000
  H   H3253     1.0  0.67236  0.47104  0.36329  1.0000
  C   C4079     1.0  0.90937  0.48257  0.44342  1.0000
  C   C4080     1.0  0.59612  0.47679  0.21513  1.0000
  C   C4081     1.0  0.96137  0.41370  0.41704  1.0000
  C   C4082     1.0  0.58078  0.41555  0.09460  1.0000
  C   C4083     1.0  0.85947  0.39389  0.40098  1.0000
  H   H3254     1.0  0.60354  0.46830  0.22635  1.0000
  H   H3255     1.0  0.63611  0.43566  0.37607  1.0000
  C   C4084     1.0  0.58874  0.46719  0.20441  1.0000
  S   S551      1.0  0.73203  0.39936  0.31874  1.0000
  H   H3256     1.0  0.87185  0.41555  0.37951  1.0000
  H   H3257     1.0  0.60726  0.39581  0.42009  1.0000
  H   H3258     1.0  0.74734  0.48949  0.09991  1.0000
  C   C4085     1.0  0.62420  0.41451  0.39880  1.0000
  C   C4086     1.0  0.56215  0.41074  0.06469  1.0000
  C   C4087     1.0  0.90945  0.44878  0.45518  1.0000
  H   H3259     1.0  0.63034  0.39969  0.12175  1.0000
  C   C4088     1.0  0.59180  0.56032  0.16289  1.0000
  C   C4089     1.0  0.72614  0.45265  0.45792  1.0000
  C   C4090     1.0  0.81618  0.38392  0.38321  1.0000
  C   C4091     1.0  0.53761  0.54726  0.07048  1.0000
  H   H3260     1.0  0.72605  0.40678  0.44696  1.0000
  H   H3261     1.0  0.65084  0.54003  0.28205  1.0000
  C   C4092     1.0  0.93398  0.56219  0.03367  1.0000
  C   C4093     1.0  0.52953  0.57173  0.38625  1.0000
  C   C4094     1.0  0.60554  0.53120  0.00807  1.0000
  C   C4095     1.0  0.61077  0.42589  0.09411  1.0000
  C   C4096     1.0  0.97862  0.47769  0.38607  1.0000
  C   C4097     1.0  0.97231  0.47907  0.41988  1.0000
  C   C4098     1.0  0.63651  0.56426  0.04593  1.0000
  S   S552      1.0  0.77616  0.42410  0.37927  1.0000
  S   S553      1.0  0.78098  0.43722  0.46191  1.0000
  Fe  Fe272     1.0  0.80682  0.44287  0.47174  1.0000
  C   C4099     1.0  0.78956  0.43963  0.40411  1.0000
  C   C4100     1.0  0.62319  0.43057  0.38413  1.0000
  H   H3262     1.0  0.53577  0.44329  0.38711  1.0000
  H   H3263     1.0  0.97694  0.47191  0.37416  1.0000
  C   C4101     1.0  0.73882  0.46334  0.42454  1.0000
  C   C4102     1.0  0.74466  0.47851  0.42940  1.0000
  C   C4103     1.0  0.54627  0.51903  0.46080  1.0000
  H   H3264     1.0  0.73315  0.38730  0.42152  1.0000
  H   H3265     1.0  0.94800  0.41457  0.41226  1.0000
  H   H3266     1.0  0.65703  0.50043  0.16470  1.0000
  H   H3267     1.0  0.60756  0.42370  0.33737  1.0000
  H   H3268     1.0  0.74188  0.46129  0.40980  1.0000
  H   H3269     1.0  0.75208  0.48835  0.41837  1.0000
  H   H3270     1.0  0.62374  0.40872  0.30913  1.0000
  S   S554      1.0  0.63597  0.42515  0.47074  1.0000
  H   H3271     1.0  0.53390  0.49393  0.47332  1.0000
  H   H3272     1.0  0.51760  0.56304  0.31584  1.0000
  H   H3273     1.0  0.91263  0.40881  0.29666  1.0000
  H   H3274     1.0  0.54040  0.39879  0.15977  1.0000
  C   C4104     1.0  0.52863  0.56860  0.00175  1.0000
  C   C4105     1.0  0.57408  0.53768  0.02811  1.0000
  C   C4106     1.0  0.57094  0.42588  0.05326  1.0000
  H   H3275     1.0  0.58154  0.43132  0.05803  1.0000
  H   H3276     1.0  0.53707  0.53229  0.07138  1.0000
  H   H3277     1.0  0.68446  0.40077  0.27911  1.0000
  H   H3278     1.0  0.90706  0.47171  0.36561  1.0000
  H   H3279     1.0  0.97156  0.43581  0.37603  1.0000
  C   C4107     1.0  0.51205  0.47329  0.45810  1.0000
  H   H3280     1.0  0.65786  0.54436  0.21455  1.0000
  C   C4108     1.0  0.64891  0.53891  0.20754  1.0000
  C   C4109     1.0  0.49575  0.52686  0.34665  1.0000
  H   H3281     1.0  0.62978  0.45041  0.33785  1.0000
  H   H3282     1.0  0.60188  0.54967  0.15576  1.0000
  H   H3283     1.0  0.67163  0.42210  0.37133  1.0000
  H   H3284     1.0  0.59112  0.45166  0.20713  1.0000
  C   C4110     1.0  0.60539  0.44020  0.37958  1.0000
  C   C4111     1.0  0.63741  0.54382  0.27674  1.0000
  C   C4112     1.0  0.85125  0.42788  0.40160  1.0000
  C   C4113     1.0  0.60703  0.40841  0.40902  1.0000
  H   H3285     1.0  0.49977  0.54104  0.40669  1.0000
  C   C4114     1.0  0.84679  0.39007  0.41839  1.0000
  C   C4115     1.0  0.53218  0.45651  0.39274  1.0000
  H   H3286     1.0  0.62857  0.51544  0.02275  1.0000
  H   H3287     1.0  0.65554  0.38661  0.14171  1.0000
  H   H3288     1.0  0.63304  0.52632  0.23397  1.0000
  H   H3289     1.0  0.67095  0.38934  0.46686  1.0000
  H   H3290     1.0  0.52337  0.56681  0.40097  1.0000
  H   H3291     1.0  0.55766  0.51019  0.02112  1.0000
  H   H3292     1.0  0.72597  0.54785  0.07640  1.0000
  H   H3293     1.0  0.69530  0.54657  0.09895  1.0000
  C   C4116     1.0  0.60044  0.44201  0.10152  1.0000
  C   C4117     1.0  0.57189  0.56094  0.16470  1.0000
  H   H3294     1.0  0.60800  0.45220  0.10426  1.0000
  C   C4118     1.0  0.59857  0.57370  0.17029  1.0000
  H   H3295     1.0  0.74532  0.49299  0.45185  1.0000
  H   H3296     1.0  0.96109  0.43735  0.34575  1.0000
  C   C4119     1.0  0.98482  0.49220  0.41639  1.0000
  C   C4120     1.0  0.91201  0.40892  0.32634  1.0000
  H   H3297     1.0  0.60750  0.51151  0.05460  1.0000
  H   H3298     1.0  0.53029  0.42427  0.09229  1.0000
  H   H3299     1.0  0.50392  0.49040  0.04276  1.0000
  H   H3300     1.0  0.55254  0.46798  0.06032  1.0000
  Fe  Fe273     1.0  0.76351  0.39976  0.37444  1.0000
  C   C4121     1.0  0.50459  0.53824  0.35401  1.0000
  H   H3301     1.0  0.57468  0.44193  0.38633  1.0000
  C   C4122     1.0  0.52425  0.46074  0.07140  1.0000
  C   C4123     1.0  0.53454  0.53056  0.03383  1.0000
  C   C4124     1.0  0.55478  0.52984  0.44401  1.0000
  H   H3302     1.0  0.54218  0.53269  0.26412  1.0000
  H   H3303     1.0  0.54369  0.57548  0.17542  1.0000
  C   C4125     1.0  0.50747  0.46332  0.08511  1.0000
  H   H3304     1.0  0.57319  0.52573  0.05819  1.0000
  C   C4126     1.0  0.53991  0.46954  0.07135  1.0000
  C   C4127     1.0  0.56582  0.43449  0.03550  1.0000
  C   C4128     1.0  0.63620  0.55651  0.25931  1.0000
  H   H3305     1.0  0.83087  0.43596  0.42599  1.0000
  H   H3306     1.0  0.60475  0.45245  0.36808  1.0000
  H   H3307     1.0  0.98363  0.54813  0.05696  1.0000
  C   C4129     1.0  0.88588  0.38349  0.33412  1.0000
  C   C4130     1.0  0.91192  0.41461  0.40272  1.0000
  C   C4131     1.0  0.61333  0.52127  0.02414  1.0000
  H   H3308     1.0  0.72448  0.43909  0.43494  1.0000
  C   C4132     1.0  0.95150  0.44449  0.35675  1.0000
  C   C4133     1.0  0.93331  0.45450  0.35375  1.0000
  H   H3309     1.0  0.95301  0.53574  0.02904  1.0000
  C   C4134     1.0  0.92731  0.46353  0.38496  1.0000
  C   C4135     1.0  0.94546  0.45325  0.38820  1.0000
  C   C4136     1.0  0.95746  0.44368  0.37397  1.0000
  P   P141      1.0  0.95411  0.45364  0.40959  1.0000
  C   C4137     1.0  0.93373  0.45904  0.42823  1.0000
  C   C4138     1.0  0.57332  0.39100  0.20107  1.0000
  H   H3310     1.0  0.68660  0.38381  0.38664  1.0000
  H   H3311     1.0  0.50158  0.55634  0.37439  1.0000
  H   H3312     1.0  0.75540  0.43479  0.30706  1.0000
  C   C4139     1.0  0.58359  0.54737  0.22339  1.0000
  C   C4140     1.0  0.63507  0.39017  0.44191  1.0000
  C   C4141     1.0  0.92544  0.47821  0.42941  1.0000
  H   H3313     1.0  0.57359  0.47006  0.18123  1.0000
  C   C4142     1.0  0.52474  0.47349  0.38145  1.0000
  H   H3314     1.0  0.49980  0.42069  0.11434  1.0000
  C   C4143     1.0  0.92550  0.44434  0.44118  1.0000
  C   C4144     1.0  0.96913  0.47170  0.40473  1.0000
  C   C4145     1.0  0.63082  0.57691  0.02971  1.0000
  H   H3315     1.0  0.92863  0.45492  0.34048  1.0000
  C   C4146     1.0  0.64444  0.38364  0.42489  1.0000
  C   C4147     1.0  0.52521  0.57453  0.30822  1.0000
  S   S555      1.0  0.58406  0.39892  0.28386  1.0000
  C   C4148     1.0  0.55903  0.57483  0.17392  1.0000
  C   C4149     1.0  0.90480  0.39670  0.43480  1.0000
  C   C4150     1.0  0.75205  0.44406  0.33393  1.0000
  C   C4151     1.0  0.51508  0.53363  0.04264  1.0000
  H   H3316     1.0  0.61785  0.57070  0.23889  1.0000
  H   H3317     1.0  0.93118  0.48982  0.41932  1.0000
  C   C4152     1.0  0.55211  0.42791  0.02891  1.0000
  H   H3318     1.0  0.90281  0.43740  0.46475  1.0000
  H   H3319     1.0  0.49756  0.39152  0.13924  1.0000
  H   H3320     1.0  0.79422  0.38302  0.27203  1.0000
  C   C4153     1.0  0.96188  0.55977  0.00832  1.0000
  H   H3321     1.0  0.71670  0.48798  0.12277  1.0000
  C   C4154     1.0  0.51240  0.40962  0.11582  1.0000
  H   H3322     1.0  0.92256  0.41824  0.32332  1.0000
  H   H3323     1.0  0.62191  0.52704  0.30120  1.0000
  H   H3324     1.0  0.53800  0.48502  0.02652  1.0000
  C   C4155     1.0  0.50695  0.47415  0.09916  1.0000
  H   H3325     1.0  0.52495  0.45245  0.06051  1.0000
  H   H3326     1.0  0.80299  0.38839  0.39275  1.0000
  C   C4156     1.0  0.59881  0.39774  0.35419  1.0000
  H   H3327     1.0  0.55946  0.54293  0.44445  1.0000
  H   H3328     1.0  0.54137  0.39264  0.06655  1.0000
  C   C4157     1.0  0.59398  0.49690  0.21112  1.0000
  C   C4158     1.0  0.54267  0.51302  0.02777  1.0000
  H   H3329     1.0  0.49406  0.47628  0.10982  1.0000
  H   H3330     1.0  0.63429  0.47596  0.22534  1.0000
  H   H3331     1.0  0.91996  0.41560  0.38827  1.0000
  H   H3332     1.0  0.55496  0.43511  0.10413  1.0000
  H   H3333     1.0  0.82628  0.40291  0.44049  1.0000
  S   S556      1.0  0.77535  0.38749  0.34743  1.0000
  C   C4159     1.0  0.53610  0.42875  0.14804  1.0000
  C   C4160     1.0  0.54304  0.44591  0.14481  1.0000
  C   C4161     1.0  0.56001  0.44616  0.15091  1.0000
  C   C4162     1.0  0.57009  0.42938  0.16013  1.0000
  C   C4163     1.0  0.56313  0.41213  0.16362  1.0000
  C   C4164     1.0  0.54604  0.41189  0.15748  1.0000
  H   H3334     1.0  0.54420  0.55748  0.28859  1.0000
  H   H3335     1.0  0.58026  0.54665  0.99728  1.0000
  C   C4165     1.0  0.56504  0.40811  0.22779  1.0000
  C   C4166     1.0  0.70949  0.57707  0.98998  1.0000
  H   H3336     1.0  0.49429  0.48563  0.43641  1.0000
  C   C4167     1.0  0.73236  0.46757  0.46300  1.0000
  C   C4168     1.0  0.56807  0.56128  0.22927  1.0000
  C   C4169     1.0  0.56724  0.40823  0.20819  1.0000
  H   H3337     1.0  0.56803  0.50561  0.17523  1.0000
  C   C4170     1.0  0.58333  0.50719  0.19695  1.0000
  H   H3338     1.0  0.52303  0.42853  0.14315  1.0000
  H   H3339     1.0  0.53544  0.45896  0.13736  1.0000
  H   H3340     1.0  0.56569  0.45926  0.14822  1.0000
  H   H3341     1.0  0.58340  0.42988  0.16446  1.0000
  C   C4171     1.0  0.70567  0.39983  0.29640  1.0000
  H   H3342     1.0  0.59158  0.40447  0.36636  1.0000
  H   H3343     1.0  0.57601  0.41391  0.41285  1.0000
  H   H3344     1.0  0.56059  0.42143  0.23325  1.0000
  H   H3345     1.0  0.56428  0.42178  0.19876  1.0000
  C   C4172     1.0  0.54285  0.55889  0.05274  1.0000
  C   C4173     1.0  0.51115  0.39318  0.12982  1.0000
  H   H3346     1.0  0.50853  0.54702  0.04748  1.0000
  C   C4174     1.0  0.66384  0.41637  0.40225  1.0000
  C   C4175     1.0  0.67406  0.42450  0.38468  1.0000
  C   C4176     1.0  0.68795  0.43542  0.38418  1.0000
  C   C4177     1.0  0.69138  0.43890  0.40116  1.0000
  C   C4178     1.0  0.68092  0.43140  0.41866  1.0000
  C   C4179     1.0  0.66733  0.42009  0.41923  1.0000
  H   H3347     1.0  0.69622  0.44097  0.37060  1.0000
  H   H3348     1.0  0.70222  0.44728  0.40081  1.0000
  H   H3349     1.0  0.66206  0.48993  0.19813  1.0000
  H   H3350     1.0  0.68359  0.43405  0.43189  1.0000
  C   C4180     1.0  0.60680  0.39558  0.14524  1.0000
  C   C4181     1.0  0.58921  0.41845  0.40477  1.0000
  H   H3351     1.0  0.93102  0.42945  0.44037  1.0000
  P   P142      1.0  0.54895  0.54883  0.03104  1.0000
  C   C4182     1.0  0.54838  0.40425  0.05796  1.0000
  H   H3352     1.0  0.54127  0.56685  0.24864  1.0000
  C   C4183     1.0  0.72397  0.53486  0.08665  1.0000
  C   C4184     1.0  0.62625  0.39457  0.13688  1.0000
  C   C4185     1.0  0.64884  0.54400  0.12433  1.0000
  C   C4186     1.0  0.66715  0.53949  0.12943  1.0000
  C   C4187     1.0  0.53155  0.49872  0.03072  1.0000
  P   P143      1.0  0.68159  0.51583  0.12949  1.0000
  C   C4188     1.0  0.68559  0.50730  0.15382  1.0000
  C   C4189     1.0  0.67050  0.49966  0.12140  1.0000
  C   C4190     1.0  0.66871  0.48130  0.13207  1.0000
  C   C4191     1.0  0.65976  0.46923  0.12569  1.0000
  C   C4192     1.0  0.65288  0.47516  0.10847  1.0000
  C   C4193     1.0  0.65550  0.49295  0.09729  1.0000
  C   C4194     1.0  0.66449  0.50505  0.10360  1.0000
  C   C4195     1.0  0.70292  0.50844  0.15892  1.0000
  C   C4196     1.0  0.70555  0.50265  0.17795  1.0000
  C   C4197     1.0  0.69088  0.49586  0.19204  1.0000
  C   C4198     1.0  0.67350  0.49497  0.18713  1.0000
  C   C4199     1.0  0.67078  0.50082  0.16815  1.0000
  C   C4200     1.0  0.70397  0.51731  0.11295  1.0000
  C   C4201     1.0  0.70661  0.53410  0.09958  1.0000
  H   H3353     1.0  0.50972  0.52615  0.43741  1.0000
  C   C4202     1.0  0.73868  0.51883  0.08684  1.0000
  C   C4203     1.0  0.73601  0.50198  0.09989  1.0000
  C   C4204     1.0  0.71868  0.50118  0.11285  1.0000
  H   H3354     1.0  0.96610  0.38290  0.42380  1.0000
  C   C4205     1.0  0.55773  0.52351  0.42664  1.0000
  H   H3355     1.0  0.52952  0.54556  0.10099  1.0000
  H   H3356     1.0  0.64292  0.53363  0.11984  1.0000
  C   C4206     1.0  0.97168  0.39570  0.42351  1.0000
  H   H3357     1.0  0.67412  0.47608  0.14530  1.0000
  H   H3358     1.0  0.65780  0.45535  0.13429  1.0000
  H   H3359     1.0  0.64543  0.46599  0.10388  1.0000
  H   H3360     1.0  0.65021  0.49759  0.08388  1.0000
  H   H3361     1.0  0.66631  0.51883  0.09474  1.0000
  H   H3362     1.0  0.71432  0.51403  0.14833  1.0000
  H   H3363     1.0  0.71893  0.50356  0.18183  1.0000
  H   H3364     1.0  0.69287  0.49140  0.20679  1.0000
  C   C4207     1.0  0.58433  0.52802  0.23223  1.0000
  C   C4208     1.0  0.65087  0.54287  0.18764  1.0000
  C   C4209     1.0  0.58841  0.43426  0.38993  1.0000
  H   H3365     1.0  0.56732  0.39086  0.25552  1.0000
  H   H3366     1.0  0.58086  0.52272  0.19394  1.0000
  H   H3367     1.0  0.59596  0.40154  0.13635  1.0000
  C   C4210     1.0  0.63484  0.52859  0.21851  1.0000
  H   H3368     1.0  0.60930  0.40071  0.08412  1.0000
  C   C4211     1.0  0.60148  0.51907  0.04209  1.0000
  H   H3369     1.0  0.62634  0.42376  0.09089  1.0000
  C   C4212     1.0  0.90639  0.40360  0.31130  1.0000
  H   H3370     1.0  0.89537  0.44320  0.39789  1.0000
  C   C4213     1.0  0.54611  0.39727  0.10471  1.0000
  H   H3371     1.0  0.85346  0.44243  0.39562  1.0000
  S   S557      1.0  0.73266  0.40218  0.37154  1.0000
  C   C4214     1.0  0.72923  0.45066  0.43875  1.0000
  C   C4215     1.0  0.58196  0.52727  0.04408  1.0000
  H   H3372     1.0  0.82223  0.41248  0.37371  1.0000
  C   C4216     1.0  0.63751  0.56202  0.12564  1.0000
  C   C4217     1.0  0.86166  0.41272  0.39262  1.0000
  H   H3373     1.0  0.88858  0.47122  0.46680  1.0000
  H   H3374     1.0  0.54130  0.44340  0.41938  1.0000
  C   C4218     1.0  0.54033  0.50211  0.46015  1.0000
  H   H3375     1.0  0.59487  0.55191  0.21193  1.0000
  H   H3376     1.0  0.85155  0.40292  0.35088  1.0000
  C   C4219     1.0  0.71555  0.39875  0.44575  1.0000
  H   H3377     1.0  0.75210  0.51941  0.07678  1.0000
  C   C4220     1.0  0.68453  0.38886  0.45703  1.0000
  C   C4221     1.0  0.96700  0.57637  0.05739  1.0000
  C   C4222     1.0  0.89168  0.38884  0.34913  1.0000
  H   H3378     1.0  0.71883  0.44256  0.46875  1.0000
  H   H3379     1.0  0.72900  0.55480  0.00441  1.0000
  C   C4223     1.0  0.84375  0.39197  0.35956  1.0000
  C   C4224     1.0  0.71964  0.38761  0.43140  1.0000
  H   H3380     1.0  0.65128  0.56180  0.04788  1.0000
  C   C4225     1.0  0.65699  0.38785  0.38291  1.0000
  H   H3381     1.0  0.95333  0.57148  0.06085  1.0000
  C   C4226     1.0  0.60790  0.40861  0.33784  1.0000
  C   C4227     1.0  0.55316  0.55602  0.24398  1.0000
  S   S558      1.0  0.61691  0.39815  0.23361  1.0000
  C   C4228     1.0  0.71676  0.38860  0.30985  1.0000
  C   C4229     1.0  0.49438  0.54765  0.36893  1.0000
  C   C4230     1.0  0.57887  0.47753  0.18984  1.0000
  Fe  Fe274     1.0  0.61347  0.39314  0.26561  1.0000
  C   C4231     1.0  0.61694  0.40019  0.32192  1.0000
  C   C4232     1.0  0.54454  0.56724  0.01046  1.0000
  C   C4233     1.0  0.66256  0.57147  0.13690  1.0000
  H   H3382     1.0  0.80652  0.38683  0.43001  1.0000
  C   C4234     1.0  0.49455  0.48010  0.45140  1.0000
  H   H3383     1.0  0.86696  0.38652  0.44761  1.0000
  H   H3384     1.0  0.62324  0.56512  0.12215  1.0000
  H   H3385     1.0  0.54446  0.52370  0.47434  1.0000
  C   C4235     1.0  0.56889  0.39086  0.24038  1.0000
  C   C4236     1.0  0.67396  0.55342  0.13564  1.0000
  H   H3386     1.0  0.50381  0.51938  0.33522  1.0000
  C   C4237     1.0  0.64471  0.38411  0.37217  1.0000
  H   H3387     1.0  0.68794  0.55023  0.13986  1.0000
  C   C4238     1.0  0.60145  0.38914  0.16498  1.0000
  H   H3388     1.0  0.67955  0.56880  0.06721  1.0000
  Fe  Fe275     1.0  0.74441  0.38747  0.34610  1.0000
  H   H3389     1.0  0.51866  0.55870  0.00713  1.0000
  H   H3390     1.0  0.57618  0.57959  0.12702  1.0000
  C   C4239     1.0  0.89341  0.39089  0.31515  1.0000
  H   H3391     1.0  0.58385  0.57219  0.03843  1.0000
  C   C4240     1.0  0.98916  0.39420  0.42942  1.0000
  H   H3392     1.0  0.83416  0.38449  0.32542  1.0000
  C   C4241     1.0  0.64427  0.57571  0.13200  1.0000
  C   C4242     1.0  0.61179  0.57963  0.02690  1.0000
  H   H3393     1.0  0.74373  0.57724  0.01538  1.0000
  H   H3394     1.0  0.61384  0.57339  0.16878  1.0000
  S   S559      1.0  0.49120  0.42521  0.04046  1.0000
  H   H3395     1.0  0.56946  0.57976  0.00941  1.0000
  C   C4243     1.0  0.53459  0.57377  0.08678  1.0000
  H   H3396     1.0  0.90739  0.38374  0.44519  1.0000
  H   H3397     1.0  0.86802  0.38237  0.39405  1.0000
  C   C4244     1.0  0.64048  0.38722  0.14812  1.0000
  C   C4245     1.0  0.95788  0.57963  0.00186  1.0000
  C   C4246     1.0  0.55709  0.58048  0.00300  1.0000
  H   H3398     1.0  0.61889  0.57780  0.29152  1.0000
  C   C4247     1.0  0.54383  0.57810  0.05227  1.0000
  H   H3399     1.0  0.98749  0.49762  0.42813  1.0000
  H   H3400     1.0  0.88673  0.38262  0.36381  1.0000
  Fe  Fe276     1.0  0.98659  0.39372  0.35306  1.0000
  C   C4248     1.0  0.98577  0.42880  0.42292  1.0000
  H   H3401     1.0  0.53170  0.57939  0.09995  1.0000
  C   C4249     1.0  0.61586  0.38180  0.17613  1.0000
  H   H3402     1.0  0.82142  0.38198  0.29755  1.0000
  Fe  Fe277     1.0  0.62038  0.41612  0.50053  1.0000
  S   S560      1.0  0.60899  0.44588  0.50605  1.0000
  S   S561      1.0  0.60133  0.39381  0.50611  1.0000
  Fe  Fe278     1.0  0.63612  0.44363  0.51703  1.0000
  S   S562      1.0  0.63438  0.45739  0.54231  1.0000
  S   S563      1.0  0.64615  0.41271  0.51449  1.0000
  H   H3403     1.0  0.76049  0.55113  0.74605  1.0000
  C   C4250     1.0  0.85149  0.39734  0.57752  1.0000
  S   S564      1.0  0.69762  0.43035  0.59481  1.0000
  C   C4251     1.0  0.49950  0.54300  0.88184  1.0000
  H   H3404     1.0  0.71771  0.38294  0.49076  1.0000
  H   H3405     1.0  0.84841  0.42814  0.53185  1.0000
  S   S565      1.0  0.51113  0.42278  0.52137  1.0000
  C   C4252     1.0  0.93748  0.55222  0.71997  1.0000
  Fe  Fe279     1.0  0.71304  0.39976  0.60026  1.0000
  H   H3406     1.0  0.86325  0.48363  0.69898  1.0000
  H   H3407     1.0  0.83165  0.44145  0.77101  1.0000
  H   H3408     1.0  0.80283  0.54942  0.81141  1.0000
  H   H3409     1.0  0.95761  0.38573  0.83632  1.0000
  Fe  Fe280     1.0  0.82059  0.45400  0.72519  1.0000
  S   S566      1.0  0.84256  0.42758  0.73043  1.0000
  S   S567      1.0  0.82462  0.48036  0.73509  1.0000
  Fe  Fe281     1.0  0.80376  0.43632  0.69819  1.0000
  S   S568      1.0  0.82514  0.40906  0.70181  1.0000
  S   S569      1.0  0.78210  0.44090  0.67826  1.0000
  Fe  Fe282     1.0  0.81867  0.41158  0.73285  1.0000
  Fe  Fe283     1.0  0.84650  0.42832  0.69892  1.0000
  S   S570      1.0  0.87654  0.42376  0.68210  1.0000
  S   S571      1.0  0.79591  0.43801  0.72963  1.0000
  S   S572      1.0  0.82572  0.45552  0.69325  1.0000
  Fe  Fe284     1.0  0.88345  0.52933  0.56943  1.0000
  S   S573      1.0  0.91222  0.52360  0.57889  1.0000
  S   S574      1.0  0.88330  0.51405  0.54483  1.0000
  Fe  Fe285     1.0  0.86595  0.55444  0.59973  1.0000
  S   S575      1.0  0.89301  0.54983  0.61176  1.0000
  H   H3410     1.0  0.74156  0.51856  0.51945  1.0000
  Fe  Fe286     1.0  0.90780  0.55465  0.58120  1.0000
  S   S576      1.0  0.81926  0.48885  0.51122  1.0000
  Fe  Fe287     1.0  0.89544  0.51916  0.60876  1.0000
  S   S577      1.0  0.91006  0.49470  0.62861  1.0000
  S   S578      1.0  0.88050  0.56106  0.56895  1.0000
  S   S579      1.0  0.86692  0.52313  0.59949  1.0000
  Fe  Fe288     1.0  0.85498  0.51721  0.81625  1.0000
  S   S580      1.0  0.88504  0.50703  0.80240  1.0000
  S   S581      1.0  0.82929  0.50717  0.81053  1.0000
  Fe  Fe289     1.0  0.86873  0.54025  0.84087  1.0000
  S   S582      1.0  0.89996  0.53099  0.82869  1.0000
  S   S583      1.0  0.85581  0.56183  0.86090  1.0000
  Fe  Fe290     1.0  0.88951  0.53711  0.80056  1.0000
  S   S584      1.0  0.90343  0.55266  0.77233  1.0000
  Fe  Fe291     1.0  0.89227  0.50180  0.83179  1.0000
  S   S585      1.0  0.90460  0.47153  0.84452  1.0000
  S   S586      1.0  0.85883  0.54776  0.81243  1.0000
  S   S587      1.0  0.86170  0.51068  0.84597  1.0000
  C   C4253     1.0  0.74237  0.48546  0.49222  1.0000
  H   H3411     1.0  0.50066  0.53652  0.72316  1.0000
  H   H3412     1.0  0.72017  0.50016  0.51197  1.0000
  C   C4254     1.0  0.95681  0.53663  0.62443  1.0000
  C   C4255     1.0  0.65637  0.38230  0.61135  1.0000
  H   H3413     1.0  0.90635  0.38656  0.59747  1.0000
  C   C4256     1.0  0.92227  0.52149  0.71552  1.0000
  H   H3414     1.0  0.89278  0.39478  0.54456  1.0000
  C   C4257     1.0  0.80514  0.56887  0.87393  1.0000
  C   C4258     1.0  0.77397  0.49407  0.48804  1.0000
  H   H3415     1.0  0.66990  0.39606  0.54478  1.0000
  H   H3416     1.0  0.85854  0.55513  0.64193  1.0000
  C   C4259     1.0  0.84927  0.56793  0.64600  1.0000
  C   C4260     1.0  0.82825  0.48228  0.75789  1.0000
  C   C4261     1.0  0.84482  0.48869  0.75931  1.0000
  C   C4262     1.0  0.84593  0.49523  0.77586  1.0000
  C   C4263     1.0  0.83038  0.49553  0.79112  1.0000
  C   C4264     1.0  0.81439  0.48786  0.79023  1.0000
  C   C4265     1.0  0.81323  0.48145  0.77366  1.0000
  H   H3417     1.0  0.85639  0.48964  0.74710  1.0000
  H   H3418     1.0  0.85835  0.50103  0.77638  1.0000
  H   H3419     1.0  0.80237  0.48780  0.80203  1.0000
  H   H3420     1.0  0.80019  0.47703  0.77264  1.0000
  C   C4266     1.0  0.88480  0.44402  0.66707  1.0000
  C   C4267     1.0  0.90465  0.44373  0.66248  1.0000
  C   C4268     1.0  0.91201  0.45929  0.65042  1.0000
  C   C4269     1.0  0.89966  0.47523  0.64252  1.0000
  C   C4270     1.0  0.87977  0.47541  0.64654  1.0000
  C   C4271     1.0  0.87233  0.45979  0.65890  1.0000
  H   H3421     1.0  0.91439  0.43151  0.66846  1.0000
  H   H3422     1.0  0.92738  0.45905  0.64730  1.0000
  H   H3423     1.0  0.87016  0.48765  0.64039  1.0000
  H   H3424     1.0  0.85704  0.45987  0.66180  1.0000
  C   C4272     1.0  0.96725  0.44605  0.85021  1.0000
  C   C4273     1.0  0.95253  0.43549  0.85823  1.0000
  C   C4274     1.0  0.93341  0.44379  0.85669  1.0000
  C   C4275     1.0  0.92881  0.46255  0.84685  1.0000
  C   C4276     1.0  0.94352  0.47315  0.83865  1.0000
  C   C4277     1.0  0.96271  0.46491  0.84041  1.0000
  H   H3425     1.0  0.95584  0.42100  0.86585  1.0000
  H   H3426     1.0  0.92206  0.43572  0.86332  1.0000
  H   H3427     1.0  0.86058  0.38550  0.55168  1.0000
  S   S588      1.0  0.80605  0.44281  0.50291  1.0000
  Fe  Fe292     1.0  0.49425  0.40061  0.54006  1.0000
  H   H3428     1.0  0.94011  0.48762  0.83101  1.0000
  C   C4278     1.0  0.78387  0.38798  0.55008  1.0000
  H   H3429     1.0  0.85215  0.38339  0.73814  1.0000
  H   H3430     1.0  0.59018  0.40339  0.61615  1.0000
  H   H3431     1.0  0.90465  0.56559  0.64404  1.0000
  C   C4279     1.0  0.76195  0.48348  0.48372  1.0000
  C   C4280     1.0  0.89452  0.56642  0.89257  1.0000
  C   C4281     1.0  0.88579  0.56003  0.88010  1.0000
  C   C4282     1.0  0.74719  0.50886  0.50937  1.0000
  H   H3432     1.0  0.74048  0.41434  0.69847  1.0000
  C   C4283     1.0  0.76664  0.50668  0.50091  1.0000
  H   H3433     1.0  0.89299  0.54768  0.87367  1.0000
  C   C4284     1.0  0.83718  0.49542  0.52081  1.0000
  C   C4285     1.0  0.85685  0.49031  0.51384  1.0000
  C   C4286     1.0  0.87063  0.49615  0.52141  1.0000
  C   C4287     1.0  0.86503  0.50710  0.53611  1.0000
  C   C4288     1.0  0.84535  0.51206  0.54324  1.0000
  C   C4289     1.0  0.83153  0.50636  0.53553  1.0000
  H   H3434     1.0  0.86146  0.48205  0.50245  1.0000
  H   H3435     1.0  0.88576  0.49227  0.51571  1.0000
  H   H3436     1.0  0.84077  0.52049  0.55450  1.0000
  H   H3437     1.0  0.91629  0.50949  0.71421  1.0000
  H   H3438     1.0  0.59039  0.50065  0.48819  1.0000
  C   C4290     1.0  0.51641  0.55065  0.87544  1.0000
  C   C4291     1.0  0.78622  0.40316  0.67330  1.0000
  C   C4292     1.0  0.77665  0.42210  0.66933  1.0000
  C   C4293     1.0  0.76201  0.42620  0.65832  1.0000
  C   C4294     1.0  0.75695  0.41161  0.65136  1.0000
  H   H3439     1.0  0.79817  0.44256  0.76848  1.0000
  H   H3440     1.0  0.75436  0.44074  0.65529  1.0000
  H   H3441     1.0  0.74562  0.41499  0.64295  1.0000
  C   C4295     1.0  0.92271  0.53774  0.70096  1.0000
  H   H3442     1.0  0.49553  0.47440  0.90224  1.0000
  H   H3443     1.0  0.57797  0.43221  0.50074  1.0000
  C   C4296     1.0  0.80835  0.56260  0.80916  1.0000
  H   H3444     1.0  0.97561  0.55728  0.54152  1.0000
  H   H3445     1.0  0.90843  0.55889  0.89565  1.0000
  C   C4297     1.0  0.81570  0.54271  0.69926  1.0000
  H   H3446     1.0  0.93060  0.56592  0.69247  1.0000
  C   C4298     1.0  0.57626  0.40224  0.50919  1.0000
  C   C4299     1.0  0.66254  0.49580  0.50291  1.0000
  C   C4300     1.0  0.53452  0.52109  0.88996  1.0000
  C   C4301     1.0  0.53610  0.41471  0.51623  1.0000
  C   C4302     1.0  0.54855  0.42801  0.50950  1.0000
  C   C4303     1.0  0.56859  0.42181  0.50604  1.0000
  P   P144      1.0  0.72710  0.47070  0.48768  1.0000
  C   C4304     1.0  0.56373  0.38898  0.51528  1.0000
  C   C4305     1.0  0.65368  0.45060  0.55487  1.0000
  C   C4306     1.0  0.66851  0.43514  0.55139  1.0000
  C   C4307     1.0  0.68235  0.42869  0.56344  1.0000
  C   C4308     1.0  0.68175  0.43831  0.57837  1.0000
  C   C4309     1.0  0.66755  0.45441  0.58101  1.0000
  C   C4310     1.0  0.65345  0.46037  0.56948  1.0000
  H   H3447     1.0  0.66903  0.42805  0.53966  1.0000
  H   H3448     1.0  0.66708  0.46193  0.59246  1.0000
  H   H3449     1.0  0.64218  0.47248  0.57208  1.0000
  C   C4311     1.0  0.92168  0.56880  0.83293  1.0000
  H   H3450     1.0  0.87132  0.54070  0.69770  1.0000
  C   C4312     1.0  0.58336  0.49440  0.50219  1.0000
  C   C4313     1.0  0.49200  0.46125  0.93189  1.0000
  H   H3451     1.0  0.93610  0.52511  0.61502  1.0000
  P   P145      1.0  0.85741  0.41586  0.79524  1.0000
  H   H3452     1.0  0.83736  0.39340  0.58047  1.0000
  C   C4314     1.0  0.81731  0.38530  0.53361  1.0000
  P   P146      1.0  0.94100  0.40764  0.80301  1.0000
  C   C4315     1.0  0.88249  0.40556  0.76222  1.0000
  C   C4316     1.0  0.85674  0.43515  0.80751  1.0000
  C   C4317     1.0  0.87373  0.44185  0.80671  1.0000
  C   C4318     1.0  0.87366  0.45614  0.81683  1.0000
  C   C4319     1.0  0.85657  0.46397  0.82770  1.0000
  C   C4320     1.0  0.83950  0.45757  0.82840  1.0000
  C   C4321     1.0  0.83954  0.44314  0.81841  1.0000
  C   C4322     1.0  0.70198  0.48119  0.49362  1.0000
  C   C4323     1.0  0.51761  0.51337  0.89636  1.0000
  H   H3453     1.0  0.97407  0.47314  0.83416  1.0000
  C   C4324     1.0  0.75562  0.53861  0.77591  1.0000
  H   H3454     1.0  0.91854  0.49945  0.67504  1.0000
  C   C4325     1.0  0.83315  0.41572  0.79264  1.0000
  C   C4326     1.0  0.82408  0.43042  0.77985  1.0000
  C   C4327     1.0  0.80497  0.43115  0.77843  1.0000
  C   C4328     1.0  0.79480  0.41708  0.78959  1.0000
  C   C4329     1.0  0.94300  0.39239  0.84131  1.0000
  C   C4330     1.0  0.82266  0.40189  0.80420  1.0000
  C   C4331     1.0  0.97971  0.39469  0.78782  1.0000
  S   S589      1.0  0.50251  0.38416  0.56778  1.0000
  H   H3455     1.0  0.86263  0.45130  0.76829  1.0000
  C   C4332     1.0  0.90757  0.39536  0.64778  1.0000
  H   H3456     1.0  0.88685  0.46117  0.81637  1.0000
  H   H3457     1.0  0.85654  0.47518  0.83538  1.0000
  H   H3458     1.0  0.82619  0.46411  0.83642  1.0000
  H   H3459     1.0  0.82617  0.43836  0.81921  1.0000
  C   C4333     1.0  0.84751  0.57162  0.66449  1.0000
  C   C4334     1.0  0.88013  0.44335  0.74247  1.0000
  C   C4335     1.0  0.79372  0.52314  0.72025  1.0000
  H   H3460     1.0  0.95146  0.54871  0.66799  1.0000
  C   C4336     1.0  0.89179  0.48959  0.68679  1.0000
  H   H3461     1.0  0.77618  0.51451  0.50450  1.0000
  C   C4337     1.0  0.93928  0.38918  0.77341  1.0000
  H   H3462     1.0  0.78020  0.41734  0.78801  1.0000
  C   C4338     1.0  0.80904  0.57688  0.88819  1.0000
  C   C4339     1.0  0.65447  0.40069  0.60050  1.0000
  C   C4340     1.0  0.59467  0.58158  0.91359  1.0000
  S   S590      1.0  0.81222  0.38697  0.75670  1.0000
  C   C4341     1.0  0.89177  0.40946  0.74318  1.0000
  C   C4342     1.0  0.54531  0.39818  0.61364  1.0000
  H   H3463     1.0  0.87511  0.40603  0.83009  1.0000
  H   H3464     1.0  0.82768  0.53488  0.67165  1.0000
  H   H3465     1.0  0.66538  0.40921  0.59924  1.0000
  H   H3466     1.0  0.85561  0.56172  0.67444  1.0000
  C   C4343     1.0  0.90646  0.38925  0.61146  1.0000
  H   H3467     1.0  0.98530  0.55837  0.96094  1.0000
  H   H3468     1.0  0.53410  0.38486  0.52349  1.0000
  H   H3469     1.0  0.55235  0.46357  0.52287  1.0000
  C   C4344     1.0  0.86458  0.39290  0.56126  1.0000
  H   H3470     1.0  0.52487  0.46105  0.48330  1.0000
  C   C4345     1.0  0.90514  0.40875  0.85485  1.0000
  C   C4346     1.0  0.93959  0.52995  0.62674  1.0000
  C   C4347     1.0  0.94805  0.54312  0.65678  1.0000
  C   C4348     1.0  0.78096  0.38855  0.66660  1.0000
  H   H3471     1.0  0.88705  0.43577  0.79849  1.0000
  C   C4349     1.0  0.80364  0.40247  0.80248  1.0000
  C   C4350     1.0  0.56017  0.40679  0.61552  1.0000
  H   H3472     1.0  0.92496  0.57483  0.61084  1.0000
  H   H3473     1.0  0.75769  0.54198  0.85802  1.0000
  C   C4351     1.0  0.87184  0.42057  0.77157  1.0000
  H   H3474     1.0  0.79864  0.41201  0.53809  1.0000
  Fe  Fe293     1.0  0.66069  0.42462  0.48511  1.0000
  C   C4352     1.0  0.73509  0.49832  0.50506  1.0000
  C   C4353     1.0  0.49649  0.50901  0.57106  1.0000
  C   C4354     1.0  0.79064  0.57846  0.86343  1.0000
  H   H3475     1.0  0.89693  0.43123  0.71824  1.0000
  H   H3476     1.0  0.92055  0.42414  0.76963  1.0000
  H   H3477     1.0  0.54271  0.44312  0.50717  1.0000
  C   C4355     1.0  0.82084  0.56780  0.79209  1.0000
  C   C4356     1.0  0.51164  0.46641  0.47774  1.0000
  H   H3478     1.0  0.49582  0.50541  0.74407  1.0000
  C   C4357     1.0  0.97744  0.57067  0.53186  1.0000
  H   H3479     1.0  0.85038  0.51626  0.70574  1.0000
  C   C4358     1.0  0.80334  0.53875  0.71681  1.0000
  C   C4359     1.0  0.87096  0.43950  0.76155  1.0000
  H   H3480     1.0  0.79022  0.52310  0.80356  1.0000
  C   C4360     1.0  0.91281  0.41249  0.83533  1.0000
  C   C4361     1.0  0.93043  0.55309  0.70332  1.0000
  C   C4362     1.0  0.93180  0.40437  0.82842  1.0000
  C   C4363     1.0  0.74327  0.39471  0.48716  1.0000
  H   H3481     1.0  0.76192  0.42052  0.71786  1.0000
  S   S591      1.0  0.70822  0.38322  0.63034  1.0000
  H   H3482     1.0  0.91369  0.56985  0.80579  1.0000
  C   C4364     1.0  0.87485  0.39298  0.82542  1.0000
  C   C4365     1.0  0.87255  0.49429  0.69529  1.0000
  C   C4366     1.0  0.80867  0.51119  0.85591  1.0000
  H   H3483     1.0  0.54105  0.49930  0.58274  1.0000
  H   H3484     1.0  0.81063  0.53379  0.77307  1.0000
  H   H3485     1.0  0.87860  0.45794  0.73464  1.0000
  C   C4367     1.0  0.76126  0.39237  0.49232  1.0000
  H   H3486     1.0  0.81559  0.39617  0.63679  1.0000
  C   C4368     1.0  0.90368  0.50343  0.68168  1.0000
  C   C4369     1.0  0.96678  0.40663  0.79953  1.0000
  H   H3487     1.0  0.96664  0.53708  0.61085  1.0000
  C   C4370     1.0  0.77034  0.39067  0.72949  1.0000
  H   H3488     1.0  0.64310  0.57334  0.82735  1.0000
  H   H3489     1.0  0.91062  0.39413  0.88278  1.0000
  C   C4371     1.0  0.76201  0.57877  0.83984  1.0000
  S   S592      1.0  0.93205  0.57230  0.56999  1.0000
  Fe  Fe294     1.0  0.82521  0.46515  0.49335  1.0000
  S   S593      1.0  0.65218  0.45540  0.48856  1.0000
  H   H3490     1.0  0.76147  0.50703  0.86722  1.0000
  H   H3491     1.0  0.90397  0.42182  0.82569  1.0000
  H   H3492     1.0  0.90306  0.57517  0.73476  1.0000
  C   C4372     1.0  0.93058  0.53660  0.65916  1.0000
  C   C4373     1.0  0.81806  0.53165  0.68515  1.0000
  C   C4374     1.0  0.93537  0.38893  0.79325  1.0000
  C   C4375     1.0  0.67174  0.49777  0.48379  1.0000
  C   C4376     1.0  0.76394  0.53081  0.79216  1.0000
  H   H3493     1.0  0.81056  0.50732  0.67789  1.0000
  S   S594      1.0  0.74526  0.39425  0.59730  1.0000
  C   C4377     1.0  0.80836  0.51622  0.68863  1.0000
  C   C4378     1.0  0.69140  0.49053  0.47913  1.0000
  C   C4379     1.0  0.78373  0.52928  0.79100  1.0000
  C   C4380     1.0  0.62457  0.39678  0.59324  1.0000
  C   C4381     1.0  0.69264  0.47951  0.51283  1.0000
  H   H3494     1.0  0.90207  0.41146  0.56645  1.0000
  H   H3495     1.0  0.88917  0.56641  0.70472  1.0000
  H   H3496     1.0  0.90788  0.39782  0.66188  1.0000
  H   H3497     1.0  0.97426  0.54871  0.63751  1.0000
  C   C4382     1.0  0.87716  0.52662  0.69420  1.0000
  H   H3498     1.0  0.51802  0.47217  0.54759  1.0000
  C   C4383     1.0  0.89046  0.42832  0.73325  1.0000
  H   H3499     1.0  0.64721  0.50092  0.50651  1.0000
  C   C4384     1.0  0.83128  0.56907  0.74005  1.0000
  H   H3500     1.0  0.92844  0.50842  0.74362  1.0000
  C   C4385     1.0  0.88271  0.39817  0.55725  1.0000
  H   H3501     1.0  0.94621  0.40027  0.76370  1.0000
  H   H3502     1.0  0.66581  0.48510  0.53221  1.0000
  H   H3503     1.0  0.76174  0.44727  0.50158  1.0000
  C   C4386     1.0  0.96107  0.54317  0.63946  1.0000
  C   C4387     1.0  0.78610  0.49860  0.60122  1.0000
  C   C4388     1.0  0.77949  0.49401  0.62089  1.0000
  C   C4389     1.0  0.77721  0.47522  0.62925  1.0000
  C   C4390     1.0  0.78190  0.46094  0.61802  1.0000
  C   C4391     1.0  0.78947  0.46522  0.59844  1.0000
  C   C4392     1.0  0.79079  0.48432  0.58997  1.0000
  P   P147      1.0  0.79617  0.44690  0.58374  1.0000
  C   C4393     1.0  0.79848  0.42285  0.59737  1.0000
  C   C4394     1.0  0.77754  0.45091  0.56968  1.0000
  C   C4395     1.0  0.75953  0.44593  0.57836  1.0000
  C   C4396     1.0  0.74491  0.44906  0.56765  1.0000
  C   C4397     1.0  0.74808  0.45737  0.54831  1.0000
  C   C4398     1.0  0.76592  0.46253  0.53964  1.0000
  C   C4399     1.0  0.78058  0.45949  0.55029  1.0000
  C   C4400     1.0  0.79282  0.40828  0.59109  1.0000
  H   H3504     1.0  0.63772  0.42186  0.58216  1.0000
  H   H3505     1.0  0.82372  0.55425  0.69661  1.0000
  C   C4401     1.0  0.80940  0.39950  0.62392  1.0000
  C   C4402     1.0  0.80721  0.41821  0.61359  1.0000
  C   C4403     1.0  0.81941  0.44794  0.56868  1.0000
  C   C4404     1.0  0.83152  0.45963  0.57110  1.0000
  C   C4405     1.0  0.84920  0.46058  0.55887  1.0000
  C   C4406     1.0  0.85524  0.44936  0.54460  1.0000
  C   C4407     1.0  0.84363  0.43711  0.54264  1.0000
  C   C4408     1.0  0.82575  0.43642  0.55457  1.0000
  H   H3506     1.0  0.78762  0.51322  0.59466  1.0000
  H   H3507     1.0  0.77594  0.50504  0.62962  1.0000
  H   H3508     1.0  0.77181  0.47166  0.64447  1.0000
  H   H3509     1.0  0.77952  0.44665  0.62471  1.0000
  H   H3510     1.0  0.79575  0.48813  0.57470  1.0000
  H   H3511     1.0  0.75679  0.43953  0.59338  1.0000
  H   H3512     1.0  0.73110  0.44504  0.57437  1.0000
  H   H3513     1.0  0.73670  0.45977  0.54008  1.0000
  H   H3514     1.0  0.76848  0.46888  0.52464  1.0000
  H   H3515     1.0  0.79416  0.46394  0.54331  1.0000
  H   H3516     1.0  0.78665  0.41128  0.57825  1.0000
  C   C4409     1.0  0.74968  0.44000  0.50769  1.0000
  C   C4410     1.0  0.54371  0.39516  0.51882  1.0000
  H   H3517     1.0  0.74030  0.53969  0.77674  1.0000
  H   H3518     1.0  0.81230  0.42907  0.61826  1.0000
  H   H3519     1.0  0.82743  0.46822  0.58218  1.0000
  H   H3520     1.0  0.85803  0.47037  0.56021  1.0000
  H   H3521     1.0  0.86881  0.45034  0.53491  1.0000
  H   H3522     1.0  0.81689  0.42693  0.55273  1.0000
  C   C4411     1.0  0.85015  0.56845  0.74229  1.0000
  C   C4412     1.0  0.92648  0.53006  0.64396  1.0000
  H   H3523     1.0  0.82286  0.50240  0.85499  1.0000
  C   C4413     1.0  0.78903  0.57729  0.72827  1.0000
  H   H3524     1.0  0.54812  0.51263  0.89311  1.0000
  C   C4414     1.0  0.76010  0.40596  0.71841  1.0000
  C   C4415     1.0  0.79506  0.38957  0.60141  1.0000
  C   C4416     1.0  0.89638  0.52219  0.68506  1.0000
  C   C4417     1.0  0.85746  0.53461  0.74119  1.0000
  C   C4418     1.0  0.63877  0.40783  0.59114  1.0000
  H   H3525     1.0  0.59556  0.45837  0.56125  1.0000
  H   H3526     1.0  0.82900  0.39066  0.81457  1.0000
  P   P148      1.0  0.91221  0.53959  0.68009  1.0000
  H   H3527     1.0  0.78926  0.49957  0.70909  1.0000
  H   H3528     1.0  0.61270  0.40240  0.58557  1.0000
  H   H3529     1.0  0.59783  0.57447  0.92755  1.0000
  S   S595      1.0  0.98041  0.38622  0.88800  1.0000
  C   C4419     1.0  0.49407  0.46631  0.49041  1.0000
  C   C4420     1.0  0.91643  0.39687  0.86762  1.0000
  C   C4421     1.0  0.75256  0.42294  0.52076  1.0000
  C   C4422     1.0  0.73744  0.41290  0.52878  1.0000
  C   C4423     1.0  0.71952  0.41971  0.52323  1.0000
  C   C4424     1.0  0.77204  0.53371  0.85738  1.0000
  C   C4425     1.0  0.78836  0.54259  0.85137  1.0000
  S   S596      1.0  0.83798  0.39528  0.52200  1.0000
  H   H3530     1.0  0.76668  0.41744  0.52440  1.0000
  H   H3531     1.0  0.73978  0.39957  0.53884  1.0000
  H   H3532     1.0  0.70790  0.41177  0.52905  1.0000
  H   H3533     1.0  0.81638  0.51047  0.54101  1.0000
  H   H3534     1.0  0.89060  0.41543  0.86012  1.0000
  C   C4426     1.0  0.80671  0.53110  0.85055  1.0000
  H   H3535     1.0  0.49391  0.46074  0.50552  1.0000
  C   C4427     1.0  0.86773  0.56953  0.87611  1.0000
  H   H3536     1.0  0.58162  0.49384  0.54930  1.0000
  Fe  Fe295     1.0  0.83354  0.42193  0.49963  1.0000
  H   H3537     1.0  0.69333  0.41625  0.56140  1.0000
  C   C4428     1.0  0.76710  0.54496  0.75853  1.0000
  P   P149      1.0  0.80123  0.55298  0.73496  1.0000
  H   H3538     1.0  0.70259  0.44165  0.50590  1.0000
  H   H3539     1.0  0.78489  0.51903  0.73395  1.0000
  C   C4429     1.0  0.85651  0.40710  0.58977  1.0000
  H   H3540     1.0  0.84623  0.41029  0.60230  1.0000
  H   H3541     1.0  0.75513  0.52581  0.80563  1.0000
  H   H3542     1.0  0.81958  0.53748  0.84557  1.0000
  C   C4430     1.0  0.86528  0.51277  0.69904  1.0000
  H   H3543     1.0  0.79224  0.57660  0.69805  1.0000
  H   H3544     1.0  0.83428  0.52241  0.73728  1.0000
  C   C4431     1.0  0.71656  0.43678  0.51012  1.0000
  H   H3545     1.0  0.54443  0.39109  0.56363  1.0000
  H   H3546     1.0  0.94298  0.56427  0.72194  1.0000
  H   H3547     1.0  0.79739  0.39969  0.68185  1.0000
  C   C4432     1.0  0.67302  0.48679  0.51741  1.0000
  H   H3548     1.0  0.87778  0.55061  0.74495  1.0000
  H   H3549     1.0  0.86762  0.52126  0.74161  1.0000
  H   H3550     1.0  0.79406  0.48707  0.86578  1.0000
  C   C4433     1.0  0.80316  0.38522  0.61793  1.0000
  H   H3551     1.0  0.88340  0.39080  0.76927  1.0000
  H   H3552     1.0  0.59733  0.50812  0.51738  1.0000
  C   C4434     1.0  0.78704  0.54336  0.75723  1.0000
  S   S597      1.0  0.85293  0.44405  0.49125  1.0000
  H   H3553     1.0  0.77991  0.39343  0.73776  1.0000
  C   C4435     1.0  0.93081  0.43175  0.79250  1.0000
  C   C4436     1.0  0.92221  0.43550  0.77616  1.0000
  C   C4437     1.0  0.91478  0.45432  0.76834  1.0000
  C   C4438     1.0  0.91554  0.46953  0.77687  1.0000
  C   C4439     1.0  0.92368  0.46594  0.79329  1.0000
  C   C4440     1.0  0.93114  0.44720  0.80111  1.0000
  C   C4441     1.0  0.74795  0.40247  0.70750  1.0000
  C   C4442     1.0  0.83863  0.53528  0.73877  1.0000
  H   H3554     1.0  0.56812  0.47828  0.49092  1.0000
  H   H3555     1.0  0.54699  0.54575  0.87457  1.0000
  C   C4443     1.0  0.97418  0.41772  0.80886  1.0000
  H   H3556     1.0  0.82514  0.55847  0.78158  1.0000
  H   H3557     1.0  0.89742  0.47523  0.68395  1.0000
  H   H3558     1.0  0.90818  0.45712  0.75578  1.0000
  H   H3559     1.0  0.90951  0.48407  0.77101  1.0000
  H   H3560     1.0  0.92389  0.47763  0.80030  1.0000
  H   H3561     1.0  0.93674  0.44485  0.81419  1.0000
  C   C4444     1.0  0.86321  0.55118  0.74302  1.0000
  C   C4445     1.0  0.86731  0.39340  0.80903  1.0000
  C   C4446     1.0  0.82540  0.55249  0.73824  1.0000
  H   H3562     1.0  0.96482  0.42632  0.81873  1.0000
  C   C4447     1.0  0.53392  0.53973  0.87952  1.0000
  C   C4448     1.0  0.49895  0.49534  0.55948  1.0000
  C   C4449     1.0  0.79240  0.50252  0.86188  1.0000
  H   H3563     1.0  0.51585  0.56511  0.86733  1.0000
  H   H3564     1.0  0.94156  0.53577  0.74767  1.0000
  C   C4450     1.0  0.91979  0.57850  0.84803  1.0000
  H   H3565     1.0  0.70044  0.47226  0.52428  1.0000
  H   H3566     1.0  0.93003  0.55446  0.83340  1.0000
  C   C4451     1.0  0.89871  0.56354  0.67494  1.0000
  C   C4452     1.0  0.77408  0.51378  0.86261  1.0000
  H   H3567     1.0  0.92661  0.57163  0.86025  1.0000
  C   C4453     1.0  0.93674  0.53613  0.73447  1.0000
  C   C4454     1.0  0.83858  0.58046  0.63310  1.0000
  C   C4455     1.0  0.92921  0.52075  0.73222  1.0000
  H   H3568     1.0  0.57546  0.40152  0.54815  1.0000
  H   H3569     1.0  0.55698  0.42122  0.61850  1.0000
  H   H3570     1.0  0.91278  0.52576  0.64510  1.0000
  H   H3571     1.0  0.51844  0.49894  0.90443  1.0000
  H   H3572     1.0  0.77047  0.40291  0.48602  1.0000
  C   C4456     1.0  0.49993  0.52431  0.89235  1.0000
  C   C4457     1.0  0.57908  0.39669  0.61387  1.0000
  C   C4458     1.0  0.88781  0.40782  0.56957  1.0000
  C   C4459     1.0  0.87462  0.41261  0.58583  1.0000
  P   P150      1.0  0.88155  0.42399  0.60250  1.0000
  C   C4460     1.0  0.89582  0.40607  0.61768  1.0000
  C   C4461     1.0  0.89547  0.44249  0.59047  1.0000
  C   C4462     1.0  0.90558  0.44989  0.60081  1.0000
  C   C4463     1.0  0.91533  0.46507  0.59192  1.0000
  C   C4464     1.0  0.91480  0.47319  0.57277  1.0000
  C   C4465     1.0  0.90468  0.46604  0.56242  1.0000
  C   C4466     1.0  0.89509  0.45075  0.57119  1.0000
  C   C4467     1.0  0.89655  0.40900  0.63590  1.0000
  C   C4468     1.0  0.79983  0.39664  0.54027  1.0000
  C   C4469     1.0  0.86020  0.43521  0.61701  1.0000
  C   C4470     1.0  0.85071  0.42440  0.63339  1.0000
  C   C4471     1.0  0.83423  0.43308  0.64458  1.0000
  C   C4472     1.0  0.82699  0.45255  0.63944  1.0000
  C   C4473     1.0  0.83626  0.46339  0.62314  1.0000
  C   C4474     1.0  0.85280  0.45479  0.61197  1.0000
  C   C4475     1.0  0.51171  0.51035  0.57942  1.0000
  H   H3573     1.0  0.90561  0.44437  0.61586  1.0000
  H   H3574     1.0  0.92288  0.47090  0.60003  1.0000
  H   H3575     1.0  0.92185  0.48532  0.56603  1.0000
  H   H3576     1.0  0.90382  0.47279  0.54772  1.0000
  H   H3577     1.0  0.88706  0.44582  0.56297  1.0000
  H   H3578     1.0  0.88854  0.42186  0.64093  1.0000
  H   H3579     1.0  0.89941  0.39778  0.73589  1.0000
  H   H3580     1.0  0.85608  0.40929  0.63760  1.0000
  H   H3581     1.0  0.82701  0.42478  0.65729  1.0000
  H   H3582     1.0  0.81423  0.45921  0.64818  1.0000
  H   H3583     1.0  0.83072  0.47853  0.61924  1.0000
  H   H3584     1.0  0.85980  0.46354  0.59949  1.0000
  C   C4476     1.0  0.53108  0.41831  0.57174  1.0000
  C   C4477     1.0  0.54624  0.40553  0.56339  1.0000
  C   C4478     1.0  0.56369  0.41145  0.55458  1.0000
  C   C4479     1.0  0.56579  0.43035  0.55353  1.0000
  C   C4480     1.0  0.55048  0.44338  0.56153  1.0000
  C   C4481     1.0  0.53330  0.43706  0.57118  1.0000
  P   P151      1.0  0.55407  0.46712  0.56166  1.0000
  C   C4482     1.0  0.53151  0.48341  0.56562  1.0000
  C   C4483     1.0  0.56816  0.46358  0.58019  1.0000
  C   C4484     1.0  0.55911  0.46316  0.59938  1.0000
  C   C4485     1.0  0.57016  0.45935  0.61382  1.0000
  C   C4486     1.0  0.59025  0.45553  0.60922  1.0000
  C   C4487     1.0  0.59929  0.45533  0.59023  1.0000
  C   C4488     1.0  0.58830  0.45911  0.57581  1.0000
  C   C4489     1.0  0.51640  0.48266  0.55665  1.0000
  C   C4490     1.0  0.79530  0.53539  0.77359  1.0000
  H   H3585     1.0  0.53063  0.40594  0.61508  1.0000
  H   H3586     1.0  0.94882  0.57589  0.52560  1.0000
  C   C4491     1.0  0.52926  0.49775  0.57654  1.0000
  C   C4492     1.0  0.56611  0.47729  0.53845  1.0000
  C   C4493     1.0  0.56206  0.47332  0.52184  1.0000
  C   C4494     1.0  0.57070  0.48183  0.50376  1.0000
  P   P152      1.0  0.78596  0.56839  0.84456  1.0000
  C   C4495     1.0  0.58729  0.49858  0.51865  1.0000
  C   C4496     1.0  0.57854  0.49025  0.53673  1.0000
  H   H3587     1.0  0.51759  0.41371  0.57873  1.0000
  C   C4497     1.0  0.79620  0.51197  0.70615  1.0000
  C   C4498     1.0  0.73148  0.44742  0.50272  1.0000
  H   H3588     1.0  0.57937  0.43477  0.54645  1.0000
  H   H3589     1.0  0.52155  0.44650  0.57827  1.0000
  H   H3590     1.0  0.54356  0.46556  0.60322  1.0000
  H   H3591     1.0  0.56315  0.45926  0.62858  1.0000
  H   H3592     1.0  0.59886  0.45261  0.62035  1.0000
  H   H3593     1.0  0.61486  0.45224  0.58660  1.0000
  H   H3594     1.0  0.50992  0.52121  0.58809  1.0000
  C   C4499     1.0  0.74630  0.57953  0.85506  1.0000
  C   C4500     1.0  0.89799  0.57282  0.65595  1.0000
  H   H3595     1.0  0.81386  0.55542  0.87094  1.0000
  H   H3596     1.0  0.97469  0.38543  0.78096  1.0000
  C   C4501     1.0  0.80325  0.57427  0.82317  1.0000
  H   H3597     1.0  0.78912  0.49227  0.48172  1.0000
  H   H3598     1.0  0.57074  0.56746  0.91591  1.0000
  C   C4502     1.0  0.74617  0.38370  0.70747  1.0000
  C   C4503     1.0  0.93537  0.38879  0.86085  1.0000
  C   C4504     1.0  0.89167  0.57611  0.76451  1.0000
  H   H3599     1.0  0.77046  0.39671  0.55535  1.0000
  H   H3600     1.0  0.69858  0.38551  0.52177  1.0000
  C   C4505     1.0  0.88932  0.57334  0.68995  1.0000
  H   H3601     1.0  0.87243  0.38407  0.48041  1.0000
  C   C4506     1.0  0.57953  0.57751  0.90700  1.0000
  H   H3602     1.0  0.49906  0.44716  0.92900  1.0000
  H   H3603     1.0  0.79582  0.39144  0.81098  1.0000
  S   S598      1.0  0.83984  0.57554  0.61015  1.0000
  H   H3604     1.0  0.82057  0.56949  0.89590  1.0000
  C   C4507     1.0  0.76629  0.39264  0.65564  1.0000
  C   C4508     1.0  0.91246  0.57744  0.81742  1.0000
  H   H3605     1.0  0.74854  0.57438  0.86969  1.0000
  H   H3606     1.0  0.73841  0.40715  0.47699  1.0000
  Fe  Fe296     1.0  0.62603  0.45487  0.47710  1.0000
  C   C4509     1.0  0.96227  0.58120  0.52287  1.0000
  H   H3607     1.0  0.85466  0.58140  0.74333  1.0000
  H   H3608     1.0  0.87810  0.58159  0.79267  1.0000
  Fe  Fe297     1.0  0.51235  0.68750  0.36507  1.0000
  S   S599      1.0  0.50893  0.68552  0.39671  1.0000
  Fe  Fe298     1.0  0.52207  0.64444  0.36797  1.0000
  S   S600      1.0  0.51984  0.63887  0.39982  1.0000
  S   S601      1.0  0.53038  0.62225  0.34899  1.0000
  H   H3609     1.0  0.85821  0.62764  0.04280  1.0000
  Fe  Fe299     1.0  0.53571  0.66348  0.39454  1.0000
  S   S602      1.0  0.55829  0.66350  0.41146  1.0000
  C   C4510     1.0  0.61293  0.60925  0.09290  1.0000
  S   S603      1.0  0.54038  0.66703  0.36270  1.0000
  Fe  Fe300     1.0  0.63166  0.72491  0.34327  1.0000
  S   S604      1.0  0.61736  0.72420  0.31900  1.0000
  S   S605      1.0  0.62554  0.71083  0.37426  1.0000
  Fe  Fe301     1.0  0.65741  0.75338  0.31964  1.0000
  S   S606      1.0  0.64535  0.75460  0.29305  1.0000
  H   H3610     1.0  0.61583  0.58884  0.07431  1.0000
  Fe  Fe302     1.0  0.61645  0.75612  0.31245  1.0000
  H   H3611     1.0  0.58451  0.58591  0.29050  1.0000
  Fe  Fe303     1.0  0.64719  0.72252  0.30131  1.0000
  S   S607      1.0  0.66044  0.70083  0.28119  1.0000
  S   S608      1.0  0.62830  0.75681  0.33822  1.0000
  S   S609      1.0  0.66180  0.72116  0.32630  1.0000
  H   H3612     1.0  0.56475  0.68959  0.37494  1.0000
  S   S610      1.0  0.93937  0.68156  0.10240  1.0000
  C   C4511     1.0  0.92992  0.58196  0.02728  1.0000
  C   C4512     1.0  0.96742  0.59578  0.05589  1.0000
  S   S611      1.0  0.81229  0.75420  0.11259  1.0000
  C   C4513     1.0  0.60299  0.74537  0.23263  1.0000
  C   C4514     1.0  0.92857  0.68301  0.98428  1.0000
  S   S612      1.0  0.89388  0.75396  0.13869  1.0000
  H   H3613     1.0  0.59154  0.70784  0.35984  1.0000
  C   C4515     1.0  0.70315  0.59678  0.98534  1.0000
  Fe  Fe304     1.0  0.74706  0.72070  0.05660  1.0000
  S   S613      1.0  0.75015  0.69544  0.08028  1.0000
  S   S614      1.0  0.75941  0.74765  0.05492  1.0000
  Fe  Fe305     1.0  0.72521  0.70038  0.03650  1.0000
  S   S615      1.0  0.72743  0.67356  0.05872  1.0000
  S   S616      1.0  0.71289  0.70210  0.00975  1.0000
  Fe  Fe306     1.0  0.71963  0.69395  0.07956  1.0000
  S   S617      1.0  0.69661  0.69294  0.10599  1.0000
  Fe  Fe307     1.0  0.75775  0.67781  0.05697  1.0000
  S   S618      1.0  0.78474  0.65544  0.05615  1.0000
  S   S619      1.0  0.71568  0.72070  0.05741  1.0000
  S   S620      1.0  0.75636  0.70307  0.03321  1.0000
  C   C4516     1.0  0.65669  0.59291  0.07080  1.0000
  S   S621      1.0  0.63796  0.67056  0.00683  1.0000
  S   S622      1.0  0.60620  0.64633  0.98540  1.0000
  Fe  Fe308     1.0  0.64753  0.59236  0.22415  1.0000
  S   S623      1.0  0.61839  0.61097  0.22767  1.0000
  Fe  Fe309     1.0  0.66059  0.61519  0.18526  1.0000
  S   S624      1.0  0.63243  0.63564  0.18578  1.0000
  S   S625      1.0  0.68500  0.61386  0.15997  1.0000
  Fe  Fe310     1.0  0.63426  0.63577  0.21640  1.0000
  S   S626      1.0  0.62337  0.66360  0.22862  1.0000
  Fe  Fe311     1.0  0.61908  0.60917  0.19702  1.0000
  S   S627      1.0  0.59209  0.60644  0.18726  1.0000
  S   S628      1.0  0.66360  0.61713  0.21491  1.0000
  C   C4517     1.0  0.92017  0.66935  0.97925  1.0000
  H   H3614     1.0  0.57977  0.73070  0.23443  1.0000
  C   C4518     1.0  0.74141  0.65718  0.99690  1.0000
  H   H3615     1.0  0.50017  0.58327  0.43866  1.0000
  H   H3616     1.0  0.58284  0.70215  0.43849  1.0000
  C   C4519     1.0  0.53431  0.67690  0.30351  1.0000
  C   C4520     1.0  0.98335  0.63269  0.00482  1.0000
  H   H3617     1.0  0.50498  0.61551  0.44070  1.0000
  C   C4521     1.0  0.49828  0.77429  0.36901  1.0000
  C   C4522     1.0  0.53512  0.65801  0.27957  1.0000
  C   C4523     1.0  0.69394  0.67080  0.12086  1.0000
  C   C4524     1.0  0.70505  0.65362  0.11616  1.0000
  C   C4525     1.0  0.70217  0.63615  0.12823  1.0000
  C   C4526     1.0  0.68828  0.63585  0.14505  1.0000
  C   C4527     1.0  0.67727  0.65305  0.14974  1.0000
  C   C4528     1.0  0.68005  0.67046  0.13763  1.0000
  H   H3618     1.0  0.71570  0.65380  0.10317  1.0000
  H   H3619     1.0  0.71070  0.62286  0.12455  1.0000
  H   H3620     1.0  0.66664  0.65294  0.16272  1.0000
  H   H3621     1.0  0.67132  0.68371  0.14118  1.0000
  C   C4529     1.0  0.69250  0.69229  0.00957  1.0000
  C   C4530     1.0  0.67658  0.69312  0.02442  1.0000
  C   C4531     1.0  0.66002  0.68644  0.02328  1.0000
  C   C4532     1.0  0.65940  0.67828  0.00765  1.0000
  C   C4533     1.0  0.67540  0.67724  0.99287  1.0000
  C   C4534     1.0  0.69171  0.68457  0.99366  1.0000
  H   H3622     1.0  0.67684  0.69942  0.03651  1.0000
  H   H3623     1.0  0.64753  0.68784  0.03447  1.0000
  H   H3624     1.0  0.55162  0.58935  0.33354  1.0000
  H   H3625     1.0  0.55072  0.70865  0.45882  1.0000
  C   C4535     1.0  0.79507  0.64999  0.03332  1.0000
  C   C4536     1.0  0.78433  0.65460  0.01862  1.0000
  C   C4537     1.0  0.79226  0.64850  0.00108  1.0000
  C   C4538     1.0  0.68084  0.59090  0.04208  1.0000
  C   C4539     1.0  0.81406  0.64009  0.03010  1.0000
  H   H3626     1.0  0.76965  0.66214  0.02104  1.0000
  Fe  Fe312     1.0  0.62123  0.61575  0.98760  1.0000
  H   H3627     1.0  0.82227  0.63632  0.04152  1.0000
  C   C4540     1.0  0.79766  0.75322  0.09612  1.0000
  C   C4541     1.0  0.79365  0.76815  0.08098  1.0000
  C   C4542     1.0  0.78171  0.76640  0.06862  1.0000
  C   C4543     1.0  0.77393  0.74963  0.07107  1.0000
  C   C4544     1.0  0.77805  0.73475  0.08617  1.0000
  C   C4545     1.0  0.78965  0.73667  0.09863  1.0000
  C   C4546     1.0  0.77972  0.73151  0.98231  1.0000
  H   H3628     1.0  0.64118  0.58419  0.01924  1.0000
  H   H3629     1.0  0.77228  0.72177  0.08827  1.0000
  H   H3630     1.0  0.79256  0.72516  0.11023  1.0000
  H   H3631     1.0  0.94143  0.65771  0.02600  1.0000
  C   C4547     1.0  0.92759  0.70256  0.11139  1.0000
  C   C4548     1.0  0.92495  0.70207  0.13109  1.0000
  C   C4549     1.0  0.91481  0.71802  0.13908  1.0000
  C   C4550     1.0  0.90645  0.73441  0.12761  1.0000
  C   C4551     1.0  0.90876  0.73491  0.10787  1.0000
  C   C4552     1.0  0.91966  0.71910  0.09970  1.0000
  H   H3632     1.0  0.93090  0.68931  0.14022  1.0000
  H   H3633     1.0  0.91314  0.71752  0.15431  1.0000
  H   H3634     1.0  0.90247  0.74755  0.09884  1.0000
  H   H3635     1.0  0.92146  0.71951  0.08450  1.0000
  H   H3636     1.0  0.77463  0.77460  0.13873  1.0000
  H   H3637     1.0  0.70788  0.60438  0.07888  1.0000
  C   C4553     1.0  0.88892  0.74114  0.05397  1.0000
  H   H3638     1.0  0.66907  0.72099  0.23870  1.0000
  S   S629      1.0  0.96377  0.66425  0.05350  1.0000
  H   H3639     1.0  0.82400  0.68531  0.20347  1.0000
  H   H3640     1.0  0.68414  0.75242  0.35644  1.0000
  H   H3641     1.0  0.74700  0.68588  0.98642  1.0000
  H   H3642     1.0  0.76996  0.59832  0.98862  1.0000
  H   H3643     1.0  0.55426  0.66505  0.32290  1.0000
  C   C4554     1.0  0.64975  0.69050  0.26684  1.0000
  C   C4555     1.0  0.63234  0.69933  0.26087  1.0000
  C   C4556     1.0  0.62468  0.69104  0.24897  1.0000
  C   C4557     1.0  0.63421  0.67372  0.24299  1.0000
  C   C4558     1.0  0.65181  0.66502  0.24868  1.0000
  C   C4559     1.0  0.65956  0.67345  0.26041  1.0000
  H   H3644     1.0  0.62489  0.71265  0.26528  1.0000
  H   H3645     1.0  0.61129  0.69811  0.24435  1.0000
  H   H3646     1.0  0.65941  0.65177  0.24414  1.0000
  H   H3647     1.0  0.67320  0.66662  0.26468  1.0000
  H   H3648     1.0  0.97182  0.77012  0.03699  1.0000
  H   H3649     1.0  0.61747  0.68621  0.40978  1.0000
  H   H3650     1.0  0.51992  0.60168  0.38789  1.0000
  C   C4560     1.0  0.57650  0.67710  0.40043  1.0000
  C   C4561     1.0  0.59126  0.67644  0.41030  1.0000
  C   C4562     1.0  0.60603  0.68698  0.40206  1.0000
  C   C4563     1.0  0.60637  0.69813  0.38376  1.0000
  C   C4564     1.0  0.59145  0.69912  0.37390  1.0000
  C   C4565     1.0  0.57641  0.68870  0.38234  1.0000
  H   H3651     1.0  0.59139  0.66757  0.42430  1.0000
  C   C4566     1.0  0.82228  0.63471  0.01226  1.0000
  P   P153      1.0  0.62735  0.62447  0.07530  1.0000
  C   C4567     1.0  0.74500  0.73711  0.99145  1.0000
  C   C4568     1.0  0.71152  0.60957  0.99134  1.0000
  H   H3652     1.0  0.78364  0.65124  0.99003  1.0000
  C   C4569     1.0  0.77388  0.59988  0.00168  1.0000
  H   H3653     1.0  0.49153  0.69456  0.32846  1.0000
  S   S630      1.0  0.95890  0.71079  0.05226  1.0000
  H   H3654     1.0  0.52951  0.65616  0.26759  1.0000
  C   C4570     1.0  0.61814  0.77002  0.38384  1.0000
  H   H3655     1.0  0.52762  0.70852  0.22980  1.0000
  C   C4571     1.0  0.84949  0.78032  0.44093  1.0000
  Fe  Fe313     1.0  0.96023  0.68410  0.07433  1.0000
  S   S631      1.0  0.50853  0.71665  0.34651  1.0000
  C   C4572     1.0  0.79837  0.75054  0.18297  1.0000
  C   C4573     1.0  0.67230  0.60899  0.03363  1.0000
  H   H3656     1.0  0.68397  0.63445  0.07827  1.0000
  C   C4574     1.0  0.52187  0.73680  0.28720  1.0000
  Fe  Fe314     1.0  0.49324  0.66144  0.39918  1.0000
  H   H3657     1.0  0.52713  0.62045  0.30973  1.0000
  H   H3658     1.0  0.71825  0.77986  0.29162  1.0000
  C   C4575     1.0  0.98549  0.76805  0.13003  1.0000
  C   C4576     1.0  0.61287  0.75340  0.24253  1.0000
  H   H3659     1.0  0.58396  0.63614  0.24041  1.0000
  H   H3660     1.0  0.51137  0.70302  0.43744  1.0000
  C   C4577     1.0  0.53077  0.60696  0.30465  1.0000
  C   C4578     1.0  0.60746  0.76511  0.40218  1.0000
  C   C4579     1.0  0.59124  0.74426  0.27201  1.0000
  C   C4580     1.0  0.63682  0.70643  0.16831  1.0000
  C   C4581     1.0  0.91789  0.77473  0.18219  1.0000
  C   C4582     1.0  0.52553  0.58279  0.98574  1.0000
  H   H3661     1.0  0.79899  0.68838  0.98970  1.0000
  H   H3662     1.0  0.73061  0.59771  0.04939  1.0000
  H   H3663     1.0  0.56387  0.60464  0.98132  1.0000
  C   C4583     1.0  0.78515  0.60540  0.03420  1.0000
  H   H3664     1.0  0.63509  0.70338  0.97713  1.0000
  H   H3665     1.0  0.59082  0.62900  0.02431  1.0000
  H   H3666     1.0  0.83683  0.62680  0.00994  1.0000
  C   C4584     1.0  0.97630  0.65668  0.13078  1.0000
  C   C4585     1.0  0.73981  0.64000  0.99205  1.0000
  C   C4586     1.0  0.64293  0.68994  0.18096  1.0000
  H   H3667     1.0  0.95636  0.74606  0.06487  1.0000
  C   C4587     1.0  0.64295  0.63480  0.10276  1.0000
  H   H3668     1.0  0.98936  0.73483  0.99386  1.0000
  C   C4588     1.0  0.58244  0.73160  0.42472  1.0000
  H   H3669     1.0  0.64469  0.73201  0.14969  1.0000
  H   H3670     1.0  0.88859  0.72593  0.05725  1.0000
  C   C4589     1.0  0.62424  0.60646  0.28017  1.0000
  H   H3671     1.0  0.69675  0.70689  0.25507  1.0000
  H   H3672     1.0  0.72619  0.71941  0.11373  1.0000
  C   C4590     1.0  0.54136  0.76166  0.27961  1.0000
  C   C4591     1.0  0.53769  0.62655  0.22836  1.0000
  H   H3673     1.0  0.66974  0.71564  0.20626  1.0000
  C   C4592     1.0  0.93555  0.66109  0.01299  1.0000
  C   C4593     1.0  0.58735  0.66451  0.04927  1.0000
  H   H3674     1.0  0.64641  0.76860  0.36635  1.0000
  C   C4594     1.0  0.58712  0.73691  0.24238  1.0000
  C   C4595     1.0  0.69742  0.70478  0.24062  1.0000
  C   C4596     1.0  0.59298  0.59717  0.28555  1.0000
  C   C4597     1.0  0.81121  0.63853  0.99787  1.0000
  H   H3675     1.0  0.58309  0.60795  0.13639  1.0000
  C   C4598     1.0  0.65594  0.61904  0.04366  1.0000
  C   C4599     1.0  0.52738  0.67430  0.28792  1.0000
  C   C4600     1.0  0.55668  0.72033  0.44902  1.0000
  P   P154      1.0  0.58152  0.76948  0.40600  1.0000
  H   H3676     1.0  0.51592  0.68484  0.28240  1.0000
  C   C4601     1.0  0.85494  0.68366  0.15673  1.0000
  H   H3677     1.0  0.57961  0.67884  0.05050  1.0000
  H   H3678     1.0  0.60922  0.75326  0.43186  1.0000
  C   C4602     1.0  0.57482  0.71666  0.43763  1.0000
  H   H3679     1.0  0.88435  0.64019  0.01856  1.0000
  C   C4603     1.0  0.94947  0.75194  0.09332  1.0000
  C   C4604     1.0  0.98262  0.75283  0.01522  1.0000
  H   H3680     1.0  0.95917  0.73935  0.09874  1.0000
  H   H3681     1.0  0.70624  0.62483  0.98777  1.0000
  C   C4605     1.0  0.60753  0.62767  0.04578  1.0000
  H   H3682     1.0  0.63897  0.66147  0.05861  1.0000
  C   C4606     1.0  0.54593  0.73888  0.44716  1.0000
  C   C4607     1.0  0.66814  0.71548  0.16334  1.0000
  C   C4608     1.0  0.61610  0.62540  0.27381  1.0000
  P   P155      1.0  0.97229  0.59104  0.98075  1.0000
  H   H3683     1.0  0.93820  0.60581  0.00622  1.0000
  H   H3684     1.0  0.56728  0.63600  0.30904  1.0000
  C   C4609     1.0  0.59642  0.63025  0.27323  1.0000
  C   C4610     1.0  0.81330  0.69191  0.98500  1.0000
  H   H3685     1.0  0.88221  0.69345  0.14794  1.0000
  C   C4611     1.0  0.65171  0.64680  0.10949  1.0000
  C   C4612     1.0  0.55227  0.63274  0.21377  1.0000
  H   H3686     1.0  0.97407  0.68641  0.11766  1.0000
  C   C4613     1.0  0.82686  0.68496  0.99704  1.0000
  H   H3687     1.0  0.57360  0.66210  0.02660  1.0000
  H   H3688     1.0  0.77861  0.77802  0.05700  1.0000
  H   H3689     1.0  0.52389  0.76813  0.32497  1.0000
  C   C4614     1.0  0.78511  0.77920  0.16262  1.0000
  C   C4615     1.0  0.94410  0.75274  0.01471  1.0000
  C   C4616     1.0  0.76036  0.60929  0.01514  1.0000
  H   H3690     1.0  0.70489  0.65129  0.01842  1.0000
  H   H3691     1.0  0.49157  0.74575  0.29691  1.0000
  C   C4617     1.0  0.69303  0.64465  0.04825  1.0000
  C   C4618     1.0  0.93820  0.76392  0.10572  1.0000
  H   H3692     1.0  0.92659  0.63385  0.01742  1.0000
  C   C4619     1.0  0.61262  0.59244  0.28632  1.0000
  H   H3693     1.0  0.80345  0.58666  0.99374  1.0000
  C   C4620     1.0  0.93656  0.67887  0.00104  1.0000
  C   C4621     1.0  0.59038  0.60383  0.12281  1.0000
  C   C4622     1.0  0.50193  0.72819  0.41749  1.0000
  H   H3694     1.0  0.76961  0.72436  0.20628  1.0000
  C   C4623     1.0  0.97482  0.61401  0.98489  1.0000
  H   H3695     1.0  0.98291  0.62680  0.14294  1.0000
  C   C4624     1.0  0.71995  0.62440  0.03190  1.0000
  C   C4625     1.0  0.72028  0.61095  0.04897  1.0000
  C   C4626     1.0  0.70738  0.61459  0.06565  1.0000
  C   C4627     1.0  0.95877  0.74293  0.00258  1.0000
  H   H3696     1.0  0.98543  0.61694  0.05176  1.0000
  H   H3697     1.0  0.58025  0.64084  0.20698  1.0000
  H   H3698     1.0  0.59624  0.72830  0.41551  1.0000
  C   C4628     1.0  0.52756  0.59148  0.37886  1.0000
  C   C4629     1.0  0.58390  0.65509  0.03585  1.0000
  Fe  Fe315     1.0  0.96442  0.69078  0.03108  1.0000
  C   C4630     1.0  0.53819  0.59577  0.97837  1.0000
  H   H3699     1.0  0.69175  0.60219  0.97703  1.0000
  H   H3700     1.0  0.63315  0.68005  0.18788  1.0000
  C   C4631     1.0  0.86759  0.77707  0.44612  1.0000
  H   H3701     1.0  0.81334  0.59131  0.02265  1.0000
  H   H3702     1.0  0.64068  0.62114  0.11157  1.0000
  H   H3703     1.0  0.73959  0.65859  0.01173  1.0000
  H   H3704     1.0  0.97954  0.76976  0.18869  1.0000
  H   H3705     1.0  0.67826  0.61535  0.01928  1.0000
  C   C4632     1.0  0.94861  0.76228  0.02757  1.0000
  H   H3706     1.0  0.85589  0.68380  0.00056  1.0000
  P   P156      1.0  0.56120  0.72473  0.27521  1.0000
  C   C4633     1.0  0.56840  0.71079  0.29712  1.0000
  C   C4634     1.0  0.53996  0.74242  0.28079  1.0000
  H   H3707     1.0  0.95521  0.73516  0.99305  1.0000
  C   C4635     1.0  0.58668  0.69916  0.29665  1.0000
  C   C4636     1.0  0.59250  0.68853  0.31349  1.0000
  C   C4637     1.0  0.58036  0.68986  0.33105  1.0000
  C   C4638     1.0  0.56251  0.70208  0.33178  1.0000
  C   C4639     1.0  0.55647  0.71238  0.31492  1.0000
  C   C4640     1.0  0.55686  0.70927  0.26067  1.0000
  C   C4641     1.0  0.56986  0.69227  0.25794  1.0000
  C   C4642     1.0  0.56785  0.68152  0.24497  1.0000
  C   C4643     1.0  0.55249  0.68718  0.23507  1.0000
  C   C4644     1.0  0.53936  0.70396  0.23775  1.0000
  C   C4645     1.0  0.54171  0.71515  0.25021  1.0000
  C   C4646     1.0  0.87177  0.75440  0.05388  1.0000
  H   H3708     1.0  0.58700  0.74382  0.28731  1.0000
  C   C4647     1.0  0.55396  0.59462  0.98702  1.0000
  H   H3709     1.0  0.59665  0.69849  0.28335  1.0000
  H   H3710     1.0  0.60664  0.67956  0.31295  1.0000
  H   H3711     1.0  0.58494  0.68155  0.34407  1.0000
  H   H3712     1.0  0.55324  0.70362  0.34541  1.0000
  S   S632      1.0  0.94800  0.69608  0.00628  1.0000
  H   H3713     1.0  0.58196  0.68741  0.26524  1.0000
  H   H3714     1.0  0.57856  0.66902  0.24233  1.0000
  H   H3715     1.0  0.55099  0.67869  0.22508  1.0000
  C   C4648     1.0  0.55032  0.58608  0.28326  1.0000
  H   H3716     1.0  0.53193  0.72856  0.25127  1.0000
  C   C4649     1.0  0.87914  0.66727  0.02801  1.0000
  C   C4650     1.0  0.87575  0.64887  0.02879  1.0000
  C   C4651     1.0  0.86103  0.64177  0.04253  1.0000
  C   C4652     1.0  0.84969  0.65301  0.05561  1.0000
  C   C4653     1.0  0.85316  0.67144  0.05506  1.0000
  C   C4654     1.0  0.86770  0.67863  0.04091  1.0000
  P   P157      1.0  0.83791  0.68674  0.07088  1.0000
  C   C4655     1.0  0.82226  0.67307  0.08899  1.0000
  C   C4656     1.0  0.85185  0.69578  0.08368  1.0000
  C   C4657     1.0  0.87180  0.68928  0.08244  1.0000
  C   C4658     1.0  0.88214  0.69593  0.09306  1.0000
  C   C4659     1.0  0.87263  0.70891  0.10510  1.0000
  C   C4660     1.0  0.85279  0.71507  0.10678  1.0000
  C   C4661     1.0  0.84240  0.70842  0.09625  1.0000
  C   C4662     1.0  0.80300  0.67391  0.08764  1.0000
  C   C4663     1.0  0.79167  0.66210  0.10112  1.0000
  C   C4664     1.0  0.79927  0.64975  0.11630  1.0000
  C   C4665     1.0  0.81828  0.64915  0.11802  1.0000
  C   C4666     1.0  0.82977  0.66067  0.10436  1.0000
  C   C4667     1.0  0.82467  0.70539  0.05544  1.0000
  C   C4668     1.0  0.82515  0.72481  0.05446  1.0000
  C   C4669     1.0  0.81560  0.73892  0.04167  1.0000
  C   C4670     1.0  0.80542  0.73380  0.02986  1.0000
  C   C4671     1.0  0.80510  0.71452  0.03053  1.0000
  C   C4672     1.0  0.81484  0.70035  0.04311  1.0000
  C   C4673     1.0  0.88983  0.78039  0.04633  1.0000
  H   H3717     1.0  0.82308  0.67598  0.01073  1.0000
  H   H3718     1.0  0.74694  0.73682  0.15719  1.0000
  H   H3719     1.0  0.83802  0.64740  0.06580  1.0000
  H   H3720     1.0  0.87018  0.69306  0.03980  1.0000
  H   H3721     1.0  0.87948  0.67891  0.07357  1.0000
  H   H3722     1.0  0.89755  0.69096  0.09202  1.0000
  H   H3723     1.0  0.88057  0.71407  0.11333  1.0000
  H   H3724     1.0  0.84549  0.72505  0.11625  1.0000
  H   H3725     1.0  0.82699  0.71325  0.09783  1.0000
  H   H3726     1.0  0.79666  0.68328  0.07607  1.0000
  H   H3727     1.0  0.77706  0.66231  0.09950  1.0000
  H   H3728     1.0  0.79046  0.64053  0.12660  1.0000
  H   H3729     1.0  0.82422  0.63950  0.12972  1.0000
  H   H3730     1.0  0.84463  0.65968  0.10562  1.0000
  H   H3731     1.0  0.83275  0.72926  0.06350  1.0000
  H   H3732     1.0  0.81565  0.75390  0.04127  1.0000
  H   H3733     1.0  0.79740  0.74481  0.02052  1.0000
  H   H3734     1.0  0.79712  0.71054  0.02146  1.0000
  H   H3735     1.0  0.81448  0.68544  0.04337  1.0000
  C   C4674     1.0  0.72628  0.71899  0.12872  1.0000
  C   C4675     1.0  0.73815  0.72912  0.13388  1.0000
  C   C4676     1.0  0.73789  0.72878  0.15322  1.0000
  C   C4677     1.0  0.72597  0.71811  0.16740  1.0000
  C   C4678     1.0  0.71416  0.70767  0.16231  1.0000
  C   C4679     1.0  0.71430  0.70842  0.14286  1.0000
  P   P158      1.0  0.69890  0.69338  0.18036  1.0000
  C   C4680     1.0  0.70774  0.66801  0.18087  1.0000
  C   C4681     1.0  0.69836  0.69832  0.20376  1.0000
  C   C4682     1.0  0.71411  0.69045  0.21313  1.0000
  C   C4683     1.0  0.71360  0.69365  0.23151  1.0000
  H   H3736     1.0  0.95284  0.75559  0.14891  1.0000
  H   H3737     1.0  0.92931  0.75272  0.01401  1.0000
  H   H3738     1.0  0.95413  0.60598  0.05799  1.0000
  C   C4684     1.0  0.70317  0.65484  0.19772  1.0000
  C   C4685     1.0  0.70900  0.63516  0.19802  1.0000
  C   C4686     1.0  0.71934  0.62842  0.18153  1.0000
  C   C4687     1.0  0.72416  0.64137  0.16480  1.0000
  C   C4688     1.0  0.71835  0.66107  0.16441  1.0000
  C   C4689     1.0  0.52040  0.59235  0.31400  1.0000
  H   H3739     1.0  0.72554  0.68721  0.23890  1.0000
  H   H3740     1.0  0.85809  0.74952  0.05722  1.0000
  H   H3741     1.0  0.73209  0.74204  0.00114  1.0000
  C   C4690     1.0  0.92726  0.64744  0.00794  1.0000
  C   C4691     1.0  0.58128  0.73609  0.26221  1.0000
  H   H3742     1.0  0.76409  0.74502  0.00617  1.0000
  H   H3743     1.0  0.74739  0.73736  0.12287  1.0000
  H   H3744     1.0  0.91730  0.59059  0.03427  1.0000
  H   H3745     1.0  0.72603  0.71814  0.18222  1.0000
  C   C4692     1.0  0.70593  0.64108  0.03155  1.0000
  H   H3746     1.0  0.72662  0.68157  0.20634  1.0000
  C   C4693     1.0  0.52490  0.77504  0.28452  1.0000
  C   C4694     1.0  0.66168  0.68606  0.18468  1.0000
  H   H3747     1.0  0.93250  0.58995  0.97681  1.0000
  H   H3748     1.0  0.64476  0.74559  0.42611  1.0000
  H   H3749     1.0  0.69461  0.65969  0.21053  1.0000
  H   H3750     1.0  0.70497  0.62508  0.21090  1.0000
  H   H3751     1.0  0.72308  0.61315  0.18153  1.0000
  H   H3752     1.0  0.73163  0.63609  0.15185  1.0000
  H   H3753     1.0  0.72165  0.67060  0.15102  1.0000
  C   C4695     1.0  0.87224  0.77401  0.05002  1.0000
  H   H3754     1.0  0.91969  0.73707  0.05070  1.0000
  H   H3755     1.0  0.62508  0.63632  0.26911  1.0000
  H   H3756     1.0  0.98812  0.63355  0.01769  1.0000
  H   H3757     1.0  0.66338  0.75287  0.39333  1.0000
  C   C4696     1.0  0.64201  0.65748  0.07303  1.0000
  C   C4697     1.0  0.83523  0.68861  0.16364  1.0000
  C   C4698     1.0  0.82733  0.70727  0.16704  1.0000
  C   C4699     1.0  0.83951  0.72081  0.16352  1.0000
  P   P159      1.0  0.80193  0.71333  0.17660  1.0000
  C   C4700     1.0  0.79730  0.70563  0.20223  1.0000
  C   C4701     1.0  0.79440  0.73906  0.17154  1.0000
  Fe  Fe316     1.0  0.86937  0.77397  0.12619  1.0000
  C   C4702     1.0  0.90714  0.76720  0.04607  1.0000
  C   C4703     1.0  0.72655  0.60270  0.00181  1.0000
  C   C4704     1.0  0.98860  0.63989  0.13699  1.0000
  C   C4705     1.0  0.78538  0.74791  0.15584  1.0000
  C   C4706     1.0  0.78008  0.71358  0.21314  1.0000
  C   C4707     1.0  0.77620  0.70760  0.23297  1.0000
  C   C4708     1.0  0.78950  0.69367  0.24207  1.0000
  H   H3758     1.0  0.55525  0.76496  0.33922  1.0000
  C   C4709     1.0  0.81060  0.69165  0.21147  1.0000
  C   C4710     1.0  0.78887  0.70156  0.16537  1.0000
  C   C4711     1.0  0.79424  0.70121  0.14572  1.0000
  C   C4712     1.0  0.78431  0.69221  0.13679  1.0000
  C   C4713     1.0  0.76912  0.68323  0.14742  1.0000
  C   C4714     1.0  0.76394  0.68312  0.16708  1.0000
  C   C4715     1.0  0.77368  0.69234  0.17605  1.0000
  C   C4716     1.0  0.65549  0.66418  0.09805  1.0000
  H   H3759     1.0  0.82617  0.67788  0.16633  1.0000
  H   H3760     1.0  0.83397  0.73531  0.16587  1.0000
  C   C4717     1.0  0.98363  0.67350  0.12279  1.0000
  H   H3761     1.0  0.59493  0.74408  0.37801  1.0000
  C   C4718     1.0  0.61718  0.75677  0.41752  1.0000
  Fe  Fe317     1.0  0.63534  0.65281  0.98553  1.0000
  H   H3762     1.0  0.78264  0.73960  0.14638  1.0000
  C   C4719     1.0  0.76625  0.61240  0.03122  1.0000
  H   H3763     1.0  0.76289  0.71378  0.24132  1.0000
  H   H3764     1.0  0.68243  0.65766  0.04797  1.0000
  H   H3765     1.0  0.66237  0.67346  0.10320  1.0000
  H   H3766     1.0  0.80600  0.70814  0.13725  1.0000
  H   H3767     1.0  0.78828  0.69236  0.12153  1.0000
  H   H3768     1.0  0.76130  0.67648  0.14038  1.0000
  H   H3769     1.0  0.75219  0.67608  0.17530  1.0000
  H   H3770     1.0  0.76929  0.69217  0.19124  1.0000
  C   C4720     1.0  0.56874  0.63644  0.21833  1.0000
  H   H3771     1.0  0.86096  0.66932  0.15396  1.0000
  H   H3772     1.0  0.78974  0.60835  0.04633  1.0000
  C   C4721     1.0  0.54525  0.58452  0.34821  1.0000
  H   H3773     1.0  0.78650  0.68906  0.25745  1.0000
  H   H3774     1.0  0.86846  0.72638  0.15386  1.0000
  H   H3775     1.0  0.81700  0.67495  0.23841  1.0000
  H   H3776     1.0  0.65580  0.64255  0.12350  1.0000
  H   H3777     1.0  0.59043  0.64503  0.26833  1.0000
  C   C4722     1.0  0.63730  0.75246  0.41434  1.0000
  H   H3778     1.0  0.89042  0.67285  0.01717  1.0000
  C   C4723     1.0  0.53500  0.59790  0.35965  1.0000
  H   H3779     1.0  0.63955  0.60259  0.28033  1.0000
  C   C4724     1.0  0.57087  0.63357  0.23741  1.0000
  C   C4725     1.0  0.54605  0.60381  0.28941  1.0000
  C   C4726     1.0  0.85920  0.71579  0.15668  1.0000
  C   C4727     1.0  0.68219  0.70958  0.21298  1.0000
  H   H3780     1.0  0.96111  0.65664  0.13183  1.0000
  C   C4728     1.0  0.86693  0.69722  0.15335  1.0000
  C   C4729     1.0  0.50920  0.76501  0.35416  1.0000
  C   C4730     1.0  0.58473  0.61609  0.27859  1.0000
  C   C4731     1.0  0.55649  0.62707  0.25218  1.0000
  H   H3781     1.0  0.52821  0.68933  0.31023  1.0000
  H   H3782     1.0  0.79361  0.73267  0.98484  1.0000
  C   C4732     1.0  0.61131  0.63714  0.05909  1.0000
  S   S633      1.0  0.91048  0.63304  0.98483  1.0000
  C   C4733     1.0  0.68178  0.71278  0.23134  1.0000
  C   C4734     1.0  0.68911  0.76589  0.35426  1.0000
  C   C4735     1.0  0.55035  0.77980  0.36301  1.0000
  H   H3783     1.0  0.54101  0.60017  0.06877  1.0000
  C   C4736     1.0  0.54894  0.66321  0.31075  1.0000
  H   H3784     1.0  0.61444  0.75924  0.26990  1.0000
  C   C4737     1.0  0.51572  0.71366  0.42520  1.0000
  C   C4738     1.0  0.53511  0.71240  0.41669  1.0000
  C   C4739     1.0  0.54081  0.72590  0.40077  1.0000
  C   C4740     1.0  0.52705  0.74044  0.39306  1.0000
  C   C4741     1.0  0.67457  0.69864  0.17565  1.0000
  P   P160      1.0  0.55938  0.62261  0.27693  1.0000
  C   C4742     1.0  0.96798  0.76261  0.02743  1.0000
  C   C4743     1.0  0.54988  0.64422  0.28679  1.0000
  C   C4744     1.0  0.51518  0.77556  0.33615  1.0000
  C   C4745     1.0  0.59375  0.63655  0.03437  1.0000
  S   S634      1.0  0.58970  0.77646  0.30424  1.0000
  H   H3785     1.0  0.69340  0.58311  0.03416  1.0000
  C   C4746     1.0  0.97802  0.74281  0.00297  1.0000
  H   H3786     1.0  0.54574  0.70088  0.42238  1.0000
  H   H3787     1.0  0.55591  0.72495  0.39431  1.0000
  H   H3788     1.0  0.53179  0.75070  0.38085  1.0000
  H   H3789     1.0  0.52829  0.61894  0.25859  1.0000
  H   H3790     1.0  0.67754  0.72570  0.15650  1.0000
  C   C4747     1.0  0.90654  0.74751  0.05018  1.0000
  H   H3791     1.0  0.58355  0.74227  0.34904  1.0000
  S   S635      1.0  0.49422  0.66545  0.36750  1.0000
  S   S636      1.0  0.60398  0.59411  0.00636  1.0000
  C   C4748     1.0  0.64790  0.61096  0.06223  1.0000
  H   H3792     1.0  0.52498  0.62355  0.22479  1.0000
  H   H3793     1.0  0.54258  0.72165  0.31604  1.0000
  S   S637      1.0  0.64705  0.58884  0.19444  1.0000
  H   H3794     1.0  0.69933  0.75946  0.38115  1.0000
  H   H3795     1.0  0.54802  0.58743  0.03895  1.0000
  C   C4749     1.0  0.63823  0.76546  0.38068  1.0000
  C   C4750     1.0  0.80668  0.68572  0.23132  1.0000
  C   C4751     1.0  0.98068  0.61515  0.00174  1.0000
  H   H3796     1.0  0.60527  0.62771  0.11416  1.0000
  P   P161      1.0  0.73642  0.61930  0.01042  1.0000
  C   C4752     1.0  0.92476  0.77942  0.09899  1.0000
  C   C4753     1.0  0.91974  0.65134  0.99093  1.0000
  C   C4754     1.0  0.60072  0.65542  0.06115  1.0000
  H   H3797     1.0  0.92031  0.75221  0.16636  1.0000
  C   C4755     1.0  0.69780  0.76990  0.36825  1.0000
  H   H3798     1.0  0.55513  0.76636  0.27525  1.0000
  C   C4756     1.0  0.65077  0.66944  0.07979  1.0000
  C   C4757     1.0  0.53972  0.62382  0.24750  1.0000
  H   H3799     1.0  0.75659  0.62089  0.04107  1.0000
  H   H3800     1.0  0.52051  0.72194  0.28889  1.0000
  C   C4758     1.0  0.64781  0.75660  0.39588  1.0000
  C   C4759     1.0  0.69384  0.63151  0.06532  1.0000
  C   C4760     1.0  0.63753  0.64032  0.08467  1.0000
  H   H3801     1.0  0.80560  0.74409  0.19498  1.0000
  C   C4761     1.0  0.58254  0.75425  0.37389  1.0000
  C   C4762     1.0  0.94767  0.75569  0.07408  1.0000
  H   H3802     1.0  0.64961  0.63313  0.03687  1.0000
  S   S638      1.0  0.64970  0.62193  0.98976  1.0000
  H   H3803     1.0  0.65419  0.68269  0.07076  1.0000
  H   H3804     1.0  0.98331  0.60244  0.01244  1.0000
  C   C4763     1.0  0.60329  0.61476  0.11034  1.0000
  H   H3805     1.0  0.60272  0.66267  0.07189  1.0000
  C   C4764     1.0  0.64939  0.71924  0.15956  1.0000
  H   H3806     1.0  0.98118  0.66299  0.99401  1.0000
  H   H3807     1.0  0.66597  0.67319  0.19460  1.0000
  H   H3808     1.0  0.62234  0.70924  0.16529  1.0000
  H   H3809     1.0  0.84816  0.77752  0.42729  1.0000
  H   H3810     1.0  0.55108  0.63427  0.19890  1.0000
  H   H3811     1.0  0.61505  0.61333  0.04430  1.0000
  C   C4765     1.0  0.57216  0.75046  0.42349  1.0000
  C   C4766     1.0  0.55353  0.75386  0.43426  1.0000
  H   H3812     1.0  0.54478  0.76803  0.43253  1.0000
  H   H3813     1.0  0.70498  0.70090  0.13862  1.0000
  C   C4767     1.0  0.79845  0.59582  0.02086  1.0000
  C   C4768     1.0  0.55648  0.64680  0.30267  1.0000
  C   C4769     1.0  0.60688  0.75298  0.26217  1.0000
  C   C4770     1.0  0.57325  0.76857  0.38465  1.0000
  C   C4771     1.0  0.79284  0.59315  0.00457  1.0000
  C   C4772     1.0  0.50543  0.75027  0.29188  1.0000
  C   C4773     1.0  0.55994  0.76576  0.35213  1.0000
  C   C4774     1.0  0.57599  0.75298  0.35760  1.0000
  H   H3814     1.0  0.56188  0.58341  0.27135  1.0000
  H   H3815     1.0  0.65454  0.72138  0.98849  1.0000
  C   C4775     1.0  0.97962  0.64930  0.99137  1.0000
  H   H3816     1.0  0.60778  0.74550  0.21744  1.0000
  H   H3817     1.0  0.62526  0.75983  0.23504  1.0000
  C   C4776     1.0  0.94184  0.59062  0.01146  1.0000
  C   C4777     1.0  0.58542  0.58786  0.17915  1.0000
  H   H3818     1.0  0.50918  0.59466  0.32625  1.0000
  S   S639      1.0  0.67761  0.77433  0.31861  1.0000
  H   H3819     1.0  0.67501  0.67131  0.98058  1.0000
  C   C4778     1.0  0.94594  0.76484  0.15913  1.0000
  C   C4779     1.0  0.76305  0.73868  0.99431  1.0000
  S   S640      1.0  0.81983  0.62893  0.97679  1.0000
  C   C4780     1.0  0.50694  0.76936  0.29062  1.0000
  C   C4781     1.0  0.84534  0.68942  0.99134  1.0000
  C   C4782     1.0  0.58650  0.58780  0.11762  1.0000
  C   C4783     1.0  0.92743  0.76281  0.16910  1.0000
  S   S641      1.0  0.86133  0.77282  0.09853  1.0000
  C   C4784     1.0  0.49307  0.60941  0.45001  1.0000
  C   C4785     1.0  0.60905  0.59303  0.08793  1.0000
  H   H3820     1.0  0.93915  0.76064  0.12072  1.0000
  C   C4786     1.0  0.93432  0.77133  0.06717  1.0000
  C   C4787     1.0  0.50745  0.74148  0.40111  1.0000
  H   H3821     1.0  0.63518  0.58946  0.13349  1.0000
  C   C4788     1.0  0.79381  0.77053  0.17846  1.0000
  H   H3822     1.0  0.51314  0.74957  0.35654  1.0000
  H   H3823     1.0  0.53157  0.74158  0.45547  1.0000
  H   H3824     1.0  0.88352  0.77898  0.46713  1.0000
  H   H3825     1.0  0.65084  0.58652  0.08520  1.0000
  P   P162      1.0  0.92978  0.77515  0.04314  1.0000
  C   C4789     1.0  0.95499  0.77900  0.16206  1.0000
  C   C4790     1.0  0.53983  0.58545  0.06923  1.0000
  H   H3826     1.0  0.55541  0.59912  0.18753  1.0000
  H   H3827     1.0  0.49424  0.77965  0.29475  1.0000
  H   H3828     1.0  0.51333  0.58372  0.97897  1.0000
  C   C4791     1.0  0.78076  0.76789  0.15143  1.0000
  C   C4792     1.0  0.98435  0.77486  0.11067  1.0000
  C   C4793     1.0  0.74568  0.67271  0.98255  1.0000
  H   H3829     1.0  0.90344  0.77324  0.18970  1.0000
  H   H3830     1.0  0.88031  0.77172  0.43647  1.0000
  S   S642      1.0  0.83921  0.77454  0.14282  1.0000
  H   H3831     1.0  0.61097  0.77699  0.37189  1.0000
  H   H3832     1.0  0.70380  0.68417  0.98192  1.0000
  C   C4794     1.0  0.56570  0.58827  0.18082  1.0000
  C   C4795     1.0  0.68742  0.77904  0.33727  1.0000
  H   H3833     1.0  0.79961  0.78106  0.07885  1.0000
  C   C4796     1.0  0.73256  0.58286  0.00683  1.0000
  H   H3834     1.0  0.98833  0.76745  0.08281  1.0000
  C   C4797     1.0  0.98944  0.76217  0.09773  1.0000
  Fe  Fe318     1.0  0.83079  0.77560  0.11437  1.0000
  C   C4798     1.0  0.98506  0.60200  0.05219  1.0000
  C   C4799     1.0  0.67308  0.58290  0.06070  1.0000
  H   H3835     1.0  0.57049  0.78121  0.44378  1.0000
  C   C4800     1.0  0.55683  0.78110  0.37934  1.0000
  C   C4801     1.0  0.74358  0.72869  0.97640  1.0000
  C   C4802     1.0  0.49032  0.59126  0.44887  1.0000
  H   H3836     1.0  0.79754  0.77936  0.18686  1.0000
  C   C4803     1.0  0.59586  0.58241  0.10019  1.0000
  H   H3837     1.0  0.73848  0.78129  0.41852  1.0000
  C   C4804     1.0  0.86933  0.78108  0.46355  1.0000
  H   H3838     1.0  0.66775  0.58205  0.14204  1.0000
  Fe  Fe319     1.0  0.88352  0.61439  0.93315  1.0000
  S   S643      1.0  0.89980  0.63825  0.93096  1.0000
  C   C4805     1.0  0.57860  0.62898  0.93606  1.0000
  Fe  Fe320     1.0  0.85010  0.63150  0.96162  1.0000
  S   S644      1.0  0.86344  0.65668  0.96137  1.0000
  H   H3839     1.0  0.62633  0.59125  0.80072  1.0000
  Fe  Fe321     1.0  0.87098  0.65741  0.92965  1.0000
  S   S645      1.0  0.86854  0.68509  0.90840  1.0000
  Fe  Fe322     1.0  0.89102  0.63553  0.96296  1.0000
  C   C4806     1.0  0.78095  0.76686  0.59032  1.0000
  S   S646      1.0  0.85548  0.63389  0.92967  1.0000
  S   S647      1.0  0.87692  0.60991  0.96540  1.0000
  Fe  Fe323     1.0  0.78383  0.69388  0.85364  1.0000
  S   S648      1.0  0.77782  0.66527  0.86991  1.0000
  S   S649      1.0  0.81162  0.70473  0.84901  1.0000
  Fe  Fe324     1.0  0.74386  0.70601  0.84241  1.0000
  S   S650      1.0  0.73488  0.67816  0.85747  1.0000
  S   S651      1.0  0.72455  0.72972  0.82628  1.0000
  Fe  Fe325     1.0  0.74893  0.68174  0.88076  1.0000
  S   S652      1.0  0.73430  0.68014  0.91138  1.0000
  Fe  Fe326     1.0  0.76453  0.66471  0.84482  1.0000
  S   S653      1.0  0.77171  0.63858  0.83093  1.0000
  S   S654      1.0  0.75611  0.71052  0.86646  1.0000
  S   S655      1.0  0.77247  0.69232  0.82776  1.0000
  Fe  Fe327     1.0  0.61500  0.64778  0.95370  1.0000
  S   S656      1.0  0.59555  0.66097  0.93169  1.0000
  S   S657      1.0  0.64259  0.65784  0.95332  1.0000
  Fe  Fe328     1.0  0.52628  0.62294  0.88494  1.0000
  S   S658      1.0  0.53172  0.60409  0.86269  1.0000
  S   S659      1.0  0.53907  0.61411  0.91220  1.0000
  C   C4807     1.0  0.92191  0.63734  0.57549  1.0000
  S   S660      1.0  0.50378  0.63847  0.83871  1.0000
  C   C4808     1.0  0.85038  0.70063  0.97346  1.0000
  Fe  Fe329     1.0  0.53492  0.63143  0.84154  1.0000
  S   S661      1.0  0.55801  0.63188  0.81513  1.0000
  S   S662      1.0  0.53182  0.64935  0.86374  1.0000
  Fe  Fe330     1.0  0.62177  0.73478  0.81974  1.0000
  S   S663      1.0  0.63604  0.72820  0.79079  1.0000
  S   S664      1.0  0.63626  0.72204  0.84512  1.0000
  Fe  Fe331     1.0  0.58682  0.75959  0.80529  1.0000
  S   S665      1.0  0.59840  0.75490  0.77520  1.0000
  H   H3840     1.0  0.63877  0.58675  0.85673  1.0000
  Fe  Fe332     1.0  0.60669  0.72416  0.78854  1.0000
  S   S666      1.0  0.60294  0.70031  0.77504  1.0000
  Fe  Fe333     1.0  0.62630  0.75953  0.78056  1.0000
  H   H3841     1.0  0.81473  0.77039  0.76769  1.0000
  S   S667      1.0  0.59309  0.72837  0.81830  1.0000
  S   S668      1.0  0.61405  0.76647  0.80987  1.0000
  C   C4809     1.0  0.87938  0.60143  0.66708  1.0000
  S   S669      1.0  0.90424  0.77006  0.63486  1.0000
  S   S670      1.0  0.90082  0.76966  0.57859  1.0000
  H   H3842     1.0  0.81391  0.75985  0.82691  1.0000
  S   S671      1.0  0.85977  0.75708  0.67366  1.0000
  C   C4810     1.0  0.87968  0.74095  0.52220  1.0000
  C   C4811     1.0  0.87418  0.61390  0.75132  1.0000
  H   H3843     1.0  0.80846  0.67057  0.95987  1.0000
  S   S672      1.0  0.96397  0.62082  0.61623  1.0000
  P   P163      1.0  0.51409  0.71152  0.78233  1.0000
  S   S673      1.0  0.96955  0.70448  0.55408  1.0000
  S   S674      1.0  0.97174  0.67517  0.60700  1.0000
  Fe  Fe334     1.0  0.79922  0.64886  0.72458  1.0000
  S   S675      1.0  0.82085  0.66824  0.71900  1.0000
  S   S676      1.0  0.77022  0.65819  0.74217  1.0000
  Fe  Fe335     1.0  0.82621  0.62052  0.70146  1.0000
  S   S677      1.0  0.84994  0.63768  0.69395  1.0000
  C   C4812     1.0  0.56600  0.61892  0.93158  1.0000
  Fe  Fe336     1.0  0.84229  0.64118  0.72457  1.0000
  S   S678      1.0  0.86430  0.63790  0.74323  1.0000
  Fe  Fe337     1.0  0.82655  0.66296  0.68889  1.0000
  S   S679      1.0  0.83034  0.68548  0.66232  1.0000
  S   S680      1.0  0.82013  0.62228  0.73274  1.0000
  S   S681      1.0  0.80320  0.64549  0.69387  1.0000
  C   C4813     1.0  0.83693  0.70741  0.96125  1.0000
  H   H3844     1.0  0.51142  0.68935  0.82176  1.0000
  H   H3845     1.0  0.76949  0.60441  0.85907  1.0000
  C   C4814     1.0  0.85855  0.58547  0.88476  1.0000
  C   C4815     1.0  0.78493  0.73948  0.80920  1.0000
  C   C4816     1.0  0.80105  0.67544  0.94782  1.0000
  H   H3846     1.0  0.73790  0.59888  0.80300  1.0000
  C   C4817     1.0  0.95544  0.60709  0.60333  1.0000
  C   C4818     1.0  0.96135  0.60818  0.58358  1.0000
  C   C4819     1.0  0.87170  0.75631  0.50933  1.0000
  C   C4820     1.0  0.63204  0.59506  0.84489  1.0000
  H   H3847     1.0  0.97101  0.61785  0.57589  1.0000
  C   C4821     1.0  0.49323  0.65411  0.79039  1.0000
  C   C4822     1.0  0.85405  0.73621  0.66963  1.0000
  C   C4823     1.0  0.85116  0.72118  0.68501  1.0000
  C   C4824     1.0  0.84464  0.70519  0.68263  1.0000
  C   C4825     1.0  0.84061  0.70433  0.66495  1.0000
  C   C4826     1.0  0.84419  0.71902  0.64935  1.0000
  C   C4827     1.0  0.85110  0.73487  0.65164  1.0000
  H   H3848     1.0  0.85408  0.72184  0.69878  1.0000
  H   H3849     1.0  0.84263  0.69364  0.69452  1.0000
  H   H3850     1.0  0.84134  0.71829  0.63558  1.0000
  H   H3851     1.0  0.85339  0.74635  0.63969  1.0000
  C   C4828     1.0  0.91960  0.75073  0.57316  1.0000
  C   C4829     1.0  0.93061  0.73954  0.58660  1.0000
  C   C4830     1.0  0.94573  0.72479  0.58119  1.0000
  C   C4831     1.0  0.94985  0.72142  0.56233  1.0000
  C   C4832     1.0  0.93856  0.73244  0.54915  1.0000
  C   C4833     1.0  0.92356  0.74702  0.55452  1.0000
  H   H3852     1.0  0.92754  0.74228  0.60108  1.0000
  H   H3853     1.0  0.95432  0.71628  0.59151  1.0000
  H   H3854     1.0  0.94167  0.72992  0.53459  1.0000
  H   H3855     1.0  0.91523  0.75571  0.54404  1.0000
  Fe  Fe338     1.0  0.98403  0.68247  0.57583  1.0000
  C   C4834     1.0  0.55685  0.74629  0.86207  1.0000
  H   H3856     1.0  0.90622  0.66792  0.88223  1.0000
  H   H3857     1.0  0.83896  0.73940  0.80769  1.0000
  C   C4835     1.0  0.78169  0.58881  0.74234  1.0000
  H   H3858     1.0  0.88765  0.59866  0.63742  1.0000
  H   H3859     1.0  0.96936  0.66150  0.96498  1.0000
  C   C4836     1.0  0.56890  0.65211  0.80449  1.0000
  C   C4837     1.0  0.56715  0.66765  0.81369  1.0000
  C   C4838     1.0  0.57725  0.68286  0.80483  1.0000
  C   C4839     1.0  0.58919  0.68238  0.78686  1.0000
  C   C4840     1.0  0.59041  0.66707  0.77762  1.0000
  C   C4841     1.0  0.58034  0.65209  0.78634  1.0000
  H   H3860     1.0  0.55827  0.66780  0.82765  1.0000
  H   H3861     1.0  0.57608  0.69471  0.81201  1.0000
  H   H3862     1.0  0.59938  0.66668  0.76368  1.0000
  H   H3863     1.0  0.58163  0.64026  0.77905  1.0000
  C   C4842     1.0  0.58009  0.64763  0.92637  1.0000
  C   C4843     1.0  0.56889  0.65604  0.91217  1.0000
  C   C4844     1.0  0.55637  0.64592  0.90762  1.0000
  C   C4845     1.0  0.55491  0.62725  0.91725  1.0000
  H   H3864     1.0  0.56983  0.67049  0.90469  1.0000
  H   H3865     1.0  0.54766  0.65269  0.89687  1.0000
  C   C4846     1.0  0.76980  0.64363  0.80659  1.0000
  C   C4847     1.0  0.76020  0.66134  0.79845  1.0000
  C   C4848     1.0  0.75954  0.66535  0.77880  1.0000
  C   C4849     1.0  0.76962  0.65220  0.76702  1.0000
  C   C4850     1.0  0.77909  0.63443  0.77522  1.0000
  C   C4851     1.0  0.77850  0.62992  0.79504  1.0000
  H   H3866     1.0  0.75334  0.67190  0.80733  1.0000
  H   H3867     1.0  0.75179  0.67892  0.77258  1.0000
  H   H3868     1.0  0.78687  0.62411  0.76634  1.0000
  H   H3869     1.0  0.78555  0.61610  0.80128  1.0000
  C   C4852     1.0  0.70005  0.72725  0.83168  1.0000
  C   C4853     1.0  0.69276  0.71512  0.84819  1.0000
  C   C4854     1.0  0.67318  0.71357  0.85226  1.0000
  C   C4855     1.0  0.66078  0.72406  0.83984  1.0000
  C   C4856     1.0  0.66803  0.73614  0.82333  1.0000
  C   C4857     1.0  0.68755  0.73783  0.81937  1.0000
  H   H3870     1.0  0.70203  0.70738  0.85815  1.0000
  H   H3871     1.0  0.66765  0.70422  0.86504  1.0000
  H   H3872     1.0  0.65859  0.74432  0.81364  1.0000
  H   H3873     1.0  0.69299  0.74716  0.80658  1.0000
  C   C4858     1.0  0.72027  0.66211  0.91915  1.0000
  C   C4859     1.0  0.70607  0.66276  0.93561  1.0000
  C   C4860     1.0  0.69472  0.64843  0.94196  1.0000
  C   C4861     1.0  0.69772  0.63328  0.93202  1.0000
  C   C4862     1.0  0.71229  0.63234  0.91588  1.0000
  C   C4863     1.0  0.72342  0.64688  0.90930  1.0000
  H   H3874     1.0  0.70382  0.67438  0.94343  1.0000
  H   H3875     1.0  0.68383  0.64898  0.95471  1.0000
  H   H3876     1.0  0.71490  0.62041  0.90845  1.0000
  H   H3877     1.0  0.73465  0.64617  0.89682  1.0000
  C   C4864     1.0  0.55165  0.72469  0.89240  1.0000
  C   C4865     1.0  0.89388  0.69636  0.78747  1.0000
  H   H3878     1.0  0.84525  0.70109  0.82265  1.0000
  C   C4866     1.0  0.50559  0.68926  0.78524  1.0000
  C   C4867     1.0  0.85284  0.68892  0.89193  1.0000
  C   C4868     1.0  0.85529  0.70326  0.87580  1.0000
  C   C4869     1.0  0.84253  0.70780  0.86287  1.0000
  C   C4870     1.0  0.82714  0.69803  0.86586  1.0000
  C   C4871     1.0  0.82471  0.68342  0.88183  1.0000
  C   C4872     1.0  0.83756  0.67888  0.89492  1.0000
  H   H3879     1.0  0.86699  0.71109  0.87345  1.0000
  H   H3880     1.0  0.84448  0.71911  0.85059  1.0000
  H   H3881     1.0  0.81292  0.67572  0.88418  1.0000
  H   H3882     1.0  0.83533  0.66799  0.90750  1.0000
  C   C4873     1.0  0.65376  0.72385  0.97340  1.0000
  H   H3883     1.0  0.78943  0.75087  0.56700  1.0000
  H   H3884     1.0  0.89439  0.60229  0.80486  1.0000
  C   C4874     1.0  0.61353  0.66102  0.86569  1.0000
  C   C4875     1.0  0.96430  0.59871  0.51077  1.0000
  H   H3885     1.0  0.86489  0.70363  0.96884  1.0000
  H   H3886     1.0  0.81775  0.60638  0.62889  1.0000
  H   H3887     1.0  0.84456  0.59292  0.88192  1.0000
  C   C4876     1.0  0.85514  0.75291  0.73927  1.0000
  H   H3888     1.0  0.80133  0.64663  0.94449  1.0000
  H   H3889     1.0  0.82653  0.71221  0.91583  1.0000
  C   C4877     1.0  0.79563  0.69505  0.94086  1.0000
  C   C4878     1.0  0.52453  0.71226  0.80248  1.0000
  H   H3890     1.0  0.76858  0.70313  0.78011  1.0000
  H   H3891     1.0  0.74922  0.65291  0.94346  1.0000
  C   C4879     1.0  0.84016  0.72742  0.76067  1.0000
  C   C4880     1.0  0.77215  0.60760  0.73750  1.0000
  H   H3892     1.0  0.67622  0.67366  0.84227  1.0000
  C   C4881     1.0  0.85874  0.70020  0.81272  1.0000
  H   H3893     1.0  0.82635  0.75415  0.56021  1.0000
  C   C4882     1.0  0.78619  0.70067  0.92504  1.0000
  C   C4883     1.0  0.81866  0.72725  0.79809  1.0000
  C   C4884     1.0  0.82922  0.72747  0.74691  1.0000
  H   H3894     1.0  0.78913  0.68754  0.75379  1.0000
  C   C4885     1.0  0.49958  0.73825  0.85188  1.0000
  C   C4886     1.0  0.78032  0.59636  0.86730  1.0000
  C   C4887     1.0  0.90863  0.59682  0.84772  1.0000
  C   C4888     1.0  0.77809  0.76027  0.57455  1.0000
  Fe  Fe339     1.0  0.50004  0.61247  0.86142  1.0000
  C   C4889     1.0  0.76790  0.74206  0.74401  1.0000
  C   C4890     1.0  0.57671  0.74187  0.86189  1.0000
  C   C4891     1.0  0.86304  0.77390  0.51513  1.0000
  H   H3895     1.0  0.75866  0.71493  0.95296  1.0000
  H   H3896     1.0  0.58702  0.62236  0.94712  1.0000
  H   H3897     1.0  0.82966  0.60903  0.80060  1.0000
  C   C4892     1.0  0.60423  0.68013  0.86325  1.0000
  H   H3898     1.0  0.74722  0.75455  0.70927  1.0000
  Fe  Fe340     1.0  0.65522  0.62648  0.95764  1.0000
  S   S682      1.0  0.83250  0.59108  0.69399  1.0000
  H   H3899     1.0  0.75115  0.68335  0.95217  1.0000
  H   H3900     1.0  0.94537  0.64590  0.55369  1.0000
  H   H3901     1.0  0.57793  0.69952  0.85869  1.0000
  H   H3902     1.0  0.86527  0.76270  0.73620  1.0000
  C   C4893     1.0  0.86205  0.77555  0.53421  1.0000
  H   H3903     1.0  0.53426  0.71876  0.71226  1.0000
  C   C4894     1.0  0.82626  0.59682  0.63876  1.0000
  C   C4895     1.0  0.62643  0.69002  0.90168  1.0000
  C   C4896     1.0  0.64093  0.67392  0.90226  1.0000
  C   C4897     1.0  0.65929  0.67528  0.90443  1.0000
  C   C4898     1.0  0.66323  0.69294  0.90572  1.0000
  C   C4899     1.0  0.64873  0.70931  0.90494  1.0000
  C   C4900     1.0  0.63017  0.70756  0.90340  1.0000
  P   P164      1.0  0.65306  0.73158  0.90893  1.0000
  C   C4901     1.0  0.65268  0.72917  0.93424  1.0000
  C   C4902     1.0  0.67648  0.73578  0.89569  1.0000
  C   C4903     1.0  0.69315  0.72654  0.90315  1.0000
  C   C4904     1.0  0.71125  0.73006  0.89326  1.0000
  C   C4905     1.0  0.71291  0.74269  0.87576  1.0000
  C   C4906     1.0  0.69649  0.75173  0.86810  1.0000
  C   C4907     1.0  0.67834  0.74832  0.87798  1.0000
  C   C4908     1.0  0.66318  0.73981  0.94083  1.0000
  C   C4909     1.0  0.50301  0.69341  0.90428  1.0000
  H   H3904     1.0  0.87026  0.76184  0.56142  1.0000
  C   C4910     1.0  0.63735  0.62423  0.89543  1.0000
  C   C4911     1.0  0.64233  0.71621  0.94752  1.0000
  C   C4912     1.0  0.63463  0.75108  0.90100  1.0000
  C   C4913     1.0  0.62533  0.76480  0.91248  1.0000
  C   C4914     1.0  0.88016  0.58736  0.77752  1.0000
  H   H3905     1.0  0.58246  0.60746  0.86410  1.0000
  C   C4915     1.0  0.61478  0.76717  0.87712  1.0000
  C   C4916     1.0  0.62927  0.75246  0.88325  1.0000
  H   H3906     1.0  0.61207  0.68867  0.90068  1.0000
  H   H3907     1.0  0.63755  0.66031  0.90177  1.0000
  H   H3908     1.0  0.67030  0.66256  0.90578  1.0000
  H   H3909     1.0  0.67743  0.69358  0.90781  1.0000
  H   H3910     1.0  0.61836  0.71951  0.90405  1.0000
  H   H3911     1.0  0.69227  0.71652  0.91661  1.0000
  H   H3912     1.0  0.53813  0.73663  0.78806  1.0000
  H   H3913     1.0  0.72693  0.74521  0.86788  1.0000
  C   C4917     1.0  0.52555  0.71574  0.74287  1.0000
  H   H3914     1.0  0.66600  0.75531  0.87148  1.0000
  H   H3915     1.0  0.67117  0.74997  0.93089  1.0000
  S   S683      1.0  0.89712  0.59018  0.91641  1.0000
  C   C4918     1.0  0.96083  0.76788  0.51679  1.0000
  H   H3916     1.0  0.72401  0.72273  0.89909  1.0000
  H   H3917     1.0  0.63405  0.70782  0.94293  1.0000
  H   H3918     1.0  0.62912  0.76406  0.92625  1.0000
  C   C4919     1.0  0.51825  0.67194  0.78935  1.0000
  H   H3919     1.0  0.81886  0.76593  0.65962  1.0000
  H   H3920     1.0  0.67237  0.74481  0.96537  1.0000
  H   H3921     1.0  0.63631  0.74205  0.87419  1.0000
  C   C4920     1.0  0.82842  0.69035  0.78467  1.0000
  C   C4921     1.0  0.83203  0.68171  0.76847  1.0000
  C   C4922     1.0  0.82595  0.66439  0.76977  1.0000
  C   C4923     1.0  0.81684  0.65531  0.78720  1.0000
  C   C4924     1.0  0.81346  0.66365  0.80341  1.0000
  C   C4925     1.0  0.81935  0.68103  0.80222  1.0000
  H   H3922     1.0  0.90748  0.69446  0.77768  1.0000
  H   H3923     1.0  0.87717  0.70469  0.76506  1.0000
  H   H3924     1.0  0.83995  0.68791  0.75497  1.0000
  H   H3925     1.0  0.82864  0.65767  0.75737  1.0000
  H   H3926     1.0  0.81262  0.64169  0.78814  1.0000
  H   H3927     1.0  0.80628  0.65657  0.81691  1.0000
  H   H3928     1.0  0.81692  0.68713  0.81504  1.0000
  H   H3929     1.0  0.79470  0.71862  0.79082  1.0000
  C   C4926     1.0  0.90952  0.64105  0.59238  1.0000
  C   C4927     1.0  0.90972  0.65731  0.59979  1.0000
  C   C4928     1.0  0.92357  0.66890  0.59089  1.0000
  P   P165      1.0  0.89222  0.66325  0.62045  1.0000
  C   C4929     1.0  0.86941  0.65754  0.61904  1.0000
  C   C4930     1.0  0.90005  0.65005  0.64233  1.0000
  C   C4931     1.0  0.89145  0.65579  0.65994  1.0000
  C   C4932     1.0  0.89728  0.64533  0.67689  1.0000
  C   C4933     1.0  0.91174  0.62911  0.67639  1.0000
  C   C4934     1.0  0.92045  0.62343  0.65892  1.0000
  C   C4935     1.0  0.91460  0.63381  0.64197  1.0000
  C   C4936     1.0  0.85658  0.65181  0.63575  1.0000
  C   C4937     1.0  0.83951  0.64635  0.63468  1.0000
  C   C4938     1.0  0.83514  0.64636  0.61692  1.0000
  C   C4939     1.0  0.84763  0.65232  0.60016  1.0000
  C   C4940     1.0  0.86456  0.65815  0.60119  1.0000
  C   C4941     1.0  0.88946  0.68875  0.61940  1.0000
  C   C4942     1.0  0.87860  0.70155  0.60667  1.0000
  C   C4943     1.0  0.87762  0.72131  0.60461  1.0000
  C   C4944     1.0  0.88756  0.72839  0.61522  1.0000
  C   C4945     1.0  0.89850  0.71577  0.62785  1.0000
  C   C4946     1.0  0.89965  0.69601  0.62980  1.0000
  H   H3930     1.0  0.89965  0.63131  0.59951  1.0000
  H   H3931     1.0  0.92462  0.68110  0.59667  1.0000
  H   H3932     1.0  0.88011  0.66825  0.66059  1.0000
  H   H3933     1.0  0.89050  0.64972  0.69046  1.0000
  H   H3934     1.0  0.91619  0.62099  0.68953  1.0000
  H   H3935     1.0  0.93184  0.61102  0.65839  1.0000
  H   H3936     1.0  0.92158  0.62913  0.62864  1.0000
  H   H3937     1.0  0.85954  0.65157  0.64971  1.0000
  H   H3938     1.0  0.82976  0.64199  0.64772  1.0000
  H   H3939     1.0  0.82214  0.64162  0.61618  1.0000
  H   H3940     1.0  0.87122  0.69623  0.59808  1.0000
  H   H3941     1.0  0.86931  0.73114  0.59470  1.0000
  H   H3942     1.0  0.88688  0.74367  0.61362  1.0000
  H   H3943     1.0  0.90628  0.72131  0.63599  1.0000
  H   H3944     1.0  0.90880  0.68647  0.63912  1.0000
  C   C4947     1.0  0.57154  0.71996  0.89191  1.0000
  C   C4948     1.0  0.58407  0.72865  0.87671  1.0000
  H   H3945     1.0  0.88593  0.73133  0.55077  1.0000
  H   H3946     1.0  0.53581  0.60671  0.96592  1.0000
  C   C4949     1.0  0.87026  0.76024  0.54697  1.0000
  C   C4950     1.0  0.93537  0.64917  0.56646  1.0000
  H   H3947     1.0  0.91775  0.59292  0.94868  1.0000
  C   C4951     1.0  0.80200  0.75125  0.93505  1.0000
  C   C4952     1.0  0.63805  0.62050  0.87713  1.0000
  C   C4953     1.0  0.95438  0.59715  0.57372  1.0000
  H   H3948     1.0  0.57721  0.70966  0.90346  1.0000
  H   H3949     1.0  0.59950  0.72511  0.87631  1.0000
  C   C4954     1.0  0.82361  0.59614  0.80293  1.0000
  H   H3950     1.0  0.65697  0.61603  0.85031  1.0000
  H   H3951     1.0  0.95893  0.59830  0.55842  1.0000
  C   C4955     1.0  0.78212  0.68693  0.91643  1.0000
  C   C4956     1.0  0.49924  0.74939  0.76777  1.0000
  H   H3952     1.0  0.76982  0.73921  0.81006  1.0000
  C   C4957     1.0  0.54409  0.73784  0.87740  1.0000
  C   C4958     1.0  0.72304  0.63617  0.84388  1.0000
  C   C4959     1.0  0.71690  0.64353  0.82638  1.0000
  C   C4960     1.0  0.69951  0.65656  0.82554  1.0000
  C   C4961     1.0  0.79706  0.66174  0.93907  1.0000
  P   P166      1.0  0.69129  0.66555  0.80290  1.0000
  C   C4962     1.0  0.66541  0.66777  0.80678  1.0000
  C   C4963     1.0  0.69724  0.68894  0.79284  1.0000
  C   C4964     1.0  0.68657  0.70163  0.77983  1.0000
  C   C4965     1.0  0.69176  0.71942  0.77126  1.0000
  C   C4966     1.0  0.70792  0.72438  0.77524  1.0000
  C   C4967     1.0  0.71862  0.71175  0.78808  1.0000
  C   C4968     1.0  0.71312  0.69423  0.79711  1.0000
  C   C4969     1.0  0.65654  0.65557  0.80028  1.0000
  C   C4970     1.0  0.63651  0.65723  0.80418  1.0000
  C   C4971     1.0  0.62524  0.67089  0.81468  1.0000
  C   C4972     1.0  0.63385  0.68369  0.82025  1.0000
  C   C4973     1.0  0.65379  0.68236  0.81609  1.0000
  C   C4974     1.0  0.70303  0.64907  0.78675  1.0000
  C   C4975     1.0  0.70116  0.62967  0.79197  1.0000
  C   C4976     1.0  0.71022  0.61679  0.77963  1.0000
  C   C4977     1.0  0.72167  0.62306  0.76223  1.0000
  C   C4978     1.0  0.72399  0.64221  0.75715  1.0000
  C   C4979     1.0  0.71474  0.65519  0.76932  1.0000
  H   H3953     1.0  0.73643  0.62612  0.84444  1.0000
  H   H3954     1.0  0.72595  0.63916  0.81358  1.0000
  H   H3955     1.0  0.67420  0.69785  0.77633  1.0000
  H   H3956     1.0  0.68318  0.72940  0.76163  1.0000
  H   H3957     1.0  0.71195  0.73813  0.76868  1.0000
  H   H3958     1.0  0.73088  0.71573  0.79150  1.0000
  H   H3959     1.0  0.72123  0.68490  0.80743  1.0000
  H   H3960     1.0  0.66479  0.64507  0.79187  1.0000
  H   H3961     1.0  0.62964  0.64821  0.79874  1.0000
  H   H3962     1.0  0.60981  0.67194  0.81810  1.0000
  H   H3963     1.0  0.62503  0.69492  0.82751  1.0000
  H   H3964     1.0  0.66007  0.69290  0.82001  1.0000
  H   H3965     1.0  0.79597  0.75458  0.75345  1.0000
  C   C4980     1.0  0.60107  0.60509  0.88457  1.0000
  H   H3966     1.0  0.73313  0.64704  0.74380  1.0000
  H   H3967     1.0  0.71703  0.66988  0.76508  1.0000
  H   H3968     1.0  0.77536  0.73308  0.66228  1.0000
  C   C4981     1.0  0.85898  0.70500  0.79296  1.0000
  C   C4982     1.0  0.82395  0.73936  0.80793  1.0000
  H   H3969     1.0  0.86968  0.66267  0.76767  1.0000
  H   H3970     1.0  0.69790  0.76096  0.85419  1.0000
  C   C4983     1.0  0.97064  0.63089  0.97168  1.0000
  C   C4984     1.0  0.78757  0.66746  0.92343  1.0000
  H   H3971     1.0  0.84134  0.71574  0.94735  1.0000
  H   H3972     1.0  0.90702  0.60382  0.85982  1.0000
  H   H3973     1.0  0.62861  0.65806  0.86677  1.0000
  C   C4985     1.0  0.58600  0.60055  0.87795  1.0000
  C   C4986     1.0  0.53167  0.71212  0.76055  1.0000
  C   C4987     1.0  0.94121  0.59264  0.96275  1.0000
  H   H3974     1.0  0.97106  0.77203  0.55885  1.0000
  C   C4988     1.0  0.54019  0.71437  0.83387  1.0000
  C   C4989     1.0  0.53560  0.72634  0.80114  1.0000
  S   S684      1.0  0.49431  0.62907  0.88565  1.0000
  C   C4990     1.0  0.73048  0.77254  0.77198  1.0000
  H   H3975     1.0  0.49296  0.76206  0.80739  1.0000
  C   C4991     1.0  0.60351  0.64618  0.86645  1.0000
  P   P167      1.0  0.61590  0.62148  0.86888  1.0000
  C   C4992     1.0  0.80978  0.75114  0.81867  1.0000
  C   C4993     1.0  0.64287  0.71362  0.96700  1.0000
  C   C4994     1.0  0.93634  0.66480  0.57428  1.0000
  H   H3976     1.0  0.87165  0.61592  0.66402  1.0000
  C   C4995     1.0  0.89353  0.69250  0.80718  1.0000
  C   C4996     1.0  0.90144  0.59581  0.81698  1.0000
  C   C4997     1.0  0.81821  0.70324  0.96701  1.0000
  H   H3977     1.0  0.86342  0.61523  0.78111  1.0000
  H   H3978     1.0  0.91439  0.67263  0.96617  1.0000
  C   C4998     1.0  0.80831  0.73188  0.93350  1.0000
  H   H3979     1.0  0.71736  0.63677  0.87400  1.0000
  H   H3980     1.0  0.55657  0.70465  0.77446  1.0000
  C   C4999     1.0  0.74012  0.59322  0.81753  1.0000
  H   H3981     1.0  0.77470  0.69134  0.90434  1.0000
  H   H3982     1.0  0.61068  0.76792  0.86346  1.0000
  H   H3983     1.0  0.51315  0.75000  0.75863  1.0000
  H   H3984     1.0  0.87403  0.66272  0.58804  1.0000
  H   H3985     1.0  0.82361  0.73950  0.71840  1.0000
  Fe  Fe341     1.0  0.50030  0.65438  0.86289  1.0000
  C   C5000     1.0  0.65085  0.77016  0.70835  1.0000
  H   H3986     1.0  0.70849  0.60192  0.78358  1.0000
  H   H3987     1.0  0.82825  0.59976  0.84959  1.0000
  H   H3988     1.0  0.72955  0.72719  0.97446  1.0000
  H   H3989     1.0  0.69252  0.62462  0.80553  1.0000
  H   H3990     1.0  0.58017  0.70510  0.74458  1.0000
  C   C5001     1.0  0.97306  0.64844  0.97494  1.0000
  H   H3991     1.0  0.83797  0.73756  0.89011  1.0000
  C   C5002     1.0  0.49231  0.77841  0.88651  1.0000
  H   H3992     1.0  0.98606  0.60004  0.93955  1.0000
  C   C5003     1.0  0.82476  0.60068  0.65722  1.0000
  H   H3993     1.0  0.93643  0.59982  0.91611  1.0000
  H   H3994     1.0  0.77934  0.75976  0.82821  1.0000
  H   H3995     1.0  0.54618  0.71526  0.84597  1.0000
  H   H3996     1.0  0.90338  0.65882  0.75080  1.0000
  C   C5004     1.0  0.83162  0.73985  0.72926  1.0000
  H   H3997     1.0  0.84431  0.65210  0.58640  1.0000
  C   C5005     1.0  0.79029  0.75110  0.81941  1.0000
  C   C5006     1.0  0.54340  0.72735  0.81678  1.0000
  C   C5007     1.0  0.52449  0.77671  0.89224  1.0000
  H   H3998     1.0  0.55159  0.75656  0.85040  1.0000
  H   H3999     1.0  0.49576  0.72568  0.86181  1.0000
  H   H4000     1.0  0.56495  0.60453  0.93916  1.0000
  C   C5008     1.0  0.55145  0.70805  0.76102  1.0000
  H   H4001     1.0  0.61209  0.69143  0.86276  1.0000
  C   C5009     1.0  0.60551  0.59514  0.90240  1.0000
  S   S685      1.0  0.62831  0.61683  0.95587  1.0000
  C   C5010     1.0  0.57492  0.67014  0.86172  1.0000
  C   C5011     1.0  0.81184  0.76518  0.63253  1.0000
  P   P168      1.0  0.83669  0.71226  0.78386  1.0000
  C   C5012     1.0  0.53905  0.71586  0.72587  1.0000
  C   C5013     1.0  0.80971  0.76097  0.65248  1.0000
  H   H4002     1.0  0.77623  0.61816  0.88443  1.0000
  C   C5014     1.0  0.61104  0.62305  0.83132  1.0000
  C   C5015     1.0  0.87179  0.60638  0.77096  1.0000
  H   H4003     1.0  0.98251  0.61963  0.49873  1.0000
  H   H4004     1.0  0.88085  0.64803  0.89322  1.0000
  C   C5016     1.0  0.82787  0.74145  0.90260  1.0000
  H   H4005     1.0  0.57583  0.63997  0.86522  1.0000
  H   H4006     1.0  0.94508  0.76277  0.61545  1.0000
  H   H4007     1.0  0.81874  0.71812  0.74982  1.0000
  C   C5017     1.0  0.79907  0.72769  0.79848  1.0000
  H   H4008     1.0  0.78436  0.65683  0.91677  1.0000
  H   H4009     1.0  0.95247  0.60683  0.50387  1.0000
  H   H4010     1.0  0.80188  0.60086  0.90292  1.0000
  C   C5018     1.0  0.56491  0.70817  0.74403  1.0000
  H   H4011     1.0  0.55996  0.67375  0.86020  1.0000
  H   H4012     1.0  0.87560  0.69061  0.83517  1.0000
  H   H4013     1.0  0.54226  0.71825  0.90469  1.0000
  H   H4014     1.0  0.90688  0.68804  0.81265  1.0000
  P   P169      1.0  0.80009  0.71311  0.95220  1.0000
  H   H4015     1.0  0.92140  0.62495  0.56969  1.0000
  C   C5019     1.0  0.69547  0.65575  0.85977  1.0000
  P   P170      1.0  0.80428  0.76176  0.59733  1.0000
  C   C5020     1.0  0.61318  0.61513  0.81495  1.0000
  S   S686      1.0  0.68311  0.61569  0.93937  1.0000
  C   C5021     1.0  0.87919  0.74300  0.54094  1.0000
  C   C5022     1.0  0.84468  0.75245  0.72542  1.0000
  H   H4016     1.0  0.92404  0.67043  0.84873  1.0000
  H   H4017     1.0  0.94705  0.67372  0.56753  1.0000
  C   C5023     1.0  0.87665  0.70234  0.78036  1.0000
  C   C5024     1.0  0.93511  0.58404  0.60318  1.0000
  C   C5025     1.0  0.61087  0.77959  0.90626  1.0000
  C   C5026     1.0  0.55874  0.71212  0.72646  1.0000
  C   C5027     1.0  0.76390  0.73108  0.76238  1.0000
  C   C5028     1.0  0.78019  0.73321  0.72938  1.0000
  C   C5029     1.0  0.98137  0.60591  0.50793  1.0000
  H   H4018     1.0  0.72884  0.61309  0.75270  1.0000
  Fe  Fe342     1.0  0.98196  0.64442  0.60278  1.0000
  C   C5030     1.0  0.51059  0.75001  0.85622  1.0000
  H   H4019     1.0  0.52192  0.64119  0.79545  1.0000
  H   H4020     1.0  0.53283  0.67193  0.79091  1.0000
  H   H4021     1.0  0.81497  0.61307  0.66166  1.0000
  C   C5031     1.0  0.67214  0.61953  0.89018  1.0000
  C   C5032     1.0  0.74695  0.65411  0.95839  1.0000
  C   C5033     1.0  0.51185  0.70794  0.89203  1.0000
  H   H4022     1.0  0.64871  0.76221  0.72287  1.0000
  C   C5034     1.0  0.68910  0.66295  0.84237  1.0000
  H   H4023     1.0  0.51034  0.71847  0.74226  1.0000
  H   H4024     1.0  0.76673  0.61653  0.74831  1.0000
  H   H4025     1.0  0.76317  0.62991  0.71479  1.0000
  C   C5035     1.0  0.78655  0.58490  0.70932  1.0000
  C   C5036     1.0  0.96061  0.59441  0.96035  1.0000
  C   C5037     1.0  0.83364  0.61310  0.84672  1.0000
  C   C5038     1.0  0.82117  0.63013  0.84992  1.0000
  C   C5039     1.0  0.82848  0.64703  0.84721  1.0000
  C   C5040     1.0  0.84820  0.64691  0.84116  1.0000
  C   C5041     1.0  0.86076  0.62985  0.83777  1.0000
  C   C5042     1.0  0.85333  0.61297  0.84043  1.0000
  P   P171      1.0  0.88623  0.62987  0.83056  1.0000
  C   C5043     1.0  0.89957  0.60571  0.83204  1.0000
  C   C5044     1.0  0.89161  0.64129  0.80581  1.0000
  C   C5045     1.0  0.87679  0.65013  0.79545  1.0000
  C   C5046     1.0  0.88115  0.65659  0.77574  1.0000
  C   C5047     1.0  0.90022  0.65438  0.76619  1.0000
  C   C5048     1.0  0.91507  0.64583  0.77640  1.0000
  C   C5049     1.0  0.91080  0.63921  0.79611  1.0000
  C   C5050     1.0  0.71228  0.64215  0.86057  1.0000
  H   H4026     1.0  0.66345  0.74506  0.69584  1.0000
  H   H4027     1.0  0.65367  0.62577  0.91635  1.0000
  H   H4028     1.0  0.93787  0.59359  0.62841  1.0000
  H   H4029     1.0  0.79203  0.75535  0.94749  1.0000
  C   C5051     1.0  0.89315  0.64165  0.84681  1.0000
  C   C5052     1.0  0.88362  0.63986  0.86594  1.0000
  C   C5053     1.0  0.88840  0.64930  0.87856  1.0000
  C   C5054     1.0  0.90280  0.66048  0.87232  1.0000
  C   C5055     1.0  0.91270  0.66196  0.85344  1.0000
  C   C5056     1.0  0.90797  0.65249  0.84073  1.0000
  C   C5057     1.0  0.65434  0.62327  0.90205  1.0000
  H   H4030     1.0  0.80588  0.63021  0.85459  1.0000
  H   H4031     1.0  0.81894  0.66025  0.84990  1.0000
  H   H4032     1.0  0.85366  0.66009  0.83935  1.0000
  H   H4033     1.0  0.86268  0.59954  0.83822  1.0000
  H   H4034     1.0  0.86182  0.65145  0.80225  1.0000
  H   H4035     1.0  0.86079  0.74135  0.76759  1.0000
  C   C5058     1.0  0.96247  0.60042  0.92583  1.0000
  H   H4036     1.0  0.92984  0.64370  0.76892  1.0000
  H   H4037     1.0  0.92240  0.63173  0.80364  1.0000
  C   C5059     1.0  0.78418  0.60429  0.88165  1.0000
  C   C5060     1.0  0.82152  0.76070  0.90420  1.0000
  C   C5061     1.0  0.77724  0.60379  0.70450  1.0000
  C   C5062     1.0  0.85276  0.74060  0.75691  1.0000
  H   H4038     1.0  0.82234  0.77959  0.69365  1.0000
  C   C5063     1.0  0.74300  0.63846  0.97265  1.0000
  H   H4039     1.0  0.79673  0.70676  0.72142  1.0000
  C   C5064     1.0  0.88530  0.60250  0.73829  1.0000
  H   H4040     1.0  0.91586  0.65369  0.82626  1.0000
  C   C5065     1.0  0.52864  0.70073  0.83551  1.0000
  C   C5066     1.0  0.77003  0.61514  0.71858  1.0000
  P   P172      1.0  0.51826  0.74539  0.87915  1.0000
  C   C5067     1.0  0.79858  0.59458  0.89206  1.0000
  H   H4041     1.0  0.88667  0.72755  0.51753  1.0000
  C   C5068     1.0  0.76019  0.72156  0.96434  1.0000
  H   H4042     1.0  0.80371  0.78052  0.92170  1.0000
  H   H4043     1.0  0.66853  0.76332  0.66262  1.0000
  C   C5069     1.0  0.80058  0.75808  0.62316  1.0000
  C   C5070     1.0  0.81846  0.74017  0.58953  1.0000
  C   C5071     1.0  0.82050  0.72264  0.60236  1.0000
  C   C5072     1.0  0.83111  0.70601  0.59601  1.0000
  C   C5073     1.0  0.83982  0.70669  0.57682  1.0000
  C   C5074     1.0  0.83809  0.72409  0.56400  1.0000
  C   C5075     1.0  0.82757  0.74079  0.57033  1.0000
  C   C5076     1.0  0.78698  0.74694  0.63410  1.0000
  C   C5077     1.0  0.78523  0.74240  0.65401  1.0000
  C   C5078     1.0  0.79670  0.74930  0.66318  1.0000
  H   H4044     1.0  0.68754  0.66099  0.87259  1.0000
  C   C5079     1.0  0.50827  0.77070  0.82536  1.0000
  C   C5080     1.0  0.58501  0.68470  0.86100  1.0000
  C   C5081     1.0  0.78762  0.71360  0.73287  1.0000
  C   C5082     1.0  0.51211  0.65445  0.79183  1.0000
  C   C5083     1.0  0.50660  0.72690  0.89531  1.0000
  H   H4045     1.0  0.81405  0.72153  0.61733  1.0000
  H   H4046     1.0  0.83259  0.69260  0.60611  1.0000
  H   H4047     1.0  0.84796  0.69374  0.57192  1.0000
  H   H4048     1.0  0.84484  0.72459  0.54912  1.0000
  H   H4049     1.0  0.77602  0.60973  0.68972  1.0000
  C   C5084     1.0  0.75876  0.58567  0.82102  1.0000
  C   C5085     1.0  0.94244  0.59476  0.61310  1.0000
  H   H4050     1.0  0.79578  0.74534  0.67853  1.0000
  C   C5086     1.0  0.73426  0.77212  0.75227  1.0000
  C   C5087     1.0  0.58404  0.65095  0.86458  1.0000
  C   C5088     1.0  0.65917  0.76051  0.69312  1.0000
  C   C5089     1.0  0.51106  0.76815  0.88722  1.0000
  C   C5090     1.0  0.77168  0.71155  0.76590  1.0000
  C   C5091     1.0  0.87595  0.69413  0.81983  1.0000
  H   H4051     1.0  0.82669  0.77179  0.89290  1.0000
  C   C5092     1.0  0.57537  0.58680  0.88909  1.0000
  C   C5093     1.0  0.49335  0.74257  0.83428  1.0000
  H   H4052     1.0  0.78187  0.71569  0.91938  1.0000
  H   H4053     1.0  0.52227  0.77621  0.84615  1.0000
  C   C5094     1.0  0.52073  0.69972  0.81994  1.0000
  C   C5095     1.0  0.78338  0.70277  0.75112  1.0000
  H   H4054     1.0  0.60150  0.63663  0.83224  1.0000
  C   C5096     1.0  0.81082  0.59117  0.81984  1.0000
  H   H4055     1.0  0.78422  0.74133  0.71528  1.0000
  H   H4056     1.0  0.97644  0.74870  0.53750  1.0000
  C   C5097     1.0  0.82848  0.58455  0.78899  1.0000
  H   H4057     1.0  0.77830  0.74110  0.62717  1.0000
  H   H4058     1.0  0.56923  0.71217  0.71333  1.0000
  H   H4059     1.0  0.68522  0.61899  0.89543  1.0000
  C   C5098     1.0  0.62065  0.61315  0.84637  1.0000
  C   C5099     1.0  0.83535  0.58799  0.67014  1.0000
  H   H4060     1.0  0.50683  0.67890  0.90138  1.0000
  H   H4061     1.0  0.75825  0.76088  0.55607  1.0000
  H   H4062     1.0  0.55168  0.73844  0.81568  1.0000
  H   H4063     1.0  0.58646  0.74872  0.85023  1.0000
  C   C5100     1.0  0.94325  0.59835  0.92837  1.0000
  H   H4064     1.0  0.53916  0.76941  0.89253  1.0000
  H   H4065     1.0  0.86007  0.60425  0.90354  1.0000
  H   H4066     1.0  0.88739  0.60830  0.72314  1.0000
  H   H4067     1.0  0.75496  0.73752  0.77411  1.0000
  C   C5101     1.0  0.97115  0.59843  0.94174  1.0000
  C   C5102     1.0  0.82131  0.72709  0.91718  1.0000
  H   H4068     1.0  0.83843  0.58839  0.77594  1.0000
  H   H4069     1.0  0.84449  0.76600  0.59270  1.0000
  C   C5103     1.0  0.80860  0.76560  0.92042  1.0000
  H   H4070     1.0  0.49696  0.58917  0.82273  1.0000
  H   H4071     1.0  0.60536  0.62261  0.80360  1.0000
  H   H4072     1.0  0.52541  0.69118  0.84897  1.0000
  H   H4073     1.0  0.87251  0.63112  0.87122  1.0000
  C   C5104     1.0  0.63437  0.58733  0.82835  1.0000
  H   H4074     1.0  0.97060  0.60356  0.91151  1.0000
  C   C5105     1.0  0.76045  0.77666  0.71429  1.0000
  H   H4075     1.0  0.98035  0.74349  0.60155  1.0000
  H   H4076     1.0  0.87263  0.75435  0.49485  1.0000
  C   C5106     1.0  0.77842  0.72272  0.96732  1.0000
  S   S687      1.0  0.55760  0.77813  0.80898  1.0000
  C   C5107     1.0  0.67296  0.61694  0.87153  1.0000
  C   C5108     1.0  0.71153  0.77614  0.78177  1.0000
  H   H4077     1.0  0.96513  0.63075  0.95905  1.0000
  H   H4078     1.0  0.62363  0.62798  0.90463  1.0000
  C   C5109     1.0  0.65599  0.61754  0.86495  1.0000
  H   H4079     1.0  0.68673  0.61473  0.86210  1.0000
  H   H4080     1.0  0.71562  0.58726  0.86336  1.0000
  C   C5110     1.0  0.96830  0.76294  0.53371  1.0000
  C   C5111     1.0  0.60557  0.78076  0.88861  1.0000
  H   H4081     1.0  0.84691  0.76177  0.71166  1.0000
  C   C5112     1.0  0.66199  0.77079  0.67444  1.0000
  H   H4082     1.0  0.74269  0.62517  0.96840  1.0000
  C   C5113     1.0  0.86732  0.59195  0.89709  1.0000
  H   H4083     1.0  0.82248  0.77369  0.62455  1.0000
  C   C5114     1.0  0.79062  0.76926  0.75527  1.0000
  H   H4084     1.0  0.61729  0.59750  0.90791  1.0000
  P   P173      1.0  0.75891  0.76760  0.73976  1.0000
  C   C5115     1.0  0.76040  0.76596  0.56825  1.0000
  H   H4085     1.0  0.56344  0.58382  0.88414  1.0000
  H   H4086     1.0  0.80641  0.60084  0.82999  1.0000
  H   H4087     1.0  0.96326  0.75747  0.50749  1.0000
  H   H4088     1.0  0.74913  0.76691  0.67461  1.0000
  C   C5116     1.0  0.88839  0.59170  0.65207  1.0000
  Fe  Fe343     1.0  0.87287  0.77594  0.64759  1.0000
  C   C5117     1.0  0.74816  0.67127  0.96331  1.0000
  C   C5118     1.0  0.51455  0.76645  0.84290  1.0000
  C   C5119     1.0  0.94102  0.58519  0.58338  1.0000
  H   H4089     1.0  0.78363  0.58336  0.75701  1.0000
  C   C5120     1.0  0.89426  0.58379  0.74490  1.0000
  C   C5121     1.0  0.71868  0.77543  0.74258  1.0000
  C   C5122     1.0  0.62492  0.59738  0.81338  1.0000
  H   H4090     1.0  0.72090  0.77537  0.72746  1.0000
  C   C5123     1.0  0.72452  0.59362  0.83274  1.0000
  C   C5124     1.0  0.75352  0.76724  0.70292  1.0000
  C   C5125     1.0  0.93267  0.59446  0.94680  1.0000
  H   H4091     1.0  0.52260  0.70442  0.87982  1.0000
  C   C5126     1.0  0.87986  0.59225  0.68600  1.0000
  C   C5127     1.0  0.66383  0.73701  0.96034  1.0000
  C   C5128     1.0  0.49771  0.75875  0.82103  1.0000
  H   H4092     1.0  0.71009  0.59950  0.83001  1.0000
  H   H4093     1.0  0.87236  0.59952  0.69769  1.0000
  C   C5129     1.0  0.75462  0.77416  0.68328  1.0000
  C   C5130     1.0  0.94985  0.77616  0.60858  1.0000
  C   C5131     1.0  0.49548  0.73247  0.78041  1.0000
  C   C5132     1.0  0.88537  0.58244  0.90110  1.0000
  Fe  Fe344     1.0  0.89415  0.78020  0.60662  1.0000
  H   H4094     1.0  0.94023  0.77705  0.58248  1.0000
  H   H4095     1.0  0.68786  0.76794  0.52251  1.0000
  C   C5133     1.0  0.96489  0.77613  0.54599  1.0000
  C   C5134     1.0  0.69975  0.77892  0.75246  1.0000
  C   C5135     1.0  0.72763  0.58680  0.85151  1.0000
  H   H4096     1.0  0.98781  0.72278  0.57716  1.0000
  H   H4097     1.0  0.74212  0.77003  0.77991  1.0000
  H   H4098     1.0  0.92914  0.69676  0.97497  1.0000
  S   S688      1.0  0.64554  0.77664  0.75753  1.0000
  C   C5136     1.0  0.74557  0.77843  0.57749  1.0000
  H   H4099     1.0  0.77056  0.58542  0.80899  1.0000
  H   H4100     1.0  0.70873  0.77625  0.79700  1.0000
  C   C5137     1.0  0.83669  0.77932  0.58596  1.0000
  H   H4101     1.0  0.95936  0.77976  0.63346  1.0000
  C   C5138     1.0  0.69616  0.77930  0.77202  1.0000
  C   C5139     1.0  0.77306  0.77911  0.75000  1.0000
  C   C5140     1.0  0.80134  0.77821  0.76339  1.0000
  C   C5141     1.0  0.76589  0.77918  0.59963  1.0000
  C   C5142     1.0  0.49268  0.73100  0.91131  1.0000
  C   C5143     1.0  0.81689  0.78147  0.58613  1.0000
  H   H4102     1.0  0.82147  0.58253  0.73934  1.0000
  H   H4103     1.0  0.68775  0.78127  0.74501  1.0000
  H   H4104     1.0  0.68824  0.78153  0.55090  1.0000
  Fe  Fe345     1.0  0.52905  0.85259  0.36726  1.0000
  S   S689      1.0  0.51457  0.84017  0.39637  1.0000
  S   S690      1.0  0.55959  0.83988  0.35627  1.0000
  S   S691      1.0  0.83660  0.90544  0.44016  1.0000
  S   S692      1.0  0.52730  0.88132  0.37483  1.0000
  C   C5144     1.0  0.71379  0.81121  0.45842  1.0000
  S   S693      1.0  0.86377  0.82238  0.06499  1.0000
  S   S694      1.0  0.82005  0.82814  0.15494  1.0000
  S   S695      1.0  0.82546  0.80779  0.10847  1.0000
  Fe  Fe346     1.0  0.96326  0.90015  0.07301  1.0000
  S   S696      1.0  0.95816  0.91014  0.04286  1.0000
  S   S697      1.0  0.95844  0.92029  0.09407  1.0000
  Fe  Fe347     1.0  0.94440  0.88409  0.04800  1.0000
  S   S698      1.0  0.91644  0.88615  0.03806  1.0000
  S   S699      1.0  0.94749  0.87531  0.07874  1.0000
  Fe  Fe348     1.0  0.83477  0.91188  0.46938  1.0000
  Fe  Fe349     1.0  0.83942  0.89565  0.22077  1.0000
  S   S700      1.0  0.81095  0.91457  0.21736  1.0000
  S   S701      1.0  0.85118  0.86694  0.21057  1.0000
  Fe  Fe350     1.0  0.85055  0.92334  0.24230  1.0000
  S   S702      1.0  0.82309  0.94421  0.24000  1.0000
  S   S703      1.0  0.87286  0.92519  0.25949  1.0000
  Fe  Fe351     1.0  0.80884  0.91831  0.24765  1.0000
  S   S704      1.0  0.78154  0.92005  0.26964  1.0000
  Fe  Fe352     1.0  0.82769  0.93871  0.21004  1.0000
  S   S705      1.0  0.82135  0.96262  0.18560  1.0000
  S   S706      1.0  0.83599  0.89752  0.25191  1.0000
  S   S707      1.0  0.85655  0.91969  0.21137  1.0000
  H   H4105     1.0  0.54067  0.82711  0.33057  1.0000
  H   H4106     1.0  0.88361  0.94450  0.22191  1.0000
  Fe  Fe353     1.0  0.75234  0.84748  0.36012  1.0000
  S   S708      1.0  0.75727  0.82131  0.38270  1.0000
  S   S709      1.0  0.77765  0.84805  0.33587  1.0000
  Fe  Fe354     1.0  0.71276  0.86164  0.38207  1.0000
  S   S710      1.0  0.71571  0.83676  0.40600  1.0000
  S   S711      1.0  0.68340  0.88043  0.38498  1.0000
  Fe  Fe355     1.0  0.74600  0.84200  0.40314  1.0000
  S   S712      1.0  0.75744  0.84604  0.42869  1.0000
  Fe  Fe356     1.0  0.72659  0.81916  0.38265  1.0000
  C   C5145     1.0  0.92264  0.78296  0.07984  1.0000
  S   S713      1.0  0.74214  0.86823  0.38050  1.0000
  S   S714      1.0  0.72252  0.84395  0.35872  1.0000
  H   H4107     1.0  0.52617  0.78974  0.28395  1.0000
  H   H4108     1.0  0.50141  0.91529  0.43925  1.0000
  C   C5146     1.0  0.93100  0.94086  0.20195  1.0000
  C   C5147     1.0  0.49412  0.79793  0.23579  1.0000
  H   H4109     1.0  0.80220  0.87380  0.45213  1.0000
  S   S715      1.0  0.83998  0.84970  0.44437  1.0000
  S   S716      1.0  0.87841  0.87895  0.44718  1.0000
  C   C5148     1.0  0.78095  0.84861  0.43032  1.0000
  C   C5149     1.0  0.78293  0.86231  0.44044  1.0000
  C   C5150     1.0  0.80103  0.86336  0.44408  1.0000
  C   C5151     1.0  0.81737  0.85034  0.43807  1.0000
  C   C5152     1.0  0.81548  0.83675  0.42774  1.0000
  C   C5153     1.0  0.79741  0.83596  0.42377  1.0000
  H   H4110     1.0  0.89596  0.83876  0.45390  1.0000
  H   H4111     1.0  0.96540  0.94037  0.99199  1.0000
  H   H4112     1.0  0.82800  0.82657  0.42308  1.0000
  H   H4113     1.0  0.79607  0.82505  0.41637  1.0000
  C   C5154     1.0  0.67660  0.89115  0.40556  1.0000
  C   C5155     1.0  0.69027  0.89675  0.41318  1.0000
  C   C5156     1.0  0.68429  0.90717  0.42827  1.0000
  C   C5157     1.0  0.66471  0.91145  0.43624  1.0000
  C   C5158     1.0  0.65118  0.90493  0.42929  1.0000
  C   C5159     1.0  0.65708  0.89512  0.41379  1.0000
  H   H4114     1.0  0.70537  0.89371  0.40697  1.0000
  H   H4115     1.0  0.69482  0.91215  0.43360  1.0000
  H   H4116     1.0  0.63604  0.90840  0.43512  1.0000
  H   H4117     1.0  0.64641  0.89069  0.40819  1.0000
  C   C5160     1.0  0.78148  0.90041  0.28856  1.0000
  C   C5161     1.0  0.76971  0.90240  0.30634  1.0000
  C   C5162     1.0  0.76852  0.88642  0.32114  1.0000
  C   C5163     1.0  0.77916  0.86851  0.31813  1.0000
  C   C5164     1.0  0.79131  0.86668  0.30057  1.0000
  C   C5165     1.0  0.79242  0.88258  0.28578  1.0000
  H   H4118     1.0  0.76121  0.91620  0.30849  1.0000
  H   H4119     1.0  0.75914  0.88783  0.33471  1.0000
  H   H4120     1.0  0.79963  0.85283  0.29830  1.0000
  H   H4121     1.0  0.80131  0.88091  0.27204  1.0000
  C   C5166     1.0  0.51012  0.79552  0.33276  1.0000
  H   H4122     1.0  0.80399  0.93787  0.28485  1.0000
  H   H4123     1.0  0.85894  0.78436  0.05053  1.0000
  C   C5167     1.0  0.75756  0.80330  0.33669  1.0000
  C   C5168     1.0  0.73172  0.78920  0.42998  1.0000
  H   H4124     1.0  0.70342  0.78431  0.43008  1.0000
  H   H4125     1.0  0.91943  0.90936  0.45281  1.0000
  H   H4126     1.0  0.88312  0.97884  0.18652  1.0000
  P   P174      1.0  0.97778  0.78357  0.14757  1.0000
  C   C5169     1.0  0.89200  0.97431  0.27780  1.0000
  C   C5170     1.0  0.86891  0.96357  0.26392  1.0000
  C   C5171     1.0  0.87891  0.94462  0.26696  1.0000
  C   C5172     1.0  0.89505  0.94066  0.27582  1.0000
  C   C5173     1.0  0.90168  0.95533  0.28089  1.0000
  C   C5174     1.0  0.88988  0.95265  0.37937  1.0000
  H   H4127     1.0  0.92525  0.97479  0.24762  1.0000
  H   H4128     1.0  0.90299  0.92617  0.27813  1.0000
  H   H4129     1.0  0.91486  0.95201  0.28661  1.0000
  C   C5175     1.0  0.95235  0.94499  0.08488  1.0000
  C   C5176     1.0  0.94415  0.95793  0.09742  1.0000
  C   C5177     1.0  0.56322  0.81190  0.43840  1.0000
  C   C5178     1.0  0.58096  0.79447  0.31832  1.0000
  C   C5179     1.0  0.95522  0.95189  0.06518  1.0000
  H   H4130     1.0  0.94167  0.95282  0.11262  1.0000
  H   H4131     1.0  0.55320  0.80233  0.30969  1.0000
  C   C5180     1.0  0.82918  0.83867  0.17030  1.0000
  C   C5181     1.0  0.84649  0.83057  0.17684  1.0000
  C   C5182     1.0  0.85282  0.83923  0.18942  1.0000
  C   C5183     1.0  0.84221  0.85632  0.19523  1.0000
  C   C5184     1.0  0.82488  0.86434  0.18876  1.0000
  C   C5185     1.0  0.81831  0.85540  0.17662  1.0000
  H   H4132     1.0  0.85494  0.81761  0.17229  1.0000
  H   H4133     1.0  0.86621  0.83283  0.19441  1.0000
  H   H4134     1.0  0.81639  0.87729  0.19331  1.0000
  H   H4135     1.0  0.80469  0.86147  0.17210  1.0000
  C   C5186     1.0  0.87845  0.84006  0.05917  1.0000
  C   C5187     1.0  0.89458  0.83850  0.06756  1.0000
  C   C5188     1.0  0.90633  0.85272  0.06158  1.0000
  C   C5189     1.0  0.90198  0.86835  0.04709  1.0000
  C   C5190     1.0  0.88573  0.86988  0.03900  1.0000
  C   C5191     1.0  0.87414  0.85578  0.04490  1.0000
  H   H4136     1.0  0.89813  0.82625  0.07839  1.0000
  H   H4137     1.0  0.91893  0.85138  0.06784  1.0000
  H   H4138     1.0  0.88229  0.88186  0.02779  1.0000
  H   H4139     1.0  0.86179  0.85702  0.03827  1.0000
  C   C5192     1.0  0.53417  0.88377  0.43665  1.0000
  C   C5193     1.0  0.96960  0.95412  0.99079  1.0000
  C   C5194     1.0  0.71188  0.79095  0.43651  1.0000
  C   C5195     1.0  0.79060  0.80409  0.32107  1.0000
  C   C5196     1.0  0.75128  0.81338  0.31986  1.0000
  C   C5197     1.0  0.93845  0.83072  0.03078  1.0000
  H   H4140     1.0  0.65245  0.94797  0.40407  1.0000
  S   S717      1.0  0.50195  0.86065  0.35476  1.0000
  H   H4141     1.0  0.76901  0.89009  0.40613  1.0000
  C   C5198     1.0  0.58565  0.81208  0.34115  1.0000
  C   C5199     1.0  0.56691  0.82238  0.34172  1.0000
  C   C5200     1.0  0.55512  0.81900  0.33031  1.0000
  C   C5201     1.0  0.56731  0.82735  0.40519  1.0000
  H   H4142     1.0  0.94302  0.93057  0.19646  1.0000
  H   H4143     1.0  0.59501  0.81496  0.34955  1.0000
  C   C5202     1.0  0.89909  0.86516  0.18615  1.0000
  C   C5203     1.0  0.91064  0.85032  0.17738  1.0000
  C   C5204     1.0  0.91809  0.85381  0.15783  1.0000
  C   C5205     1.0  0.91362  0.87203  0.14689  1.0000
  C   C5206     1.0  0.90119  0.88678  0.15545  1.0000
  C   C5207     1.0  0.89461  0.88337  0.17531  1.0000
  P   P175      1.0  0.89554  0.91063  0.14189  1.0000
  C   C5208     1.0  0.87024  0.92079  0.14664  1.0000
  C   C5209     1.0  0.91086  0.92433  0.14762  1.0000
  C   C5210     1.0  0.90333  0.94059  0.15615  1.0000
  C   C5211     1.0  0.91578  0.95144  0.15932  1.0000
  C   C5212     1.0  0.72117  0.87742  0.46511  1.0000
  C   C5213     1.0  0.83477  0.79133  0.47075  1.0000
  C   C5214     1.0  0.93090  0.91874  0.14302  1.0000
  C   C5215     1.0  0.86385  0.93956  0.13770  1.0000
  C   C5216     1.0  0.84421  0.94725  0.13999  1.0000
  C   C5217     1.0  0.83078  0.93631  0.15128  1.0000
  C   C5218     1.0  0.83697  0.91763  0.16021  1.0000
  C   C5219     1.0  0.85658  0.90981  0.15779  1.0000
  C   C5220     1.0  0.90090  0.91148  0.11633  1.0000
  C   C5221     1.0  0.89651  0.89738  0.10837  1.0000
  C   C5222     1.0  0.90051  0.89817  0.08857  1.0000
  C   C5223     1.0  0.90853  0.91333  0.07656  1.0000
  C   C5224     1.0  0.91209  0.92791  0.08428  1.0000
  C   C5225     1.0  0.90830  0.92704  0.10408  1.0000
  H   H4144     1.0  0.89342  0.86255  0.20137  1.0000
  C   C5226     1.0  0.55196  0.89023  0.45902  1.0000
  H   H4145     1.0  0.66816  0.96726  0.45017  1.0000
  H   H4146     1.0  0.92001  0.87455  0.13188  1.0000
  H   H4147     1.0  0.88579  0.89474  0.18245  1.0000
  H   H4148     1.0  0.88796  0.94511  0.16015  1.0000
  C   C5227     1.0  0.52632  0.80155  0.23713  1.0000
  H   H4149     1.0  0.54181  0.79755  0.23322  1.0000
  H   H4150     1.0  0.95868  0.92528  0.14235  1.0000
  H   H4151     1.0  0.93700  0.90645  0.13608  1.0000
  H   H4152     1.0  0.87407  0.94828  0.12894  1.0000
  S   S718      1.0  0.98544  0.82712  0.07765  1.0000
  H   H4153     1.0  0.81561  0.94252  0.15358  1.0000
  H   H4154     1.0  0.82656  0.90923  0.16919  1.0000
  H   H4155     1.0  0.86080  0.89518  0.16459  1.0000
  H   H4156     1.0  0.89013  0.88575  0.11746  1.0000
  H   H4157     1.0  0.89746  0.88706  0.08243  1.0000
  C   C5228     1.0  0.84291  0.89231  0.37729  1.0000
  H   H4158     1.0  0.68752  0.80317  0.45544  1.0000
  H   H4159     1.0  0.91133  0.93846  0.10972  1.0000
  H   H4160     1.0  0.91089  0.92125  0.20875  1.0000
  C   C5229     1.0  0.76675  0.90451  0.37728  1.0000
  C   C5230     1.0  0.77581  0.90665  0.35811  1.0000
  C   C5231     1.0  0.79416  0.89617  0.35286  1.0000
  C   C5232     1.0  0.83872  0.87635  0.30234  1.0000
  C   C5233     1.0  0.83037  0.87185  0.32158  1.0000
  H   H4161     1.0  0.75228  0.91215  0.38127  1.0000
  H   H4162     1.0  0.76843  0.91605  0.34720  1.0000
  H   H4163     1.0  0.80068  0.89779  0.33787  1.0000
  H   H4164     1.0  0.83315  0.87221  0.29147  1.0000
  H   H4165     1.0  0.81843  0.86410  0.32543  1.0000
  H   H4166     1.0  0.85612  0.91002  0.38900  1.0000
  H   H4167     1.0  0.79781  0.97010  0.32937  1.0000
  C   C5234     1.0  0.78129  0.91298  0.14159  1.0000
  Fe  Fe357     1.0  0.85667  0.80496  0.09444  1.0000
  C   C5235     1.0  0.92905  0.80012  0.03257  1.0000
  Fe  Fe358     1.0  0.83654  0.80668  0.13553  1.0000
  C   C5236     1.0  0.55665  0.90667  0.44630  1.0000
  C   C5237     1.0  0.57348  0.80945  0.39960  1.0000
  C   C5238     1.0  0.93246  0.96907  0.46384  1.0000
  H   H4168     1.0  0.49291  0.83155  0.26249  1.0000
  H   H4169     1.0  0.78946  0.80603  0.22274  1.0000
  C   C5239     1.0  0.92508  0.93652  0.40825  1.0000
  Fe  Fe359     1.0  0.97601  0.85858  0.06734  1.0000
  C   C5240     1.0  0.77616  0.89212  0.39129  1.0000
  H   H4170     1.0  0.82622  0.79005  0.36946  1.0000
  C   C5241     1.0  0.78436  0.81408  0.30415  1.0000
  C   C5242     1.0  0.56223  0.80510  0.31847  1.0000
  H   H4171     1.0  0.69314  0.80667  0.32161  1.0000
  C   C5243     1.0  0.49419  0.78657  0.41215  1.0000
  H   H4172     1.0  0.94322  0.84056  0.11032  1.0000
  S   S719      1.0  0.60166  0.94441  0.47266  1.0000
  C   C5244     1.0  0.77526  0.81654  0.24874  1.0000
  H   H4173     1.0  0.54904  0.79193  0.38765  1.0000
  H   H4174     1.0  0.96103  0.86328  0.11715  1.0000
  H   H4175     1.0  0.95255  0.97662  0.04282  1.0000
  H   H4176     1.0  0.73597  0.81700  0.31976  1.0000
  H   H4177     1.0  0.89999  0.94251  0.37158  1.0000
  C   C5245     1.0  0.86436  0.86140  0.39819  1.0000
  C   C5246     1.0  0.84198  0.87354  0.37604  1.0000
  H   H4178     1.0  0.87213  0.84948  0.40688  1.0000
  C   C5247     1.0  0.85618  0.97118  0.18603  1.0000
  C   C5248     1.0  0.71601  0.84441  0.47481  1.0000
  H   H4179     1.0  0.92879  0.93502  0.39335  1.0000
  C   C5249     1.0  0.82637  0.80520  0.36783  1.0000
  H   H4180     1.0  0.85519  0.80343  0.35159  1.0000
  C   C5250     1.0  0.92811  0.83891  0.01600  1.0000
  C   C5251     1.0  0.67624  0.84438  0.45159  1.0000
  C   C5252     1.0  0.62356  0.95533  0.41913  1.0000
  H   H4181     1.0  0.74257  0.81589  0.45776  1.0000
  C   C5253     1.0  0.94531  0.79091  0.17528  1.0000
  C   C5254     1.0  0.78993  0.92609  0.12702  1.0000
  H   H4182     1.0  0.83940  0.96182  0.13329  1.0000
  H   H4183     1.0  0.49778  0.94870  0.44398  1.0000
  C   C5255     1.0  0.67851  0.83739  0.47068  1.0000
  H   H4184     1.0  0.91396  0.83619  0.18581  1.0000
  H   H4185     1.0  0.49223  0.96195  0.33942  1.0000
  C   C5256     1.0  0.79465  0.88193  0.38614  1.0000
  H   H4186     1.0  0.55387  0.92404  0.41866  1.0000
  H   H4187     1.0  0.98727  0.79956  0.04024  1.0000
  C   C5257     1.0  0.57396  0.79258  0.41337  1.0000
  H   H4188     1.0  0.55779  0.97336  0.36206  1.0000
  C   C5258     1.0  0.91400  0.94024  0.44665  1.0000
  C   C5259     1.0  0.59916  0.94250  0.41026  1.0000
  C   C5260     1.0  0.61310  0.93370  0.39664  1.0000
  C   C5261     1.0  0.63231  0.93607  0.39420  1.0000
  P   P176      1.0  0.60640  0.91829  0.38371  1.0000
  C   C5262     1.0  0.58322  0.92931  0.37723  1.0000
  C   C5263     1.0  0.62433  0.91571  0.36236  1.0000
  C   C5264     1.0  0.64099  0.90170  0.36332  1.0000
  C   C5265     1.0  0.65528  0.89997  0.34713  1.0000
  C   C5266     1.0  0.65314  0.91227  0.32981  1.0000
  C   C5267     1.0  0.63669  0.92639  0.32872  1.0000
  C   C5268     1.0  0.62234  0.92815  0.34493  1.0000
  C   C5269     1.0  0.57897  0.94926  0.37132  1.0000
  C   C5270     1.0  0.56101  0.95796  0.36648  1.0000
  C   C5271     1.0  0.54714  0.94683  0.36755  1.0000
  C   C5272     1.0  0.55120  0.92702  0.37349  1.0000
  C   C5273     1.0  0.56913  0.91826  0.37837  1.0000
  C   C5274     1.0  0.60480  0.89504  0.39858  1.0000
  C   C5275     1.0  0.60559  0.87919  0.39013  1.0000
  C   C5276     1.0  0.60327  0.86137  0.40149  1.0000
  C   C5277     1.0  0.60007  0.85926  0.42141  1.0000
  C   C5278     1.0  0.59935  0.87494  0.42994  1.0000
  C   C5279     1.0  0.60183  0.89272  0.41859  1.0000
  C   C5280     1.0  0.93836  0.98057  0.24182  1.0000
  H   H4189     1.0  0.80097  0.89805  0.47274  1.0000
  H   H4190     1.0  0.51499  0.80373  0.31890  1.0000
  H   H4191     1.0  0.58434  0.94048  0.41278  1.0000
  H   H4192     1.0  0.64352  0.92904  0.38425  1.0000
  H   H4193     1.0  0.64317  0.89227  0.37668  1.0000
  H   H4194     1.0  0.66823  0.88930  0.34822  1.0000
  H   H4195     1.0  0.66435  0.91097  0.31734  1.0000
  H   H4196     1.0  0.63514  0.93611  0.31534  1.0000
  H   H4197     1.0  0.60984  0.93929  0.34378  1.0000
  H   H4198     1.0  0.58951  0.95811  0.37058  1.0000
  H   H4199     1.0  0.53644  0.86671  0.46454  1.0000
  H   H4200     1.0  0.53317  0.95355  0.36392  1.0000
  H   H4201     1.0  0.54034  0.91844  0.37451  1.0000
  H   H4202     1.0  0.57173  0.90292  0.38327  1.0000
  H   H4203     1.0  0.60768  0.88076  0.37475  1.0000
  H   H4204     1.0  0.60374  0.84923  0.39487  1.0000
  H   H4205     1.0  0.59798  0.84554  0.43025  1.0000
  H   H4206     1.0  0.59646  0.87352  0.44539  1.0000
  H   H4207     1.0  0.60105  0.90462  0.42562  1.0000
  H   H4208     1.0  0.87343  0.89917  0.30694  1.0000
  C   C5281     1.0  0.70278  0.80709  0.27988  1.0000
  C   C5282     1.0  0.83750  0.87710  0.33580  1.0000
  H   H4209     1.0  0.91201  0.79967  0.01167  1.0000
  C   C5283     1.0  0.71088  0.86319  0.46504  1.0000
  H   H4210     1.0  0.75800  0.79709  0.43258  1.0000
  C   C5284     1.0  0.95019  0.97152  0.05807  1.0000
  H   H4211     1.0  0.85650  0.96689  0.25697  1.0000
  C   C5285     1.0  0.54059  0.87898  0.45429  1.0000
  H   H4212     1.0  0.94759  0.96329  0.19670  1.0000
  C   C5286     1.0  0.82652  0.84454  0.36351  1.0000
  C   C5287     1.0  0.79875  0.95465  0.30707  1.0000
  H   H4213     1.0  0.91153  0.79443  0.07497  1.0000
  H   H4214     1.0  0.55684  0.84248  0.42885  1.0000
  H   H4215     1.0  0.66035  0.79337  0.37565  1.0000
  C   C5288     1.0  0.73379  0.80889  0.45216  1.0000
  C   C5289     1.0  0.93896  0.81141  0.03905  1.0000
  C   C5290     1.0  0.89237  0.83141  0.46848  1.0000
  C   C5291     1.0  0.70294  0.80179  0.45076  1.0000
  H   H4216     1.0  0.71692  0.89190  0.45782  1.0000
  C   C5292     1.0  0.98604  0.95489  0.99756  1.0000
  C   C5293     1.0  0.77721  0.79871  0.33732  1.0000
  C   C5294     1.0  0.89441  0.95897  0.32561  1.0000
  C   C5295     1.0  0.86406  0.97889  0.39955  1.0000
  C   C5296     1.0  0.87963  0.94611  0.39746  1.0000
  C   C5297     1.0  0.93348  0.95944  0.20199  1.0000
  H   H4217     1.0  0.74716  0.79925  0.34935  1.0000
  H   H4218     1.0  0.94701  0.80542  0.05054  1.0000
  S   S720      1.0  0.86442  0.91908  0.46385  1.0000
  C   C5298     1.0  0.80673  0.96030  0.32037  1.0000
  H   H4219     1.0  0.91058  0.83405  0.99772  1.0000
  C   C5299     1.0  0.86888  0.97127  0.44990  1.0000
  C   C5300     1.0  0.63748  0.94691  0.40539  1.0000
  H   H4220     1.0  0.76833  0.91787  0.15121  1.0000
  C   C5301     1.0  0.66605  0.96711  0.46541  1.0000
  C   C5302     1.0  0.84876  0.97568  0.45301  1.0000
  C   C5303     1.0  0.92687  0.78869  0.18538  1.0000
  H   H4221     1.0  0.52809  0.82249  0.25329  1.0000
  C   C5304     1.0  0.65806  0.85252  0.44714  1.0000
  C   C5305     1.0  0.91964  0.92204  0.44173  1.0000
  S   S721      1.0  0.97187  0.86586  0.03679  1.0000
  C   C5306     1.0  0.81017  0.81726  0.37566  1.0000
  Fe  Fe360     1.0  0.84738  0.87519  0.45322  1.0000
  C   C5307     1.0  0.91925  0.95475  0.41312  1.0000
  C   C5308     1.0  0.86667  0.86222  0.14275  1.0000
  C   C5309     1.0  0.88075  0.84940  0.13327  1.0000
  C   C5310     1.0  0.88148  0.84961  0.11391  1.0000
  C   C5311     1.0  0.86776  0.86223  0.10418  1.0000
  C   C5312     1.0  0.85302  0.87449  0.11385  1.0000
  C   C5313     1.0  0.85279  0.87468  0.13314  1.0000
  P   P177      1.0  0.83637  0.89170  0.10079  1.0000
  C   C5314     1.0  0.81501  0.90026  0.11687  1.0000
  C   C5315     1.0  0.84940  0.91051  0.08778  1.0000
  C   C5316     1.0  0.85164  0.92474  0.09702  1.0000
  C   C5317     1.0  0.86123  0.93965  0.08681  1.0000
  C   C5318     1.0  0.86911  0.94014  0.06742  1.0000
  C   C5319     1.0  0.86786  0.92543  0.05839  1.0000
  C   C5320     1.0  0.85817  0.91058  0.06855  1.0000
  C   C5321     1.0  0.80658  0.91975  0.11452  1.0000
  C   C5322     1.0  0.95415  0.83536  0.11921  1.0000
  H   H4222     1.0  0.80508  0.92715  0.41545  1.0000
  C   C5323     1.0  0.78918  0.89348  0.14355  1.0000
  C   C5324     1.0  0.80596  0.88711  0.13124  1.0000
  C   C5325     1.0  0.82759  0.88160  0.08449  1.0000
  C   C5326     1.0  0.82850  0.86176  0.08673  1.0000
  C   C5327     1.0  0.82156  0.85434  0.07388  1.0000
  C   C5328     1.0  0.81351  0.86657  0.05891  1.0000
  C   C5329     1.0  0.81207  0.88636  0.05691  1.0000
  C   C5330     1.0  0.81894  0.89387  0.06974  1.0000
  H   H4223     1.0  0.86652  0.86252  0.15756  1.0000
  H   H4224     1.0  0.89118  0.83944  0.14089  1.0000
  H   H4225     1.0  0.89266  0.83994  0.10649  1.0000
  H   H4226     1.0  0.86861  0.86250  0.08910  1.0000
  H   H4227     1.0  0.84199  0.88443  0.14081  1.0000
  H   H4228     1.0  0.84597  0.92425  0.11212  1.0000
  H   H4229     1.0  0.86290  0.95064  0.09397  1.0000
  H   H4230     1.0  0.87686  0.95149  0.05960  1.0000
  H   H4231     1.0  0.87481  0.92523  0.04362  1.0000
  H   H4232     1.0  0.85782  0.89905  0.06142  1.0000
  H   H4233     1.0  0.81265  0.93007  0.10296  1.0000
  H   H4234     1.0  0.78223  0.88325  0.15455  1.0000
  H   H4235     1.0  0.81184  0.87189  0.13289  1.0000
  H   H4236     1.0  0.83457  0.85195  0.09828  1.0000
  H   H4237     1.0  0.82271  0.83900  0.07531  1.0000
  S   S722      1.0  0.71556  0.79157  0.38368  1.0000
  H   H4238     1.0  0.80569  0.89586  0.04538  1.0000
  H   H4239     1.0  0.81763  0.90925  0.06808  1.0000
  C   C5331     1.0  0.73542  0.88237  0.30078  1.0000
  C   C5332     1.0  0.73681  0.89590  0.28389  1.0000
  C   C5333     1.0  0.74387  0.88990  0.26633  1.0000
  C   C5334     1.0  0.74955  0.87038  0.26564  1.0000
  C   C5335     1.0  0.74886  0.85671  0.28262  1.0000
  C   C5336     1.0  0.74162  0.86286  0.30020  1.0000
  P   P178      1.0  0.75618  0.83148  0.28162  1.0000
  C   C5337     1.0  0.77523  0.82894  0.26110  1.0000
  C   C5338     1.0  0.56937  0.79395  0.43285  1.0000
  C   C5339     1.0  0.89755  0.94866  0.21633  1.0000
  C   C5340     1.0  0.80389  0.82671  0.22828  1.0000
  C   C5341     1.0  0.80405  0.83898  0.24057  1.0000
  C   C5342     1.0  0.78981  0.84009  0.25693  1.0000
  C   C5343     1.0  0.71959  0.83396  0.27323  1.0000
  C   C5344     1.0  0.76462  0.81880  0.30340  1.0000
  H   H4240     1.0  0.95045  0.80612  0.12352  1.0000
  H   H4241     1.0  0.73034  0.88704  0.31445  1.0000
  H   H4242     1.0  0.73305  0.91107  0.28445  1.0000
  H   H4243     1.0  0.74543  0.90045  0.25329  1.0000
  H   H4244     1.0  0.75485  0.86604  0.25185  1.0000
  H   H4245     1.0  0.74113  0.85274  0.31353  1.0000
  H   H4246     1.0  0.81485  0.82600  0.21551  1.0000
  H   H4247     1.0  0.81516  0.84776  0.23730  1.0000
  H   H4248     1.0  0.79004  0.84982  0.26622  1.0000
  H   H4249     1.0  0.71957  0.84910  0.26824  1.0000
  H   H4250     1.0  0.78200  0.79132  0.35053  1.0000
  H   H4251     1.0  0.62797  0.86063  0.45831  1.0000
  H   H4252     1.0  0.76421  0.80782  0.25155  1.0000
  C   C5345     1.0  0.91295  0.93556  0.20889  1.0000
  C   C5346     1.0  0.90010  0.96705  0.21689  1.0000
  C   C5347     1.0  0.80367  0.88364  0.36687  1.0000
  S   S723      1.0  0.56907  0.92262  0.45223  1.0000
  H   H4253     1.0  0.94525  0.95455  0.15663  1.0000
  C   C5348     1.0  0.91861  0.82767  0.00916  1.0000
  H   H4254     1.0  0.92731  0.85405  0.01004  1.0000
  H   H4255     1.0  0.85932  0.89084  0.34097  1.0000
  H   H4256     1.0  0.79721  0.84595  0.37927  1.0000
  H   H4257     1.0  0.85137  0.84344  0.38698  1.0000
  C   C5349     1.0  0.81012  0.83690  0.37339  1.0000
  H   H4258     1.0  0.57764  0.80879  0.38451  1.0000
  H   H4259     1.0  0.85551  0.83796  0.34786  1.0000
  H   H4260     1.0  0.98112  0.98094  0.25394  1.0000
  H   H4261     1.0  0.85873  0.95428  0.42149  1.0000
  H   H4262     1.0  0.53448  0.90375  0.41014  1.0000
  C   C5350     1.0  0.87816  0.82000  0.47319  1.0000
  H   H4263     1.0  0.77032  0.87203  0.44574  1.0000
  C   C5351     1.0  0.86672  0.95927  0.40758  1.0000
  C   C5352     1.0  0.81009  0.94218  0.29524  1.0000
  C   C5353     1.0  0.93570  0.94591  0.15448  1.0000
  H   H4264     1.0  0.94569  0.83950  0.03613  1.0000
  H   H4265     1.0  0.80839  0.86066  0.04889  1.0000
  C   C5354     1.0  0.73677  0.87300  0.47469  1.0000
  C   C5355     1.0  0.91929  0.80826  0.01723  1.0000
  C   C5356     1.0  0.69432  0.79634  0.33462  1.0000
  C   C5357     1.0  0.91790  0.97286  0.20902  1.0000
  S   S724      1.0  0.88315  0.92139  0.40672  1.0000
  H   H4266     1.0  0.78360  0.94117  0.12528  1.0000
  S   S725      1.0  0.51807  0.87045  0.43228  1.0000
  H   H4267     1.0  0.56638  0.84030  0.39447  1.0000
  C   C5358     1.0  0.56197  0.82859  0.42457  1.0000
  H   H4268     1.0  0.90416  0.96888  0.31876  1.0000
  C   C5359     1.0  0.49881  0.80488  0.34734  1.0000
  C   C5360     1.0  0.70319  0.82659  0.27332  1.0000
  C   C5361     1.0  0.73566  0.82186  0.27984  1.0000
  C   C5362     1.0  0.84265  0.81274  0.35778  1.0000
  C   C5363     1.0  0.85317  0.88693  0.33044  1.0000
  H   H4269     1.0  0.85582  0.96158  0.19966  1.0000
  H   H4270     1.0  0.97972  0.78988  0.10535  1.0000
  C   C5364     1.0  0.84276  0.83231  0.35565  1.0000
  C   C5365     1.0  0.97864  0.84130  0.13405  1.0000
  C   C5366     1.0  0.74268  0.79808  0.43788  1.0000
  C   C5367     1.0  0.87160  0.98097  0.17866  1.0000
  H   H4271     1.0  0.65367  0.79702  0.29180  1.0000
  H   H4272     1.0  0.91872  0.96708  0.40174  1.0000
  Fe  Fe361     1.0  0.49886  0.88850  0.36494  1.0000
  C   C5368     1.0  0.59257  0.79819  0.32958  1.0000
  C   C5369     1.0  0.65529  0.80865  0.37289  1.0000
  C   C5370     1.0  0.65669  0.81969  0.38585  1.0000
  C   C5371     1.0  0.65085  0.83953  0.38211  1.0000
  C   C5372     1.0  0.64390  0.84827  0.36525  1.0000
  C   C5373     1.0  0.64288  0.83733  0.35190  1.0000
  C   C5374     1.0  0.64839  0.81734  0.35596  1.0000
  P   P179      1.0  0.63747  0.84968  0.32878  1.0000
  C   C5375     1.0  0.65832  0.85923  0.31482  1.0000
  C   C5376     1.0  0.63207  0.83456  0.31461  1.0000
  C   C5377     1.0  0.61428  0.83846  0.30839  1.0000
  C   C5378     1.0  0.61085  0.82757  0.29623  1.0000
  C   C5379     1.0  0.62497  0.81254  0.29038  1.0000
  C   C5380     1.0  0.64278  0.80877  0.29622  1.0000
  C   C5381     1.0  0.64643  0.81988  0.30808  1.0000
  C   C5382     1.0  0.65863  0.86715  0.29537  1.0000
  C   C5383     1.0  0.67460  0.87474  0.28440  1.0000
  C   C5384     1.0  0.69043  0.87427  0.29272  1.0000
  C   C5385     1.0  0.69037  0.86604  0.31195  1.0000
  C   C5386     1.0  0.67448  0.85845  0.32294  1.0000
  C   C5387     1.0  0.61700  0.86847  0.33304  1.0000
  C   C5388     1.0  0.61710  0.88739  0.32328  1.0000
  C   C5389     1.0  0.60070  0.90146  0.32609  1.0000
  C   C5390     1.0  0.58420  0.89682  0.33880  1.0000
  C   C5391     1.0  0.58414  0.87813  0.34884  1.0000
  C   C5392     1.0  0.60043  0.86397  0.34595  1.0000
  H   H4273     1.0  0.89530  0.97713  0.35747  1.0000
  H   H4274     1.0  0.66275  0.81289  0.39856  1.0000
  H   H4275     1.0  0.65234  0.84820  0.39194  1.0000
  H   H4276     1.0  0.64021  0.86369  0.36218  1.0000
  H   H4277     1.0  0.64796  0.80842  0.34600  1.0000
  H   H4278     1.0  0.60287  0.84972  0.31295  1.0000
  H   H4279     1.0  0.59689  0.83022  0.29201  1.0000
  H   H4280     1.0  0.62194  0.80354  0.28170  1.0000
  C   C5393     1.0  0.91385  0.95677  0.43241  1.0000
  H   H4281     1.0  0.66043  0.81687  0.31223  1.0000
  H   H4282     1.0  0.64648  0.86751  0.28874  1.0000
  H   H4283     1.0  0.67474  0.88092  0.26943  1.0000
  H   H4284     1.0  0.70280  0.88011  0.28420  1.0000
  H   H4285     1.0  0.70265  0.86540  0.31848  1.0000
  H   H4286     1.0  0.67510  0.85190  0.33768  1.0000
  H   H4287     1.0  0.62967  0.89136  0.31341  1.0000
  H   H4288     1.0  0.60070  0.91597  0.31831  1.0000
  H   H4289     1.0  0.57138  0.90763  0.34074  1.0000
  H   H4290     1.0  0.57132  0.87449  0.35864  1.0000
  H   H4291     1.0  0.59992  0.84941  0.35349  1.0000
  H   H4292     1.0  0.83450  0.90440  0.36945  1.0000
  C   C5394     1.0  0.85247  0.85806  0.38691  1.0000
  C   C5395     1.0  0.97338  0.80872  0.13713  1.0000
  H   H4293     1.0  0.49473  0.82035  0.34479  1.0000
  H   H4294     1.0  0.69069  0.83600  0.26855  1.0000
  H   H4295     1.0  0.79757  0.81141  0.38343  1.0000
  H   H4296     1.0  0.91172  0.91396  0.06123  1.0000
  H   H4297     1.0  0.65648  0.85776  0.43236  1.0000
  P   P180      1.0  0.83611  0.96056  0.33955  1.0000
  C   C5396     1.0  0.82608  0.95324  0.32213  1.0000
  C   C5397     1.0  0.86182  0.95259  0.33639  1.0000
  H   H4298     1.0  0.49412  0.97445  0.15044  1.0000
  C   C5398     1.0  0.78955  0.81546  0.23238  1.0000
  C   C5399     1.0  0.90174  0.93982  0.33223  1.0000
  C   C5400     1.0  0.88917  0.92702  0.34100  1.0000
  C   C5401     1.0  0.86928  0.93338  0.34308  1.0000
  C   C5402     1.0  0.83745  0.94092  0.30996  1.0000
  C   C5403     1.0  0.82941  0.93541  0.29662  1.0000
  H   H4299     1.0  0.92737  0.84235  0.15119  1.0000
  H   H4300     1.0  0.79500  0.81829  0.29189  1.0000
  C   C5404     1.0  0.87453  0.96535  0.32754  1.0000
  C   C5405     1.0  0.82588  0.95004  0.36354  1.0000
  C   C5406     1.0  0.80917  0.94188  0.36724  1.0000
  C   C5407     1.0  0.80168  0.93377  0.38592  1.0000
  C   C5408     1.0  0.81082  0.93358  0.40101  1.0000
  C   C5409     1.0  0.82749  0.94151  0.39744  1.0000
  C   C5410     1.0  0.83507  0.94955  0.37881  1.0000
  Fe  Fe362     1.0  0.58781  0.91871  0.47499  1.0000
  H   H4301     1.0  0.68857  0.84366  0.44012  1.0000
  H   H4302     1.0  0.59359  0.95942  0.43234  1.0000
  C   C5411     1.0  0.83311  0.78745  0.45324  1.0000
  C   C5412     1.0  0.65110  0.97994  0.47398  1.0000
  H   H4303     1.0  0.91001  0.96430  0.16536  1.0000
  P   P181      1.0  0.82725  0.86972  0.36062  1.0000
  H   H4304     1.0  0.91715  0.93496  0.33066  1.0000
  H   H4305     1.0  0.89482  0.91223  0.34641  1.0000
  H   H4306     1.0  0.85972  0.92335  0.34996  1.0000
  H   H4307     1.0  0.85256  0.93570  0.31045  1.0000
  H   H4308     1.0  0.83817  0.92599  0.28718  1.0000
  C   C5413     1.0  0.94326  0.92939  0.14659  1.0000
  C   C5414     1.0  0.92520  0.92018  0.42253  1.0000
  C   C5415     1.0  0.55046  0.91128  0.42854  1.0000
  H   H4309     1.0  0.80190  0.94146  0.35590  1.0000
  H   H4310     1.0  0.78882  0.92754  0.38871  1.0000
  H   H4311     1.0  0.78220  0.79469  0.15873  1.0000
  C   C5416     1.0  0.84106  0.97425  0.17602  1.0000
  H   H4312     1.0  0.70765  0.81391  0.34652  1.0000
  C   C5417     1.0  0.64202  0.85407  0.46174  1.0000
  Fe  Fe363     1.0  0.51131  0.86949  0.40332  1.0000
  H   H4313     1.0  0.86081  0.88954  0.28221  1.0000
  H   H4314     1.0  0.84033  0.96428  0.45797  1.0000
  P   P182      1.0  0.90590  0.98015  0.43911  1.0000
  H   H4315     1.0  0.80179  0.87241  0.39717  1.0000
  S   S726      1.0  0.86737  0.80600  0.12082  1.0000
  H   H4316     1.0  0.92906  0.90609  0.41866  1.0000
  H   H4317     1.0  0.96148  0.94214  0.05540  1.0000
  C   C5418     1.0  0.53953  0.89976  0.42362  1.0000
  H   H4318     1.0  0.87516  0.88272  0.40728  1.0000
  C   C5419     1.0  0.86143  0.89149  0.31114  1.0000
  Fe  Fe364     1.0  0.86722  0.90968  0.43576  1.0000
  C   C5420     1.0  0.70268  0.80048  0.34874  1.0000
  C   C5421     1.0  0.85429  0.88610  0.29713  1.0000
  C   C5422     1.0  0.86583  0.88012  0.39870  1.0000
  C   C5423     1.0  0.85503  0.89556  0.38835  1.0000
  H   H4319     1.0  0.50793  0.78711  0.40263  1.0000
  S   S727      1.0  0.65740  0.92628  0.45370  1.0000
  C   C5424     1.0  0.60438  0.95326  0.42143  1.0000
  H   H4320     1.0  0.68996  0.80137  0.28041  1.0000
  C   C5425     1.0  0.71882  0.79491  0.28614  1.0000
  H   H4321     1.0  0.90955  0.94143  0.46157  1.0000
  Fe  Fe365     1.0  0.62910  0.92312  0.47368  1.0000
  H   H4322     1.0  0.91806  0.93979  0.07492  1.0000
  H   H4323     1.0  0.78379  0.95994  0.30582  1.0000
  H   H4324     1.0  0.87065  0.81921  0.46209  1.0000
  H   H4325     1.0  0.55929  0.81292  0.45343  1.0000
  C   C5426     1.0  0.95850  0.81578  0.12647  1.0000
  Fe  Fe366     1.0  0.98625  0.89072  0.03511  1.0000
  H   H4326     1.0  0.87576  0.95646  0.45264  1.0000
  C   C5427     1.0  0.88724  0.97223  0.37136  1.0000
  H   H4327     1.0  0.62776  0.96295  0.42838  1.0000
  H   H4328     1.0  0.69882  0.86711  0.45758  1.0000
  C   C5428     1.0  0.93873  0.97753  0.09034  1.0000
  H   H4329     1.0  0.68894  0.94321  0.46978  1.0000
  H   H4330     1.0  0.60728  0.79107  0.32872  1.0000
  C   C5429     1.0  0.70465  0.78721  0.36561  1.0000
  H   H4331     1.0  0.94217  0.96258  0.45247  1.0000
  C   C5430     1.0  0.91402  0.97907  0.46119  1.0000
  C   C5431     1.0  0.73525  0.80220  0.28601  1.0000
  H   H4332     1.0  0.74743  0.79255  0.29120  1.0000
  H   H4333     1.0  0.55649  0.88657  0.47279  1.0000
  S   S728      1.0  0.61574  0.89793  0.47437  1.0000
  H   H4334     1.0  0.98900  0.95480  0.03754  1.0000
  H   H4335     1.0  0.84821  0.95531  0.37630  1.0000
  C   C5432     1.0  0.49861  0.82065  0.25370  1.0000
  H   H4336     1.0  0.74465  0.88403  0.47492  1.0000
  H   H4337     1.0  0.91537  0.78812  0.10882  1.0000
  C   C5433     1.0  0.96419  0.84813  0.12302  1.0000
  H   H4338     1.0  0.83474  0.94115  0.40910  1.0000
  H   H4339     1.0  0.95192  0.80210  0.17752  1.0000
  C   C5434     1.0  0.51858  0.81558  0.24849  1.0000
  H   H4340     1.0  0.91939  0.79796  0.19551  1.0000
  C   C5435     1.0  0.51410  0.79276  0.23077  1.0000
  H   H4341     1.0  0.88806  0.97652  0.22349  1.0000
  H   H4342     1.0  0.95058  0.96844  0.26714  1.0000
  C   C5436     1.0  0.49272  0.79430  0.36533  1.0000
  C   C5437     1.0  0.98332  0.82167  0.14100  1.0000
  C   C5438     1.0  0.87549  0.97838  0.26927  1.0000
  H   H4343     1.0  0.80579  0.80096  0.32173  1.0000
  C   C5439     1.0  0.95878  0.97094  0.98236  1.0000
  H   H4344     1.0  0.88978  0.79560  0.04423  1.0000
  C   C5440     1.0  0.49187  0.92664  0.43175  1.0000
  S   S729      1.0  0.49175  0.91656  0.34512  1.0000
  H   H4345     1.0  0.53801  0.78983  0.35868  1.0000
  H   H4346     1.0  0.81910  0.79036  0.44906  1.0000
  H   H4347     1.0  0.98664  0.85116  0.13671  1.0000
  C   C5441     1.0  0.95282  0.97678  0.25280  1.0000
  H   H4348     1.0  0.86923  0.98021  0.32208  1.0000
  H   H4349     1.0  0.49820  0.80690  0.42789  1.0000
  H   H4350     1.0  0.52010  0.78198  0.22185  1.0000
  H   H4351     1.0  0.94610  0.97028  0.97703  1.0000
  Fe  Fe367     1.0  0.87320  0.88800  0.47580  1.0000
  Fe  Fe368     1.0  0.50684  0.85771  0.85972  1.0000
  H   H4352     1.0  0.73703  0.79504  0.60013  1.0000
  S   S730      1.0  0.53413  0.83741  0.86540  1.0000
  C   C5442     1.0  0.56356  0.79433  0.83768  1.0000
  C   C5443     1.0  0.95694  0.81712  0.67574  1.0000
  C   C5444     1.0  0.98611  0.82254  0.54799  1.0000
  C   C5445     1.0  0.81969  0.80050  0.52214  1.0000
  C   C5446     1.0  0.74956  0.94924  0.49189  1.0000
  Fe  Fe369     1.0  0.95795  0.90516  0.58922  1.0000
  S   S731      1.0  0.96236  0.88911  0.56514  1.0000
  S   S732      1.0  0.93736  0.89848  0.61688  1.0000
  H   H4353     1.0  0.98723  0.80850  0.51002  1.0000
  C   C5447     1.0  0.64626  0.79985  0.76062  1.0000
  Fe  Fe370     1.0  0.96007  0.91820  0.54659  1.0000
  S   S733      1.0  0.94202  0.92767  0.52283  1.0000
  H   H4354     1.0  0.77766  0.87625  0.48700  1.0000
  S   S734      1.0  0.95406  0.93452  0.57095  1.0000
  Fe  Fe371     1.0  0.86505  0.81336  0.61999  1.0000
  S   S735      1.0  0.87210  0.80647  0.64942  1.0000
  S   S736      1.0  0.84467  0.83890  0.60828  1.0000
  Fe  Fe372     1.0  0.90281  0.80142  0.63467  1.0000
  S   S737      1.0  0.92318  0.81318  0.64648  1.0000
  S   S738      1.0  0.89577  0.81093  0.60535  1.0000
  H   H4355     1.0  0.49682  0.82004  0.89805  1.0000
  C   C5448     1.0  0.70015  0.89425  0.51498  1.0000
  C   C5449     1.0  0.79209  0.89935  0.48656  1.0000
  H   H4356     1.0  0.59308  0.93230  0.58236  1.0000
  C   C5450     1.0  0.95382  0.80132  0.58072  1.0000
  S   S739      1.0  0.55065  0.96789  0.87624  1.0000
  C   C5451     1.0  0.80152  0.81113  0.52790  1.0000
  H   H4357     1.0  0.53664  0.97875  0.83983  1.0000
  H   H4358     1.0  0.57025  0.88505  0.62086  1.0000
  C   C5452     1.0  0.86858  0.94626  0.50851  1.0000
  C   C5453     1.0  0.81344  0.80653  0.70378  1.0000
  Fe  Fe373     1.0  0.63911  0.90278  0.70637  1.0000
  S   S740      1.0  0.65746  0.92522  0.70043  1.0000
  S   S741      1.0  0.61836  0.90229  0.68768  1.0000
  Fe  Fe374     1.0  0.65466  0.88217  0.74245  1.0000
  S   S742      1.0  0.67472  0.90284  0.73940  1.0000
  S   S743      1.0  0.65066  0.85933  0.76868  1.0000
  Fe  Fe375     1.0  0.64962  0.92540  0.73204  1.0000
  S   S744      1.0  0.63862  0.95377  0.74193  1.0000
  Fe  Fe376     1.0  0.68082  0.90061  0.70818  1.0000
  S   S745      1.0  0.71083  0.89540  0.69084  1.0000
  S   S746      1.0  0.62910  0.90498  0.73722  1.0000
  S   S747      1.0  0.66283  0.87800  0.71198  1.0000
  C   C5454     1.0  0.64415  0.84743  0.48080  1.0000
  S   S748      1.0  0.80942  0.92948  0.48515  1.0000
  Fe  Fe377     1.0  0.59721  0.93858  0.50489  1.0000
  S   S749      1.0  0.58124  0.91438  0.50724  1.0000
  C   C5455     1.0  0.83440  0.86797  0.66617  1.0000
  Fe  Fe378     1.0  0.98624  0.93215  0.56806  1.0000
  C   C5456     1.0  0.79843  0.94095  0.54939  1.0000
  Fe  Fe379     1.0  0.61073  0.89590  0.50624  1.0000
  S   S750      1.0  0.61715  0.86692  0.52491  1.0000
  S   S751      1.0  0.62602  0.91972  0.50571  1.0000
  C   C5457     1.0  0.65634  0.79071  0.67097  1.0000
  S   S752      1.0  0.89315  0.87673  0.49775  1.0000
  C   C5458     1.0  0.65210  0.96134  0.62752  1.0000
  S   S753      1.0  0.49535  0.88112  0.87705  1.0000
  C   C5459     1.0  0.67263  0.88950  0.49556  1.0000
  Fe  Fe380     1.0  0.71978  0.88812  0.58826  1.0000
  S   S754      1.0  0.71284  0.86018  0.60560  1.0000
  S   S755      1.0  0.71253  0.91448  0.60154  1.0000
  Fe  Fe381     1.0  0.73745  0.87120  0.55281  1.0000
  S   S756      1.0  0.73240  0.84177  0.56738  1.0000
  S   S757      1.0  0.75108  0.87273  0.52195  1.0000
  Fe  Fe382     1.0  0.70329  0.85677  0.57930  1.0000
  S   S758      1.0  0.67798  0.84267  0.58092  1.0000
  Fe  Fe383     1.0  0.74254  0.84809  0.59190  1.0000
  S   S759      1.0  0.76101  0.82531  0.60969  1.0000
  S   S760      1.0  0.70751  0.88590  0.56313  1.0000
  S   S761      1.0  0.75020  0.87640  0.57625  1.0000
  C   C5460     1.0  0.80721  0.79894  0.57725  1.0000
  C   C5461     1.0  0.78169  0.91543  0.51387  1.0000
  C   C5462     1.0  0.76883  0.90265  0.52229  1.0000
  C   C5463     1.0  0.76737  0.88852  0.51255  1.0000
  C   C5464     1.0  0.77890  0.88701  0.49466  1.0000
  C   C5465     1.0  0.62246  0.97467  0.55010  1.0000
  H   H4359     1.0  0.78263  0.92656  0.52118  1.0000
  H   H4360     1.0  0.75979  0.90398  0.53604  1.0000
  S   S762      1.0  0.63665  0.96688  0.82561  1.0000
  H   H4361     1.0  0.65220  0.92487  0.53278  1.0000
  C   C5466     1.0  0.63483  0.86127  0.53966  1.0000
  C   C5467     1.0  0.64605  0.87434  0.54100  1.0000
  C   C5468     1.0  0.65974  0.86888  0.55331  1.0000
  C   C5469     1.0  0.66193  0.85045  0.56450  1.0000
  C   C5470     1.0  0.65051  0.83764  0.56325  1.0000
  C   C5471     1.0  0.63722  0.84294  0.55082  1.0000
  H   H4362     1.0  0.64421  0.88860  0.53262  1.0000
  H   H4363     1.0  0.66836  0.87897  0.55430  1.0000
  H   H4364     1.0  0.65201  0.82344  0.57189  1.0000
  H   H4365     1.0  0.62858  0.83279  0.54998  1.0000
  H   H4366     1.0  0.97418  0.86093  0.68463  1.0000
  H   H4367     1.0  0.76414  0.85808  0.63264  1.0000
  C   C5472     1.0  0.81715  0.81402  0.56860  1.0000
  H   H4368     1.0  0.96420  0.87633  0.64764  1.0000
  H   H4369     1.0  0.63170  0.84885  0.49213  1.0000
  C   C5473     1.0  0.79633  0.82992  0.51852  1.0000
  C   C5474     1.0  0.71113  0.90057  0.66603  1.0000
  C   C5475     1.0  0.69675  0.91428  0.65831  1.0000
  C   C5476     1.0  0.69731  0.91851  0.63850  1.0000
  C   C5477     1.0  0.71191  0.90866  0.62634  1.0000
  C   C5478     1.0  0.72600  0.89454  0.63403  1.0000
  C   C5479     1.0  0.72587  0.89079  0.65382  1.0000
  H   H4370     1.0  0.68543  0.92199  0.66752  1.0000
  H   H4371     1.0  0.68632  0.92931  0.63257  1.0000
  H   H4372     1.0  0.73712  0.88673  0.62467  1.0000
  H   H4373     1.0  0.73697  0.88008  0.65972  1.0000
  C   C5480     1.0  0.60633  0.92541  0.67975  1.0000
  C   C5481     1.0  0.58628  0.92887  0.68183  1.0000
  C   C5482     1.0  0.57640  0.94740  0.67623  1.0000
  C   C5483     1.0  0.58656  0.96236  0.66774  1.0000
  C   C5484     1.0  0.60667  0.95868  0.66461  1.0000
  C   C5485     1.0  0.61657  0.94031  0.67112  1.0000
  H   H4374     1.0  0.57833  0.91735  0.68835  1.0000
  H   H4375     1.0  0.56084  0.95016  0.67850  1.0000
  H   H4376     1.0  0.51169  0.78324  0.81506  1.0000
  H   H4377     1.0  0.63210  0.93759  0.66925  1.0000
  C   C5486     1.0  0.63653  0.96260  0.80272  1.0000
  H   H4378     1.0  0.78220  0.83814  0.52284  1.0000
  C   C5487     1.0  0.72751  0.92795  0.49324  1.0000
  C   C5488     1.0  0.63754  0.95621  0.76569  1.0000
  C   C5489     1.0  0.64981  0.94389  0.77728  1.0000
  C   C5490     1.0  0.64928  0.94709  0.79578  1.0000
  H   H4379     1.0  0.85780  0.87246  0.61013  1.0000
  H   H4380     1.0  0.64108  0.95307  0.63508  1.0000
  H   H4381     1.0  0.65983  0.93207  0.77192  1.0000
  H   H4382     1.0  0.65875  0.93754  0.80475  1.0000
  C   C5491     1.0  0.82190  0.83445  0.60790  1.0000
  C   C5492     1.0  0.81535  0.81808  0.61906  1.0000
  C   C5493     1.0  0.79657  0.81544  0.61959  1.0000
  C   C5494     1.0  0.78459  0.82877  0.60838  1.0000
  C   C5495     1.0  0.79150  0.84467  0.59655  1.0000
  C   C5496     1.0  0.81001  0.84769  0.59655  1.0000
  H   H4383     1.0  0.82459  0.80769  0.62757  1.0000
  H   H4384     1.0  0.70287  0.93915  0.54472  1.0000
  H   H4385     1.0  0.78263  0.85476  0.58754  1.0000
  H   H4386     1.0  0.81511  0.86025  0.58770  1.0000
  C   C5497     1.0  0.92813  0.91325  0.51659  1.0000
  C   C5498     1.0  0.91730  0.92120  0.50197  1.0000
  C   C5499     1.0  0.90598  0.89124  0.50519  1.0000
  C   C5500     1.0  0.91657  0.88332  0.51999  1.0000
  C   C5501     1.0  0.92757  0.89424  0.52571  1.0000
  H   H4387     1.0  0.91622  0.86865  0.52704  1.0000
  H   H4388     1.0  0.93568  0.88794  0.53708  1.0000
  C   C5502     1.0  0.93264  0.87493  0.62424  1.0000
  C   C5503     1.0  0.93297  0.86319  0.61115  1.0000
  C   C5504     1.0  0.92895  0.84448  0.61780  1.0000
  C   C5505     1.0  0.92533  0.83731  0.63749  1.0000
  C   C5506     1.0  0.92468  0.84921  0.65043  1.0000
  C   C5507     1.0  0.92801  0.86800  0.64385  1.0000
  H   H4389     1.0  0.93608  0.86859  0.59598  1.0000
  H   H4390     1.0  0.92915  0.83543  0.60775  1.0000
  H   H4391     1.0  0.92158  0.84387  0.66562  1.0000
  H   H4392     1.0  0.92745  0.87705  0.65403  1.0000
  H   H4393     1.0  0.81104  0.79990  0.71874  1.0000
  H   H4394     1.0  0.78126  0.84669  0.65989  1.0000
  H   H4395     1.0  0.55366  0.86418  0.64793  1.0000
  H   H4396     1.0  0.53740  0.89551  0.89841  1.0000
  C   C5508     1.0  0.63962  0.80551  0.77843  1.0000
  C   C5509     1.0  0.64107  0.82379  0.78075  1.0000
  C   C5510     1.0  0.64891  0.83662  0.76521  1.0000
  C   C5511     1.0  0.65541  0.83107  0.74735  1.0000
  C   C5512     1.0  0.65429  0.81266  0.74513  1.0000
  H   H4397     1.0  0.54091  0.86672  0.88396  1.0000
  H   H4398     1.0  0.63610  0.82800  0.79462  1.0000
  H   H4399     1.0  0.66174  0.84076  0.73536  1.0000
  C   C5513     1.0  0.51295  0.94061  0.84988  1.0000
  C   C5514     1.0  0.51733  0.93269  0.86807  1.0000
  C   C5515     1.0  0.52845  0.94151  0.87613  1.0000
  C   C5516     1.0  0.53579  0.95798  0.86590  1.0000
  C   C5517     1.0  0.53124  0.96600  0.84779  1.0000
  C   C5518     1.0  0.51970  0.95746  0.83994  1.0000
  H   H4400     1.0  0.49954  0.88373  0.76974  1.0000
  H   H4401     1.0  0.53158  0.93545  0.89029  1.0000
  C   C5519     1.0  0.76523  0.93908  0.56402  1.0000
  H   H4402     1.0  0.51631  0.96375  0.82591  1.0000
  C   C5520     1.0  0.54132  0.82134  0.84932  1.0000
  C   C5521     1.0  0.53605  0.80950  0.82258  1.0000
  C   C5522     1.0  0.53049  0.82248  0.83527  1.0000
  H   H4403     1.0  0.58557  0.85533  0.82879  1.0000
  H   H4404     1.0  0.51766  0.83325  0.83429  1.0000
  H   H4405     1.0  0.98253  0.86188  0.61624  1.0000
  C   C5523     1.0  0.80283  0.87331  0.70709  1.0000
  H   H4406     1.0  0.79129  0.80311  0.62869  1.0000
  C   C5524     1.0  0.56927  0.85018  0.79312  1.0000
  C   C5525     1.0  0.58791  0.84643  0.78272  1.0000
  C   C5526     1.0  0.59645  0.86151  0.77124  1.0000
  C   C5527     1.0  0.58631  0.88032  0.76989  1.0000
  C   C5528     1.0  0.56758  0.88429  0.78030  1.0000
  C   C5529     1.0  0.55925  0.86902  0.79214  1.0000
  P   P183      1.0  0.55459  0.90871  0.77950  1.0000
  C   C5530     1.0  0.55778  0.91706  0.80011  1.0000
  C   C5531     1.0  0.56299  0.92420  0.75747  1.0000
  C   C5532     1.0  0.58121  0.92938  0.75433  1.0000
  C   C5533     1.0  0.58750  0.94195  0.73780  1.0000
  C   C5534     1.0  0.57573  0.94939  0.72410  1.0000
  C   C5535     1.0  0.55762  0.94426  0.72698  1.0000
  C   C5536     1.0  0.55123  0.93174  0.74358  1.0000
  C   C5537     1.0  0.56301  0.93501  0.79841  1.0000
  C   C5538     1.0  0.56557  0.94104  0.81454  1.0000
  C   C5539     1.0  0.56244  0.92946  0.83251  1.0000
  C   C5540     1.0  0.55621  0.91214  0.83445  1.0000
  C   C5541     1.0  0.55403  0.90586  0.81837  1.0000
  C   C5542     1.0  0.52930  0.90834  0.78148  1.0000
  C   C5543     1.0  0.52345  0.89553  0.77286  1.0000
  H   H4407     1.0  0.94439  0.78999  0.49884  1.0000
  H   H4408     1.0  0.89779  0.91661  0.48529  1.0000
  H   H4409     1.0  0.88515  0.88255  0.65368  1.0000
  C   C5544     1.0  0.51530  0.92040  0.79218  1.0000
  H   H4410     1.0  0.56256  0.83850  0.80204  1.0000
  H   H4411     1.0  0.59578  0.83185  0.78354  1.0000
  H   H4412     1.0  0.61097  0.85861  0.76329  1.0000
  H   H4413     1.0  0.59324  0.89158  0.76072  1.0000
  H   H4414     1.0  0.54492  0.87156  0.80056  1.0000
  H   H4415     1.0  0.59051  0.92388  0.76482  1.0000
  H   H4416     1.0  0.60157  0.94585  0.73562  1.0000
  H   H4417     1.0  0.58071  0.95901  0.71119  1.0000
  H   H4418     1.0  0.54858  0.94997  0.71624  1.0000
  H   H4419     1.0  0.53711  0.92808  0.74551  1.0000
  H   H4420     1.0  0.56497  0.94455  0.78482  1.0000
  H   H4421     1.0  0.56984  0.95476  0.81321  1.0000
  H   H4422     1.0  0.56431  0.93418  0.84502  1.0000
  H   H4423     1.0  0.55253  0.90384  0.84850  1.0000
  H   H4424     1.0  0.54892  0.89250  0.82034  1.0000
  H   H4425     1.0  0.53396  0.88622  0.76439  1.0000
  H   H4426     1.0  0.64610  0.88096  0.83378  1.0000
  H   H4427     1.0  0.76385  0.79564  0.65947  1.0000
  H   H4428     1.0  0.51937  0.93043  0.79898  1.0000
  P   P184      1.0  0.81088  0.86098  0.67191  1.0000
  C   C5545     1.0  0.79544  0.87209  0.69114  1.0000
  C   C5546     1.0  0.67443  0.95228  0.49648  1.0000
  C   C5547     1.0  0.77580  0.87910  0.69062  1.0000
  C   C5548     1.0  0.76384  0.88722  0.70573  1.0000
  C   C5549     1.0  0.77134  0.88847  0.72147  1.0000
  C   C5550     1.0  0.81382  0.83519  0.67914  1.0000
  C   C5551     1.0  0.81999  0.82350  0.66518  1.0000
  H   H4429     1.0  0.85573  0.90081  0.62463  1.0000
  C   C5552     1.0  0.67470  0.90784  0.49673  1.0000
  H   H4430     1.0  0.75289  0.80593  0.74896  1.0000
  C   C5553     1.0  0.81046  0.82653  0.69854  1.0000
  H   H4431     1.0  0.67272  0.88224  0.84932  1.0000
  C   C5554     1.0  0.55079  0.89066  0.88935  1.0000
  H   H4432     1.0  0.76948  0.87833  0.67869  1.0000
  H   H4433     1.0  0.74868  0.89250  0.70521  1.0000
  H   H4434     1.0  0.76200  0.89479  0.73314  1.0000
  H   H4435     1.0  0.82283  0.82984  0.65017  1.0000
  H   H4436     1.0  0.57626  0.78343  0.83870  1.0000
  H   H4437     1.0  0.66526  0.91998  0.49039  1.0000
  H   H4438     1.0  0.93016  0.97212  0.51029  1.0000
  H   H4439     1.0  0.80570  0.83504  0.70970  1.0000
  H   H4440     1.0  0.82486  0.89457  0.67713  1.0000
  C   C5555     1.0  0.82313  0.80357  0.67047  1.0000
  H   H4441     1.0  0.82320  0.78580  0.52918  1.0000
  H   H4442     1.0  0.93522  0.82073  0.70069  1.0000
  C   C5556     1.0  0.64525  0.79008  0.70495  1.0000
  H   H4443     1.0  0.66353  0.83409  0.50020  1.0000
  H   H4444     1.0  0.91741  0.93590  0.49500  1.0000
  H   H4445     1.0  0.77228  0.88598  0.60826  1.0000
  C   C5557     1.0  0.77896  0.94943  0.55228  1.0000
  C   C5558     1.0  0.86843  0.86197  0.65201  1.0000
  H   H4446     1.0  0.88062  0.85305  0.64469  1.0000
  C   C5559     1.0  0.85010  0.90247  0.61164  1.0000
  H   H4447     1.0  0.70533  0.96506  0.51638  1.0000
  C   C5560     1.0  0.62451  0.97141  0.77280  1.0000
  C   C5561     1.0  0.85171  0.94273  0.50458  1.0000
  C   C5562     1.0  0.96147  0.84437  0.53230  1.0000
  H   H4448     1.0  0.80250  0.88966  0.54449  1.0000
  C   C5563     1.0  0.94751  0.82600  0.69126  1.0000
  C   C5564     1.0  0.68835  0.93628  0.54909  1.0000
  C   C5565     1.0  0.50802  0.97771  0.90875  1.0000
  H   H4449     1.0  0.76792  0.78479  0.61155  1.0000
  H   H4450     1.0  0.69426  0.78695  0.49010  1.0000
  H   H4451     1.0  0.84793  0.94796  0.49055  1.0000
  C   C5566     1.0  0.85519  0.89028  0.66613  1.0000
  C   C5567     1.0  0.83670  0.81195  0.56900  1.0000
  H   H4452     1.0  0.73199  0.78314  0.57241  1.0000
  H   H4453     1.0  0.97961  0.81685  0.65139  1.0000
  C   C5568     1.0  0.75739  0.95483  0.61413  1.0000
  C   C5569     1.0  0.66122  0.93111  0.57468  1.0000
  C   C5570     1.0  0.98667  0.91464  0.63840  1.0000
  C   C5571     1.0  0.90620  0.91031  0.49640  1.0000
  H   H4454     1.0  0.56548  0.98044  0.62582  1.0000
  C   C5572     1.0  0.66000  0.92796  0.54258  1.0000
  H   H4455     1.0  0.86619  0.92232  0.55426  1.0000
  C   C5573     1.0  0.79044  0.91186  0.57035  1.0000
  H   H4456     1.0  0.77644  0.81225  0.67921  1.0000
  H   H4457     1.0  0.79469  0.89726  0.57738  1.0000
  C   C5574     1.0  0.81700  0.88175  0.54210  1.0000
  C   C5575     1.0  0.80428  0.92191  0.55806  1.0000
  H   H4458     1.0  0.84411  0.82399  0.56316  1.0000
  C   C5576     1.0  0.87354  0.81014  0.49199  1.0000
  H   H4459     1.0  0.96525  0.82502  0.58500  1.0000
  C   C5577     1.0  0.76290  0.79035  0.67473  1.0000
  H   H4460     1.0  0.96923  0.81093  0.61820  1.0000
  C   C5578     1.0  0.69496  0.79295  0.50225  1.0000
  H   H4461     1.0  0.95711  0.91148  0.64178  1.0000
  H   H4462     1.0  0.58849  0.82292  0.82186  1.0000
  H   H4463     1.0  0.73658  0.82560  0.49120  1.0000
  C   C5579     1.0  0.76866  0.79300  0.70557  1.0000
  H   H4464     1.0  0.87805  0.95416  0.49746  1.0000
  H   H4465     1.0  0.61447  0.97013  0.65760  1.0000
  C   C5580     1.0  0.64446  0.87721  0.84922  1.0000
  H   H4466     1.0  0.68722  0.93861  0.57836  1.0000
  C   C5581     1.0  0.88274  0.81278  0.50616  1.0000
  H   H4467     1.0  0.62391  0.96238  0.70836  1.0000
  C   C5582     1.0  0.61228  0.81069  0.83652  1.0000
  H   H4468     1.0  0.82871  0.79468  0.65965  1.0000
  C   C5583     1.0  0.71476  0.95976  0.80067  1.0000
  C   C5584     1.0  0.69495  0.96154  0.80166  1.0000
  C   C5585     1.0  0.73607  0.97890  0.63096  1.0000
  C   C5586     1.0  0.92577  0.97450  0.49649  1.0000
  H   H4469     1.0  0.63722  0.92343  0.56674  1.0000
  H   H4470     1.0  0.60969  0.88865  0.65629  1.0000
  H   H4471     1.0  0.86373  0.88367  0.54211  1.0000
  C   C5587     1.0  0.95807  0.78563  0.61867  1.0000
  H   H4472     1.0  0.71093  0.89592  0.52246  1.0000
  C   C5588     1.0  0.69796  0.87586  0.51403  1.0000
  H   H4473     1.0  0.84860  0.84413  0.65183  1.0000
  C   C5589     1.0  0.65966  0.87786  0.85798  1.0000
  C   C5590     1.0  0.83286  0.80875  0.50707  1.0000
  C   C5591     1.0  0.74236  0.85426  0.48388  1.0000
  H   H4474     1.0  0.85547  0.78890  0.53908  1.0000
  H   H4475     1.0  0.61358  0.79658  0.83319  1.0000
  C   C5592     1.0  0.86164  0.92833  0.54066  1.0000
  C   C5593     1.0  0.79467  0.79711  0.76619  1.0000
  C   C5594     1.0  0.79332  0.91374  0.49600  1.0000
  C   C5595     1.0  0.72361  0.97585  0.79385  1.0000
  H   H4476     1.0  0.77409  0.80064  0.71383  1.0000
  H   H4477     1.0  0.72319  0.94593  0.80530  1.0000
  H   H4478     1.0  0.68793  0.94919  0.80715  1.0000
  H   H4479     1.0  0.49863  0.89063  0.91636  1.0000
  C   C5596     1.0  0.66459  0.96590  0.63745  1.0000
  C   C5597     1.0  0.61937  0.97735  0.70272  1.0000
  C   C5598     1.0  0.65795  0.87304  0.87787  1.0000
  H   H4480     1.0  0.70702  0.86352  0.52082  1.0000
  H   H4481     1.0  0.65468  0.93041  0.58963  1.0000
  H   H4482     1.0  0.79826  0.90241  0.61083  1.0000
  H   H4483     1.0  0.80530  0.85253  0.49588  1.0000
  H   H4484     1.0  0.60966  0.93615  0.81051  1.0000
  C   C5599     1.0  0.57567  0.88104  0.63419  1.0000
  H   H4485     1.0  0.79661  0.88247  0.73440  1.0000
  C   C5600     1.0  0.64106  0.86743  0.88902  1.0000
  C   C5601     1.0  0.59168  0.88798  0.63627  1.0000
  C   C5602     1.0  0.78518  0.85882  0.64927  1.0000
  H   H4486     1.0  0.61283  0.86241  0.88914  1.0000
  C   C5603     1.0  0.62474  0.81401  0.84716  1.0000
  H   H4487     1.0  0.70273  0.83299  0.51449  1.0000
  C   C5604     1.0  0.69567  0.80811  0.53425  1.0000
  H   H4488     1.0  0.56632  0.80644  0.86136  1.0000
  S   S763      1.0  0.84319  0.88123  0.48303  1.0000
  H   H4489     1.0  0.63574  0.80244  0.85210  1.0000
  H   H4490     1.0  0.88703  0.94111  0.52939  1.0000
  H   H4491     1.0  0.81538  0.89137  0.63808  1.0000
  H   H4492     1.0  0.82716  0.92880  0.51525  1.0000
  P   P185      1.0  0.82931  0.91045  0.55447  1.0000
  C   C5605     1.0  0.77991  0.88113  0.62016  1.0000
  C   C5606     1.0  0.77099  0.92037  0.57316  1.0000
  C   C5607     1.0  0.56605  0.90067  0.88571  1.0000
  H   H4493     1.0  0.65983  0.80832  0.73142  1.0000
  C   C5608     1.0  0.57270  0.93206  0.63126  1.0000
  C   C5609     1.0  0.58324  0.89458  0.87379  1.0000
  H   H4494     1.0  0.95187  0.80508  0.67309  1.0000
  C   C5610     1.0  0.62582  0.86679  0.88031  1.0000
  C   C5611     1.0  0.55277  0.87449  0.88115  1.0000
  H   H4495     1.0  0.63314  0.83452  0.85936  1.0000
  H   H4496     1.0  0.52748  0.81040  0.81184  1.0000
  C   C5612     1.0  0.59775  0.88319  0.65404  1.0000
  H   H4497     1.0  0.61790  0.92497  0.77942  1.0000
  C   C5613     1.0  0.73205  0.84002  0.48395  1.0000
  C   C5614     1.0  0.74833  0.78502  0.59317  1.0000
  H   H4498     1.0  0.80785  0.86010  0.53202  1.0000
  C   C5615     1.0  0.59143  0.92873  0.62071  1.0000
  C   C5616     1.0  0.83693  0.88513  0.67046  1.0000
  C   C5617     1.0  0.56608  0.86936  0.64959  1.0000
  H   H4499     1.0  0.65877  0.79842  0.65641  1.0000
  C   C5618     1.0  0.96152  0.81105  0.59115  1.0000
  H   H4500     1.0  0.62345  0.95632  0.52990  1.0000
  H   H4501     1.0  0.64365  0.96457  0.60017  1.0000
  P   P186      1.0  0.94997  0.81194  0.55672  1.0000
  C   C5619     1.0  0.92574  0.82529  0.55910  1.0000
  H   H4502     1.0  0.73791  0.97338  0.50611  1.0000
  C   C5620     1.0  0.76997  0.79972  0.68587  1.0000
  H   H4503     1.0  0.76026  0.91241  0.58222  1.0000
  H   H4504     1.0  0.54911  0.95325  0.64139  1.0000
  C   C5621     1.0  0.97887  0.83999  0.66624  1.0000
  C   C5622     1.0  0.83261  0.88839  0.54551  1.0000
  C   C5623     1.0  0.91067  0.81772  0.55586  1.0000
  C   C5624     1.0  0.89178  0.82775  0.55872  1.0000
  C   C5625     1.0  0.88776  0.84520  0.56519  1.0000
  C   C5626     1.0  0.90267  0.85280  0.56851  1.0000
  C   C5627     1.0  0.92160  0.84285  0.56557  1.0000
  C   C5628     1.0  0.95381  0.79437  0.54150  1.0000
  C   C5629     1.0  0.82002  0.86491  0.53473  1.0000
  H   H4505     1.0  0.97020  0.86979  0.51400  1.0000
  H   H4506     1.0  0.86885  0.85423  0.52879  1.0000
  C   C5630     1.0  0.79452  0.89032  0.62161  1.0000
  C   C5631     1.0  0.94678  0.79940  0.52422  1.0000
  H   H4507     1.0  0.84091  0.93296  0.60941  1.0000
  H   H4508     1.0  0.56459  0.85600  0.67927  1.0000
  H   H4509     1.0  0.63702  0.97553  0.67517  1.0000
  S   S764      1.0  0.49901  0.93011  0.83905  1.0000
  H   H4510     1.0  0.94695  0.84831  0.52941  1.0000
  C   C5632     1.0  0.57277  0.96611  0.62420  1.0000
  C   C5633     1.0  0.69960  0.81884  0.51589  1.0000
  C   C5634     1.0  0.96698  0.82755  0.54506  1.0000
  H   H4511     1.0  0.51209  0.91984  0.87592  1.0000
  H   H4512     1.0  0.91333  0.80375  0.55184  1.0000
  H   H4513     1.0  0.88018  0.82159  0.55670  1.0000
  H   H4514     1.0  0.87302  0.85248  0.56824  1.0000
  H   H4515     1.0  0.89954  0.86620  0.57377  1.0000
  H   H4516     1.0  0.93294  0.84871  0.56866  1.0000
  C   C5635     1.0  0.59454  0.97029  0.53893  1.0000
  H   H4517     1.0  0.62388  0.91774  0.64049  1.0000
  C   C5636     1.0  0.55791  0.80730  0.85051  1.0000
  C   C5637     1.0  0.77726  0.80706  0.76087  1.0000
  H   H4518     1.0  0.93870  0.81359  0.52020  1.0000
  C   C5638     1.0  0.66811  0.97791  0.59783  1.0000
  C   C5639     1.0  0.85135  0.88650  0.60339  1.0000
  H   H4519     1.0  0.80946  0.82761  0.56225  1.0000
  C   C5640     1.0  0.83866  0.85477  0.53028  1.0000
  H   H4520     1.0  0.68172  0.85942  0.50415  1.0000
  C   C5641     1.0  0.97260  0.82401  0.66330  1.0000
  C   C5642     1.0  0.65359  0.90562  0.63260  1.0000
  C   C5643     1.0  0.66707  0.89435  0.62085  1.0000
  C   C5644     1.0  0.66114  0.88665  0.60756  1.0000
  C   C5645     1.0  0.64171  0.89008  0.60607  1.0000
  C   C5646     1.0  0.62807  0.90146  0.61779  1.0000
  C   C5647     1.0  0.63418  0.90923  0.63104  1.0000
  P   P187      1.0  0.60275  0.90482  0.61715  1.0000
  C   C5648     1.0  0.59947  0.90185  0.59410  1.0000
  C   C5649     1.0  0.59474  0.91780  0.58000  1.0000
  C   C5650     1.0  0.59195  0.91519  0.56240  1.0000
  C   C5651     1.0  0.59385  0.89675  0.55872  1.0000
  C   C5652     1.0  0.59875  0.88085  0.57255  1.0000
  C   C5653     1.0  0.60162  0.88338  0.59014  1.0000
  H   H4521     1.0  0.65810  0.91136  0.64314  1.0000
  H   H4522     1.0  0.68211  0.89147  0.62209  1.0000
  H   H4523     1.0  0.67158  0.87792  0.59841  1.0000
  H   H4524     1.0  0.63757  0.88376  0.59577  1.0000
  H   H4525     1.0  0.77200  0.82167  0.76318  1.0000
  H   H4526     1.0  0.58823  0.92748  0.55158  1.0000
  H   H4527     1.0  0.59161  0.89477  0.54510  1.0000
  H   H4528     1.0  0.60049  0.86657  0.56945  1.0000
  H   H4529     1.0  0.60558  0.87097  0.60063  1.0000
  H   H4530     1.0  0.61520  0.94211  0.60367  1.0000
  C   C5654     1.0  0.60661  0.83156  0.64168  1.0000
  C   C5655     1.0  0.61883  0.83645  0.62440  1.0000
  C   C5656     1.0  0.63723  0.83950  0.62443  1.0000
  C   C5657     1.0  0.64366  0.83717  0.64171  1.0000
  C   C5658     1.0  0.63148  0.83224  0.65922  1.0000
  C   C5659     1.0  0.61292  0.82937  0.65901  1.0000
  P   P188      1.0  0.64055  0.82629  0.68148  1.0000
  C   C5660     1.0  0.64771  0.80051  0.68619  1.0000
  C   C5661     1.0  0.66132  0.83723  0.67940  1.0000
  C   C5662     1.0  0.67703  0.82702  0.68798  1.0000
  C   C5663     1.0  0.69311  0.83542  0.68643  1.0000
  C   C5664     1.0  0.69364  0.85404  0.67635  1.0000
  C   C5665     1.0  0.67801  0.86439  0.66794  1.0000
  C   C5666     1.0  0.66182  0.85611  0.66957  1.0000
  H   H4531     1.0  0.63900  0.79719  0.71706  1.0000
  C   C5667     1.0  0.59150  0.96296  0.61383  1.0000
  C   C5668     1.0  0.95372  0.84182  0.69437  1.0000
  C   C5669     1.0  0.62188  0.83455  0.70042  1.0000
  C   C5670     1.0  0.60715  0.82397  0.70923  1.0000
  C   C5671     1.0  0.59269  0.83040  0.72378  1.0000
  C   C5672     1.0  0.59266  0.84755  0.72951  1.0000
  C   C5673     1.0  0.60720  0.85819  0.72083  1.0000
  C   C5674     1.0  0.62179  0.85170  0.70642  1.0000
  H   H4532     1.0  0.59234  0.82917  0.64165  1.0000
  H   H4533     1.0  0.61419  0.83759  0.61094  1.0000
  H   H4534     1.0  0.64672  0.84320  0.61101  1.0000
  H   H4535     1.0  0.65835  0.83867  0.64120  1.0000
  H   H4536     1.0  0.60337  0.82510  0.67217  1.0000
  H   H4537     1.0  0.67685  0.81265  0.69604  1.0000
  H   H4538     1.0  0.70510  0.82759  0.69325  1.0000
  H   H4539     1.0  0.70598  0.86062  0.67543  1.0000
  H   H4540     1.0  0.67831  0.87901  0.66058  1.0000
  H   H4541     1.0  0.64961  0.86454  0.66339  1.0000
  H   H4542     1.0  0.94635  0.84875  0.70637  1.0000
  H   H4543     1.0  0.82183  0.79714  0.47979  1.0000
  H   H4544     1.0  0.60692  0.81062  0.70504  1.0000
  H   H4545     1.0  0.58158  0.82199  0.73075  1.0000
  H   H4546     1.0  0.58142  0.85256  0.74073  1.0000
  H   H4547     1.0  0.60722  0.87157  0.72515  1.0000
  H   H4548     1.0  0.63279  0.86029  0.69998  1.0000
  H   H4549     1.0  0.86168  0.79304  0.57788  1.0000
  H   H4550     1.0  0.84106  0.84198  0.52416  1.0000
  C   C5675     1.0  0.97470  0.85644  0.52327  1.0000
  C   C5676     1.0  0.59652  0.84389  0.83409  1.0000
  C   C5677     1.0  0.77529  0.86537  0.63395  1.0000
  H   H4551     1.0  0.56511  0.92038  0.63814  1.0000
  H   H4552     1.0  0.60471  0.91328  0.84045  1.0000
  C   C5678     1.0  0.71291  0.93909  0.50441  1.0000
  C   C5679     1.0  0.59817  0.82559  0.83003  1.0000
  C   C5680     1.0  0.80431  0.88392  0.63704  1.0000
  H   H4553     1.0  0.56453  0.91328  0.89201  1.0000
  H   H4554     1.0  0.63381  0.79570  0.79054  1.0000
  H   H4555     1.0  0.63974  0.86371  0.90444  1.0000
  C   C5681     1.0  0.79965  0.86816  0.65102  1.0000
  H   H4556     1.0  0.80875  0.94931  0.54033  1.0000
  C   C5682     1.0  0.50063  0.80544  0.89542  1.0000
  C   C5683     1.0  0.85431  0.86158  0.53305  1.0000
  S   S765      1.0  0.50510  0.87700  0.83132  1.0000
  C   C5684     1.0  0.97182  0.90414  0.64201  1.0000
  H   H4557     1.0  0.90321  0.82715  0.51249  1.0000
  H   H4558     1.0  0.61724  0.86719  0.80822  1.0000
  C   C5685     1.0  0.68831  0.91038  0.50659  1.0000
  C   C5686     1.0  0.62733  0.87190  0.86036  1.0000
  C   C5687     1.0  0.56988  0.86847  0.86905  1.0000
  H   H4559     1.0  0.77449  0.96397  0.54523  1.0000
  H   H4560     1.0  0.59496  0.90236  0.87158  1.0000
  C   C5688     1.0  0.65984  0.96566  0.50490  1.0000
  H   H4561     1.0  0.82899  0.93692  0.57917  1.0000
  C   C5689     1.0  0.79083  0.88152  0.72215  1.0000
  H   H4562     1.0  0.59255  0.86860  0.68320  1.0000
  C   C5690     1.0  0.83500  0.92274  0.58596  1.0000
  H   H4563     1.0  0.81785  0.86777  0.70794  1.0000
  H   H4564     1.0  0.66969  0.87370  0.88464  1.0000
  H   H4565     1.0  0.59874  0.97497  0.60708  1.0000
  C   C5691     1.0  0.75468  0.97046  0.62334  1.0000
  S   S766      1.0  0.98944  0.90410  0.58852  1.0000
  C   C5692     1.0  0.65369  0.96757  0.60778  1.0000
  H   H4566     1.0  0.69557  0.81420  0.54666  1.0000
  Fe  Fe384     1.0  0.49176  0.90007  0.84886  1.0000
  C   C5693     1.0  0.50398  0.89419  0.77569  1.0000
  P   P189      1.0  0.68883  0.93376  0.51092  1.0000
  C   C5694     1.0  0.80930  0.83808  0.50339  1.0000
  H   H4567     1.0  0.57080  0.85593  0.86297  1.0000
  C   C5695     1.0  0.83659  0.90680  0.57735  1.0000
  S   S767      1.0  0.58378  0.96120  0.52376  1.0000
  C   C5696     1.0  0.71666  0.95578  0.50860  1.0000
  C   C5697     1.0  0.96939  0.84876  0.68197  1.0000
  H   H4568     1.0  0.79191  0.80130  0.57736  1.0000
  C   C5698     1.0  0.67265  0.97273  0.69693  1.0000
  C   C5699     1.0  0.84446  0.92505  0.53689  1.0000
  C   C5700     1.0  0.72001  0.97187  0.62920  1.0000
  C   C5701     1.0  0.84650  0.79458  0.57753  1.0000
  C   C5702     1.0  0.55244  0.79528  0.82387  1.0000
  H   H4569     1.0  0.73896  0.97450  0.79314  1.0000
  C   C5703     1.0  0.49583  0.91914  0.79480  1.0000
  C   C5704     1.0  0.58798  0.87175  0.66945  1.0000
  H   H4570     1.0  0.62158  0.89046  0.77867  1.0000
  C   C5705     1.0  0.69917  0.81142  0.49970  1.0000
  C   C5706     1.0  0.89656  0.82468  0.50147  1.0000
  C   C5707     1.0  0.57219  0.86477  0.66724  1.0000
  C   C5708     1.0  0.61436  0.96600  0.53889  1.0000
  C   C5709     1.0  0.70303  0.95443  0.67249  1.0000
  C   C5710     1.0  0.69965  0.94700  0.69210  1.0000
  C   C5711     1.0  0.68452  0.95618  0.70433  1.0000
  C   C5712     1.0  0.87098  0.87860  0.65708  1.0000
  C   C5713     1.0  0.65145  0.92713  0.56184  1.0000
  C   C5714     1.0  0.72291  0.95628  0.61977  1.0000
  C   C5715     1.0  0.74149  0.94772  0.61243  1.0000
  C   C5716     1.0  0.76646  0.79810  0.75284  1.0000
  C   C5717     1.0  0.69132  0.97125  0.66502  1.0000
  C   C5718     1.0  0.85021  0.85680  0.65633  1.0000
  C   C5719     1.0  0.85134  0.87834  0.54058  1.0000
  C   C5720     1.0  0.84176  0.92057  0.60304  1.0000
  C   C5721     1.0  0.82747  0.82758  0.49769  1.0000
  C   C5722     1.0  0.87358  0.93898  0.52653  1.0000
  C   C5723     1.0  0.83987  0.93195  0.51862  1.0000
  H   H4571     1.0  0.75464  0.85084  0.49106  1.0000
  H   H4572     1.0  0.85715  0.90337  0.66972  1.0000
  C   C5724     1.0  0.68396  0.87352  0.50455  1.0000
  C   C5725     1.0  0.68402  0.97937  0.79581  1.0000
  H   H4573     1.0  0.71468  0.94692  0.66328  1.0000
  H   H4574     1.0  0.70860  0.93392  0.69780  1.0000
  H   H4575     1.0  0.68168  0.95024  0.71948  1.0000
  H   H4576     1.0  0.61492  0.98091  0.76394  1.0000
  C   C5726     1.0  0.84448  0.88859  0.58636  1.0000
  H   H4577     1.0  0.71086  0.95052  0.61820  1.0000
  H   H4578     1.0  0.74341  0.93542  0.60561  1.0000
  H   H4579     1.0  0.77178  0.94816  0.60839  1.0000
  C   C5727     1.0  0.67961  0.93573  0.56830  1.0000
  C   C5728     1.0  0.67844  0.93275  0.53599  1.0000
  C   C5729     1.0  0.97591  0.88413  0.64539  1.0000
  C   C5730     1.0  0.56345  0.95070  0.63301  1.0000
  H   H4580     1.0  0.75010  0.94552  0.56603  1.0000
  H   H4581     1.0  0.80292  0.80398  0.77262  1.0000
  H   H4582     1.0  0.84552  0.87599  0.58030  1.0000
  C   C5731     1.0  0.60085  0.94431  0.61209  1.0000
  C   C5732     1.0  0.96377  0.80314  0.61001  1.0000
  H   H4583     1.0  0.98627  0.84838  0.58723  1.0000
  C   C5733     1.0  0.61737  0.89541  0.79218  1.0000
  C   C5734     1.0  0.61542  0.91483  0.79262  1.0000
  C   C5735     1.0  0.61078  0.92110  0.81012  1.0000
  C   C5736     1.0  0.60781  0.90799  0.82717  1.0000
  C   C5737     1.0  0.60938  0.88841  0.82691  1.0000
  C   C5738     1.0  0.61462  0.88220  0.80918  1.0000
  P   P190      1.0  0.60751  0.87137  0.84919  1.0000
  C   C5739     1.0  0.58523  0.87865  0.86500  1.0000
  C   C5740     1.0  0.60906  0.84744  0.84471  1.0000
  C   C5741     1.0  0.62317  0.83229  0.85126  1.0000
  C   C5742     1.0  0.62411  0.97470  0.79118  1.0000
  H   H4584     1.0  0.87920  0.80600  0.52088  1.0000
  H   H4585     1.0  0.95220  0.95842  0.48371  1.0000
  C   C5743     1.0  0.67895  0.97660  0.62760  1.0000
  H   H4586     1.0  0.98339  0.93014  0.63572  1.0000
  C   C5744     1.0  0.81977  0.79507  0.68972  1.0000
  H   H4587     1.0  0.66320  0.96067  0.65269  1.0000
  H   H4588     1.0  0.76700  0.97595  0.62477  1.0000
  H   H4589     1.0  0.79132  0.80478  0.53947  1.0000
  C   C5745     1.0  0.90152  0.83382  0.48260  1.0000
  P   P191      1.0  0.85553  0.79485  0.49789  1.0000
  C   C5746     1.0  0.74572  0.93305  0.48703  1.0000
  C   C5747     1.0  0.69148  0.78975  0.53664  1.0000
  C   C5748     1.0  0.73500  0.96066  0.50261  1.0000
  H   H4590     1.0  0.51055  0.96116  0.93670  1.0000
  H   H4591     1.0  0.54044  0.97719  0.75988  1.0000
  C   C5749     1.0  0.50201  0.96524  0.92547  1.0000
  C   C5750     1.0  0.66230  0.83908  0.48531  1.0000
  H   H4592     1.0  0.66187  0.88771  0.48807  1.0000
  H   H4593     1.0  0.65732  0.96549  0.52010  1.0000
  C   C5751     1.0  0.95014  0.78613  0.51200  1.0000
  H   H4594     1.0  0.52983  0.80217  0.89942  1.0000
  H   H4595     1.0  0.83711  0.83410  0.48565  1.0000
  H   H4596     1.0  0.59432  0.79216  0.88385  1.0000
  H   H4597     1.0  0.66066  0.97961  0.70635  1.0000
  C   C5752     1.0  0.67607  0.98029  0.67739  1.0000
  C   C5753     1.0  0.51926  0.79530  0.89627  1.0000
  H   H4598     1.0  0.54914  0.97972  0.79033  1.0000
  H   H4599     1.0  0.72493  0.91543  0.48910  1.0000
  H   H4600     1.0  0.60368  0.79008  0.91521  1.0000
  C   C5754     1.0  0.64810  0.97932  0.49371  1.0000
  H   H4601     1.0  0.63784  0.97157  0.54972  1.0000
  H   H4602     1.0  0.66864  0.98058  0.79683  1.0000
  P   P192      1.0  0.70203  0.82610  0.47608  1.0000
  H   H4603     1.0  0.96001  0.98058  0.59278  1.0000
  H   H4604     1.0  0.91203  0.84326  0.47903  1.0000
  H   H4605     1.0  0.97186  0.98153  0.62203  1.0000
  H   H4606     1.0  0.76385  0.95288  0.48729  1.0000
  C   C5755     1.0  0.94735  0.78417  0.58982  1.0000
  C   C5756     1.0  0.49019  0.90590  0.78676  1.0000
  C   C5757     1.0  0.67778  0.95342  0.47658  1.0000
  S   S768      1.0  0.86278  0.78333  0.61957  1.0000
  H   H4607     1.0  0.75694  0.92433  0.47854  1.0000
  H   H4608     1.0  0.68143  0.78194  0.77962  1.0000
  C   C5758     1.0  0.69123  0.78213  0.52065  1.0000
  C   C5759     1.0  0.85294  0.78823  0.47606  1.0000
  C   C5760     1.0  0.93826  0.96678  0.48144  1.0000
