data_image0
_chemical_formula_structural       CHCHC2H2CH3C6H2C2HCH4CH3C3HC4HCH2CH2PH2C2HCH3C2HC2SFeS2FeS2FeSFeS4FeS2FeS2FeSFeS3HC3HC7H4C6H4CH2CH2C6H5C3HCPC2HC4HCHC3H5C3H4CHC2HC2H3C6HC3HCH2CH2CH2C2HC2HCHCH2CHC2H4C2H2CHC2H2CHCHCPC3HCHCH3CHC2HCH2CHCHC2HCHC3HPC3PC2HCHC2HCH3C3HC4HCHC2H2CPCHC2H4C8HC2HC4HC3HC2H2C2HC3H2CHC3HC3H2CH2C3HC4H3PHCH2CHCH2CPH2C3HFeCHFeSFeS2FeSFeS3FeS2FeSFeSFeS3C2H2C7H5C3H3CHCHC2H2C3HC5HC2H2C3H2C6HC3H3C7H3CH2CH5C2HC3H2CHCHCH2P2C2HC2H2C2HC2H2CHC2HPCHCH2CH2CHC2H2FeS2FeS2FeSHS2FeS2FeS2HFeCS2H2CHCHC2H2C6H5C2H2C4H2CHC3H3C2PC3HCHC7HCH3CHCHC3HC4PH4C2H2CHCH2C2H2CHCH3CHCHC3HCHCFeC2SHC4HC3H3C2HC2H2CH2CHCHCH2CFeS2FeS2FeSFeS3CFeS2FeS2FeSFeS4C6H4C2H3C6H4C6H4CPC2HC8PC18HCH18C4H6C2H3C2HC2HC2HC7HCH2C6H2CHCH2CHC3H3CPC2HC4H2C3H2C2HC2H3CHC2HC3H6C7HSC2H3C2H5C3HC4H3CH2CHC3HCH2CHC2HCHCH2C2HCHCPC4HC3H2C3HC3HCH2C3H4CH2C4HCH2CH4C2HCHCHC2HCH3C2H2CHC2HC3H2CH4CHSFeS2FeS2FeSFeS4FeS2FeS2FeSFeHS2CHC2H2C6H4C6H4PC6PHC7H4CH3C4PC12H9CH3C4HCHC2HCH2SHPHCHCH2C3H2CHCHCHC12HCHCHC2H5CH4CH8C4HC4H4CHC4HCH4C2HCHC5H2C4HC2H2CH2C2HC2PHCH3C3H5C2HCHC3H3C2H4FeSHFeSFeSFeS3FeSFeS2FeSFeS3C3H2C6H4CHCHCH2CHCHCH2PCHC3H4C4HCHCH5C3SHCHCH2C3HCH3CHC3HC7HC2H2C2H3CH2C2HC2HC5HCH3CHC2H2C2HCHC2HCH2C3H2C3H2C4H3CFeS2FeS2HFeS3FeS2FeS2FeSHS2H2C6H2C6H4CHCHC3H2C2H5C2H8CH5CHFeH2C2HC11PC13HC2H3CH4C4HCH2CHFeH3CHC5H2CPHSFeS2FeS2FeCFeS3HFeS2FeS2FeSFeS3HC2H2C6H4C6H4C6H4C2H2C5PC4H3C6HC2H2C2PH2C2HC2HCH2C6PC18H2CH18CPHCH2CHCHC3H2SH2CH2C2HC3H3C7PC2H2C3H2C2PC3SH3CHCH3C2PCHC6HC2HC3H2CH2CHCHC2HCH2C5H4C4H3CHCHCH2CHC4H7CHCH2CHC2HC2HC5H3CH4CH2CH2CH2C4HCHC2HCHC6
_chemical_formula_sum              "C960 H768 P32 S128 Fe64"
_cell_length_a       45.5058
_cell_length_b       45.6151
_cell_length_c       38.5628
_cell_angle_alpha    90.2702
_cell_angle_beta     89.7696
_cell_angle_gamma    90.1848

_space_group_name_H-M_alt    "P 1"
_space_group_IT_number       1

loop_
  _space_group_symop_operation_xyz
  'x, y, z'

loop_
  _atom_site_type_symbol
  _atom_site_label
  _atom_site_symmetry_multiplicity
  _atom_site_fract_x
  _atom_site_fract_y
  _atom_site_fract_z
  _atom_site_occupancy
  C   C1        1.0  0.07628  0.05282  0.99998  1.0000
  H   H1        1.0  0.30740  0.03547  0.35497  1.0000
  C   C2        1.0  0.03493  0.07460  0.03014  1.0000
  H   H2        1.0  0.03230  0.06598  0.08500  1.0000
  C   C3        1.0  0.21482  0.02439  0.43275  1.0000
  C   C4        1.0  0.08596  0.04075  0.03121  1.0000
  H   H3        1.0  0.15751  0.06915  0.01090  1.0000
  H   H4        1.0  0.07731  0.03538  0.08574  1.0000
  C   C5        1.0  0.24115  0.08710  0.16743  1.0000
  H   H5        1.0  0.25603  0.10315  0.15634  1.0000
  H   H6        1.0  0.45040  0.07090  0.43871  1.0000
  H   H7        1.0  0.15506  0.05949  0.12172  1.0000
  C   C6        1.0  0.21110  0.04326  0.16103  1.0000
  C   C7        1.0  0.20286  0.04554  0.19608  1.0000
  C   C8        1.0  0.16376  0.05274  0.09675  1.0000
  C   C9        1.0  0.21370  0.06852  0.21657  1.0000
  C   C10       1.0  0.18483  0.03031  0.09460  1.0000
  C   C11       1.0  0.30249  0.02045  0.37589  1.0000
  H   H8        1.0  0.21354  0.00652  0.05912  1.0000
  H   H9        1.0  0.07480  0.12412  0.00258  1.0000
  C   C12       1.0  0.18684  0.03708  0.03212  1.0000
  C   C13       1.0  0.19661  0.02291  0.06197  1.0000
  H   H10       1.0  0.47861  0.01704  0.33971  1.0000
  C   C14       1.0  0.46180  0.07282  0.46324  1.0000
  H   H11       1.0  0.24125  0.10704  0.21819  1.0000
  H   H12       1.0  0.23716  0.06261  0.11995  1.0000
  H   H13       1.0  0.08928  0.04903  0.97692  1.0000
  H   H14       1.0  0.18813  0.02974  0.20778  1.0000
  C   C15       1.0  0.23282  0.08929  0.20227  1.0000
  H   H15       1.0  0.10557  0.16721  0.98866  1.0000
  H   H16       1.0  0.01557  0.08833  0.03065  1.0000
  H   H17       1.0  0.20733  0.07015  0.24361  1.0000
  C   C16       1.0  0.23038  0.06415  0.14688  1.0000
  C   C17       1.0  0.16519  0.05861  0.03435  1.0000
  C   C18       1.0  0.05034  0.06950  0.99900  1.0000
  H   H18       1.0  0.13723  0.08356  0.06846  1.0000
  C   C19       1.0  0.49232  0.06931  0.46462  1.0000
  C   C20       1.0  0.04451  0.06220  0.06121  1.0000
  C   C21       1.0  0.07518  0.13227  0.97629  1.0000
  C   C22       1.0  0.06993  0.04512  0.06171  1.0000
  H   H19       1.0  0.19613  0.03134  0.00712  1.0000
  C   C23       1.0  0.29030  0.03086  0.40695  1.0000
  H   H20       1.0  0.10588  0.02777  0.03174  1.0000
  H   H21       1.0  0.28552  0.05400  0.40953  1.0000
  C   C24       1.0  0.15374  0.06656  0.06671  1.0000
  H   H22       1.0  0.37682  0.02092  0.44234  1.0000
  H   H23       1.0  0.25868  0.00806  0.16164  1.0000
  P   P1        1.0  0.19817  0.01354  0.13401  1.0000
  H   H24       1.0  0.50403  0.06485  0.44083  1.0000
  H   H25       1.0  0.13316  0.00889  0.12535  1.0000
  C   C25       1.0  0.28400  0.01143  0.43419  1.0000
  C   C26       1.0  0.49906  0.01370  0.38992  1.0000
  H   H26       1.0  0.09208  0.25681  0.97240  1.0000
  C   C27       1.0  0.22660  0.02504  0.46636  1.0000
  H   H27       1.0  0.22897  0.02382  0.41015  1.0000
  H   H28       1.0  0.43809  0.33071  0.44785  1.0000
  H   H29       1.0  0.17540  0.02339  0.40196  1.0000
  C   C28       1.0  0.16546  0.02457  0.45662  1.0000
  C   C29       1.0  0.18435  0.02414  0.42796  1.0000
  H   H30       1.0  0.14186  0.02422  0.45282  1.0000
  C   C30       1.0  0.09255  0.15684  0.96857  1.0000
  C   C31       1.0  0.45093  0.32009  0.46776  1.0000
  S   S1        1.0  0.38798  0.28869  0.56972  1.0000
  Fe  Fe1       1.0  0.41019  0.09920  0.61057  1.0000
  S   S2        1.0  0.38756  0.10825  0.56023  1.0000
  S   S3        1.0  0.45671  0.11717  0.61315  1.0000
  Fe  Fe2       1.0  0.35337  0.07466  0.64303  1.0000
  S   S4        1.0  0.32774  0.08070  0.59367  1.0000
  S   S5        1.0  0.33536  0.06292  0.69699  1.0000
  Fe  Fe3       1.0  0.36803  0.06306  0.56596  1.0000
  S   S6        1.0  0.37228  0.04059  0.51284  1.0000
  Fe  Fe4       1.0  0.34988  0.12487  0.59173  1.0000
  S   S7        1.0  0.32254  0.16567  0.58278  1.0000
  S   S8        1.0  0.39246  0.05340  0.61556  1.0000
  S   S9        1.0  0.37382  0.11963  0.64179  1.0000
  S   S10       1.0  0.12429  0.29374  0.86014  1.0000
  Fe  Fe5       1.0  0.18182  0.08351  0.81171  1.0000
  S   S11       1.0  0.19951  0.08844  0.86626  1.0000
  S   S12       1.0  0.20465  0.06963  0.76067  1.0000
  Fe  Fe6       1.0  0.11909  0.10230  0.83395  1.0000
  S   S13       1.0  0.13311  0.10853  0.88904  1.0000
  S   S14       1.0  0.07343  0.11928  0.82058  1.0000
  Fe  Fe7       1.0  0.17307  0.13046  0.86764  1.0000
  S   S15       1.0  0.18917  0.17331  0.89153  1.0000
  Fe  Fe8       1.0  0.15752  0.06592  0.88358  1.0000
  S   S16       1.0  0.14475  0.03553  0.92871  1.0000
  S   S17       1.0  0.15806  0.12687  0.81256  1.0000
  S   S18       1.0  0.14110  0.05843  0.82888  1.0000
  H   H31       1.0  0.43237  0.02431  0.52383  1.0000
  C   C32       1.0  0.04004  0.09902  0.82203  1.0000
  C   C33       1.0  0.03719  0.07173  0.80565  1.0000
  C   C34       1.0  0.01489  0.11221  0.83641  1.0000
  H   H32       1.0  0.05622  0.06158  0.79382  1.0000
  C   C35       1.0  0.46764  0.30634  0.60211  1.0000
  C   C36       1.0  0.14093  0.26038  0.87277  1.0000
  C   C37       1.0  0.16573  0.25947  0.89409  1.0000
  C   C38       1.0  0.18002  0.23257  0.90013  1.0000
  C   C39       1.0  0.16946  0.20635  0.88530  1.0000
  C   C40       1.0  0.14387  0.20710  0.86536  1.0000
  C   C41       1.0  0.12956  0.23395  0.85947  1.0000
  H   H33       1.0  0.17424  0.27954  0.90529  1.0000
  H   H34       1.0  0.19956  0.23212  0.91599  1.0000
  H   H35       1.0  0.13532  0.18707  0.85410  1.0000
  H   H36       1.0  0.11007  0.23437  0.84359  1.0000
  C   C42       1.0  0.29881  0.06658  0.71383  1.0000
  C   C43       1.0  0.29463  0.07392  0.74907  1.0000
  C   C44       1.0  0.26613  0.07548  0.76385  1.0000
  C   C45       1.0  0.24137  0.06903  0.74373  1.0000
  C   C46       1.0  0.24562  0.06145  0.70862  1.0000
  C   C47       1.0  0.27399  0.06054  0.69364  1.0000
  H   H37       1.0  0.31359  0.07816  0.76517  1.0000
  H   H38       1.0  0.26342  0.08086  0.79100  1.0000
  H   H39       1.0  0.22680  0.05568  0.69305  1.0000
  H   H40       1.0  0.27670  0.05423  0.66675  1.0000
  C   C48       1.0  0.30338  0.29301  0.68738  1.0000
  H   H41       1.0  0.25548  0.12602  0.51929  1.0000
  H   H42       1.0  0.21484  0.23747  0.61408  1.0000
  C   C49       1.0  0.49017  0.09866  0.62121  1.0000
  H   H43       1.0  0.43316  0.31855  0.71413  1.0000
  H   H44       1.0  0.47112  0.05801  0.63863  1.0000
  C   C50       1.0  0.36894  0.25487  0.57229  1.0000
  C   C51       1.0  0.33893  0.25333  0.57979  1.0000
  C   C52       1.0  0.32487  0.22592  0.58286  1.0000
  C   C53       1.0  0.34070  0.19979  0.57816  1.0000
  C   C54       1.0  0.37064  0.20131  0.57017  1.0000
  C   C55       1.0  0.38466  0.22875  0.56711  1.0000
  H   H45       1.0  0.32659  0.27327  0.58288  1.0000
  H   H46       1.0  0.30177  0.22502  0.58931  1.0000
  H   H47       1.0  0.38305  0.18135  0.56631  1.0000
  H   H48       1.0  0.40788  0.22968  0.56103  1.0000
  H   H49       1.0  0.26347  0.20629  0.55304  1.0000
  C   C56       1.0  0.24895  0.08932  0.59401  1.0000
  C   C57       1.0  0.04276  0.06075  0.92255  1.0000
  C   C58       1.0  0.18051  0.23393  0.65259  1.0000
  H   H50       1.0  0.16301  0.23273  0.63366  1.0000
  C   C59       1.0  0.20969  0.23665  0.64154  1.0000
  P   P2        1.0  0.33011  0.28231  0.71938  1.0000
  C   C60       1.0  0.44588  0.07861  0.49353  1.0000
  C   C61       1.0  0.23223  0.23860  0.66593  1.0000
  H   H51       1.0  0.25485  0.24093  0.65735  1.0000
  C   C62       1.0  0.26271  0.31289  0.63831  1.0000
  C   C63       1.0  0.02586  0.19032  0.82068  1.0000
  C   C64       1.0  0.29178  0.30762  0.62853  1.0000
  C   C65       1.0  0.23485  0.03809  0.59312  1.0000
  H   H52       1.0  0.22058  0.22019  0.82467  1.0000
  C   C66       1.0  0.27886  0.12767  0.66194  1.0000
  H   H53       1.0  0.14150  0.27728  0.76205  1.0000
  C   C67       1.0  0.25398  0.30873  0.67264  1.0000
  C   C68       1.0  0.42790  0.23958  0.64623  1.0000
  C   C69       1.0  0.48005  0.19486  0.76343  1.0000
  H   H54       1.0  0.22839  0.17916  0.68406  1.0000
  H   H55       1.0  0.09529  0.17963  0.77952  1.0000
  H   H56       1.0  0.31388  0.16438  0.72680  1.0000
  H   H57       1.0  0.32131  0.12332  0.68575  1.0000
  H   H58       1.0  0.41703  0.25412  0.62818  1.0000
  C   C70       1.0  0.45514  0.12143  0.70375  1.0000
  C   C71       1.0  0.27081  0.17474  0.70758  1.0000
  C   C72       1.0  0.17381  0.23296  0.68803  1.0000
  H   H59       1.0  0.08714  0.30374  0.94072  1.0000
  H   H60       1.0  0.08786  0.27309  0.76908  1.0000
  H   H61       1.0  0.44968  0.27446  0.67367  1.0000
  H   H62       1.0  0.34627  0.19155  0.64988  1.0000
  C   C73       1.0  0.49589  0.29508  0.59571  1.0000
  H   H63       1.0  0.23179  0.31430  0.68041  1.0000
  C   C74       1.0  0.29694  0.15891  0.70822  1.0000
  C   C75       1.0  0.10123  0.25349  0.76914  1.0000
  H   H64       1.0  0.26749  0.19248  0.72584  1.0000
  C   C76       1.0  0.25938  0.08250  0.49742  1.0000
  C   C77       1.0  0.24865  0.16697  0.68421  1.0000
  H   H65       1.0  0.15107  0.23085  0.69599  1.0000
  H   H66       1.0  0.24740  0.32175  0.61966  1.0000
  H   H67       1.0  0.47205  0.12165  0.68401  1.0000
  C   C78       1.0  0.07716  0.15422  0.90867  1.0000
  C   C79       1.0  0.25218  0.14304  0.66170  1.0000
  C   C80       1.0  0.20008  0.15120  0.57041  1.0000
  C   C81       1.0  0.33956  0.23135  0.67930  1.0000
  C   C82       1.0  0.07571  0.03501  0.88315  1.0000
  C   C83       1.0  0.21958  0.31936  0.81119  1.0000
  H   H68       1.0  0.07841  0.16223  0.88226  1.0000
  C   C84       1.0  0.38855  0.30250  0.71692  1.0000
  C   C85       1.0  0.34543  0.24645  0.71038  1.0000
  C   C86       1.0  0.05906  0.11821  0.95000  1.0000
  H   H69       1.0  0.21395  0.28902  0.73132  1.0000
  C   C87       1.0  0.49126  0.07011  0.63436  1.0000
  H   H70       1.0  0.07787  0.32439  0.79909  1.0000
  H   H71       1.0  0.43737  0.08019  0.68614  1.0000
  C   C88       1.0  0.08806  0.22607  0.77374  1.0000
  H   H72       1.0  0.49089  0.23289  0.85311  1.0000
  H   H73       1.0  0.15779  0.11147  0.73389  1.0000
  C   C89       1.0  0.30110  0.13570  0.68509  1.0000
  H   H74       1.0  0.44521  0.24127  0.81977  1.0000
  H   H75       1.0  0.39538  0.27987  0.71571  1.0000
  C   C90       1.0  0.23459  0.17601  0.81980  1.0000
  C   C91       1.0  0.03359  0.33731  0.78701  1.0000
  H   H76       1.0  0.22397  0.19979  0.50964  1.0000
  C   C92       1.0  0.31910  0.09576  0.49007  1.0000
  C   C93       1.0  0.48026  0.19306  0.52824  1.0000
  H   H77       1.0  0.05524  0.00768  0.84453  1.0000
  C   C94       1.0  0.25327  0.06073  0.58199  1.0000
  H   H78       1.0  0.06445  0.22447  0.77687  1.0000
  C   C95       1.0  0.13171  0.25576  0.76522  1.0000
  H   H79       1.0  0.29995  0.23486  0.75618  1.0000
  H   H80       1.0  0.24323  0.23953  0.72006  1.0000
  C   C96       1.0  0.19636  0.23487  0.71270  1.0000
  H   H81       1.0  0.10765  0.18630  0.92853  1.0000
  C   C97       1.0  0.20696  0.17564  0.75537  1.0000
  C   C98       1.0  0.46192  0.32273  0.63211  1.0000
  H   H82       1.0  0.33485  0.29478  0.64514  1.0000
  H   H83       1.0  0.06268  0.28598  0.84005  1.0000
  H   H84       1.0  0.19548  0.17478  0.73092  1.0000
  H   H85       1.0  0.19727  0.02671  0.62447  1.0000
  C   C99       1.0  0.45818  0.21333  0.77713  1.0000
  C   C100      1.0  0.14928  0.23051  0.76575  1.0000
  H   H86       1.0  0.30854  0.13741  0.51353  1.0000
  H   H87       1.0  0.26718  0.29671  0.72373  1.0000
  C   C101      1.0  0.46042  0.08050  0.52528  1.0000
  H   H88       1.0  0.44262  0.27266  0.53463  1.0000
  C   C102      1.0  0.22560  0.23771  0.70138  1.0000
  C   C103      1.0  0.02327  0.02884  0.87743  1.0000
  H   H89       1.0  0.20293  0.30042  0.85824  1.0000
  H   H90       1.0  0.28261  0.10913  0.64508  1.0000
  C   C104      1.0  0.10541  0.20086  0.77494  1.0000
  H   H91       1.0  0.20206  0.10552  0.69772  1.0000
  C   C105      1.0  0.18889  0.13713  0.65924  1.0000
  H   H92       1.0  0.04503  0.17643  0.81792  1.0000
  C   C106      1.0  0.13591  0.20304  0.77089  1.0000
  P   P3        1.0  0.18844  0.23361  0.75869  1.0000
  C   C107      1.0  0.20692  0.20147  0.77529  1.0000
  C   C108      1.0  0.15934  0.00616  0.95341  1.0000
  C   C109      1.0  0.20087  0.26731  0.77884  1.0000
  H   H93       1.0  0.34239  0.10056  0.48789  1.0000
  C   C110      1.0  0.22074  0.20133  0.80783  1.0000
  H   H94       1.0  0.43811  0.21720  0.76291  1.0000
  C   C111      1.0  0.49753  0.31225  0.49650  1.0000
  H   H95       1.0  0.24416  0.17575  0.84551  1.0000
  H   H96       1.0  0.24504  0.13082  0.80911  1.0000
  H   H97       1.0  0.14884  0.18327  0.77220  1.0000
  C   C112      1.0  0.05469  0.32051  0.80392  1.0000
  H   H98       1.0  0.26377  0.10652  0.58544  1.0000
  C   C113      1.0  0.35094  0.20323  0.67380  1.0000
  C   C114      1.0  0.37387  0.20469  0.73021  1.0000
  H   H99       1.0  0.32612  0.24087  0.65929  1.0000
  C   C115      1.0  0.02776  0.21665  0.83927  1.0000
  H   H100      1.0  0.18361  0.16418  0.52044  1.0000
  H   H101      1.0  0.47388  0.15550  0.56083  1.0000
  C   C116      1.0  0.23490  0.15063  0.79947  1.0000
  H   H102      1.0  0.27454  0.23252  0.81262  1.0000
  C   C117      1.0  0.29495  0.30421  0.81437  1.0000
  H   H103      1.0  0.31932  0.32641  0.77503  1.0000
  C   C118      1.0  0.31216  0.29791  0.65296  1.0000
  C   C119      1.0  0.27420  0.29886  0.69712  1.0000
  H   H104      1.0  0.29871  0.31238  0.60229  1.0000
  C   C120      1.0  0.41036  0.12044  0.75345  1.0000
  H   H105      1.0  0.18276  0.13520  0.57450  1.0000
  C   C121      1.0  0.07123  0.05473  0.91047  1.0000
  C   C122      1.0  0.04598  0.29917  0.82775  1.0000
  C   C123      1.0  0.22120  0.15051  0.76719  1.0000
  H   H106      1.0  0.22114  0.13065  0.75175  1.0000
  P   P4        1.0  0.47506  0.17736  0.72169  1.0000
  C   C124      1.0  0.18538  0.12095  0.68983  1.0000
  C   C125      1.0  0.36812  0.18994  0.69917  1.0000
  C   C126      1.0  0.48385  0.29335  0.52036  1.0000
  P   P5        1.0  0.22206  0.13261  0.63367  1.0000
  C   C127      1.0  0.21277  0.29031  0.75916  1.0000
  C   C128      1.0  0.09366  0.16771  0.93473  1.0000
  H   H107      1.0  0.44809  0.08444  0.54891  1.0000
  C   C129      1.0  0.49083  0.07672  0.52680  1.0000
  H   H108      1.0  0.04828  0.30988  0.89739  1.0000
  C   C130      1.0  0.36259  0.23279  0.73583  1.0000
  C   C131      1.0  0.29912  0.25431  0.77234  1.0000
  H   H109      1.0  0.37684  0.16813  0.69482  1.0000
  C   C132      1.0  0.19684  0.27151  0.81446  1.0000
  H   H110      1.0  0.18600  0.25480  0.82947  1.0000
  H   H111      1.0  0.41375  0.29713  0.48964  1.0000
  H   H112      1.0  0.38686  0.19422  0.75000  1.0000
  C   C133      1.0  0.27015  0.10993  0.50793  1.0000
  C   C134      1.0  0.01868  0.04807  0.90525  1.0000
  C   C135      1.0  0.20059  0.16742  0.53972  1.0000
  H   H113      1.0  0.27039  0.27689  0.84959  1.0000
  C   C136      1.0  0.21159  0.04423  0.61573  1.0000
  C   C137      1.0  0.48736  0.22285  0.52698  1.0000
  C   C138      1.0  0.31005  0.30562  0.78275  1.0000
  C   C139      1.0  0.45239  0.14497  0.72703  1.0000
  H   H114      1.0  0.43518  0.16703  0.66303  1.0000
  C   C140      1.0  0.36771  0.00514  0.49393  1.0000
  H   H115      1.0  0.04842  0.11861  0.89547  1.0000
  C   C141      1.0  0.20631  0.29729  0.83067  1.0000
  C   C142      1.0  0.24475  0.17549  0.58918  1.0000
  H   H116      1.0  0.47566  0.18106  0.50455  1.0000
  H   H117      1.0  0.42219  0.08108  0.49255  1.0000
  C   C143      1.0  0.22265  0.31592  0.77540  1.0000
  P   P6        1.0  0.03761  0.08559  0.95880  1.0000
  C   C144      1.0  0.22196  0.15537  0.59554  1.0000
  H   H118      1.0  0.26250  0.17846  0.60750  1.0000
  C   C145      1.0  0.35864  0.31007  0.71858  1.0000
  C   C146      1.0  0.43004  0.14410  0.75228  1.0000
  H   H119      1.0  0.42745  0.16170  0.77083  1.0000
  H   H120      1.0  0.47522  0.24155  0.71408  1.0000
  H   H121      1.0  0.39727  0.07940  0.72994  1.0000
  H   H122      1.0  0.39294  0.11991  0.77268  1.0000
  C   C147      1.0  0.22327  0.18750  0.53363  1.0000
  C   C148      1.0  0.45367  0.28748  0.51696  1.0000
  C   C149      1.0  0.16037  0.12447  0.71055  1.0000
  C   C150      1.0  0.46047  0.23229  0.69495  1.0000
  C   C151      1.0  0.48528  0.19396  0.59068  1.0000
  C   C152      1.0  0.31244  0.28060  0.76151  1.0000
  C   C153      1.0  0.22636  0.09552  0.61776  1.0000
  C   C154      1.0  0.44624  0.25104  0.67191  1.0000
  H   H123      1.0  0.29279  0.32372  0.83038  1.0000
  C   C155      1.0  0.42402  0.20927  0.64342  1.0000
  C   C156      1.0  0.49224  0.22387  0.58958  1.0000
  H   H124      1.0  0.18895  0.07688  0.64518  1.0000
  C   C157      1.0  0.05019  0.28904  0.91053  1.0000
  C   C158      1.0  0.45598  0.20183  0.69283  1.0000
  C   C159      1.0  0.43811  0.19045  0.66640  1.0000
  C   C160      1.0  0.46209  0.22699  0.80934  1.0000
  H   H125      1.0  0.36709  0.24390  0.76016  1.0000
  C   C161      1.0  0.41288  0.09747  0.72953  1.0000
  C   C162      1.0  0.07489  0.25932  0.95329  1.0000
  C   C163      1.0  0.03174  0.26534  0.90202  1.0000
  H   H126      1.0  0.11958  0.14750  0.71765  1.0000
  C   C164      1.0  0.13892  0.14479  0.70140  1.0000
  C   C165      1.0  0.28222  0.27786  0.82514  1.0000
  H   H127      1.0  0.27133  0.05618  0.56455  1.0000
  H   H128      1.0  0.04869  0.22314  0.85027  1.0000
  C   C166      1.0  0.20714  0.07288  0.62776  1.0000
  C   C167      1.0  0.47925  0.17863  0.56004  1.0000
  H   H129      1.0  0.09782  0.03028  0.87444  1.0000
  C   C168      1.0  0.28438  0.25292  0.80417  1.0000
  C   C169      1.0  0.43723  0.30112  0.49115  1.0000
  C   C170      1.0  0.16742  0.15785  0.65042  1.0000
  H   H130      1.0  0.12591  0.17748  0.66453  1.0000
  H   H131      1.0  0.16990  0.17138  0.62767  1.0000
  C   C171      1.0  0.14251  0.16158  0.67143  1.0000
  H   H132      1.0  0.41031  0.20015  0.62324  1.0000
  C   C172      1.0  0.06018  0.12943  0.91620  1.0000
  C   C173      1.0  0.24540  0.19139  0.55825  1.0000
  C   C174      1.0  0.05561  0.23614  0.94625  1.0000
  H   H133      1.0  0.16234  0.02552  0.51236  1.0000
  C   C175      1.0  0.43544  0.09788  0.70488  1.0000
  C   C176      1.0  0.05175  0.02206  0.86660  1.0000
  C   C177      1.0  0.49323  0.23852  0.55766  1.0000
  H   H134      1.0  0.09004  0.06562  0.92179  1.0000
  H   H135      1.0  0.45007  0.30335  0.58372  1.0000
  C   C178      1.0  0.41017  0.32441  0.71589  1.0000
  H   H136      1.0  0.01666  0.13335  0.84894  1.0000
  H   H137      1.0  0.23870  0.01581  0.58439  1.0000
  C   C179      1.0  0.27854  0.06137  0.48339  1.0000
  C   C180      1.0  0.07205  0.28580  0.93558  1.0000
  C   C181      1.0  0.30005  0.11644  0.50459  1.0000
  H   H138      1.0  0.48856  0.23358  0.50201  1.0000
  C   C182      1.0  0.00938  0.05803  0.80341  1.0000
  C   C183      1.0  0.03410  0.23911  0.92072  1.0000
  C   C184      1.0  0.17700  0.02529  0.49014  1.0000
  C   C185      1.0  0.48782  0.22227  0.82816  1.0000
  H   H139      1.0  0.23629  0.07783  0.50098  1.0000
  H   H140      1.0  0.05752  0.21577  0.96033  1.0000
  H   H141      1.0  0.23224  0.33339  0.76026  1.0000
  P   P7        1.0  0.26591  0.02469  0.47303  1.0000
  H   H142      1.0  0.48462  0.18247  0.61521  1.0000
  C   C186      1.0  0.30837  0.06847  0.47926  1.0000
  H   H143      1.0  0.30858  0.02730  0.53076  1.0000
  H   H144      1.0  0.50155  0.07770  0.55183  1.0000
  C   C187      1.0  0.48431  0.32803  0.65602  1.0000
  H   H145      1.0  0.44041  0.33244  0.63600  1.0000
  C   C188      1.0  0.48113  0.32534  0.47017  1.0000
  H   H146      1.0  0.01953  0.22084  0.91527  1.0000
  H   H147      1.0  0.20214  0.00531  0.92955  1.0000
  C   C189      1.0  0.01613  0.29558  0.83629  1.0000
  P   P8        1.0  0.50425  0.27649  0.55521  1.0000
  H   H148      1.0  0.49709  0.23537  0.61351  1.0000
  H   H149      1.0  0.21604  0.02598  0.52115  1.0000
  C   C190      1.0  0.20743  0.02550  0.49502  1.0000
  C   C191      1.0  0.29507  0.00790  0.53363  1.0000
  C   C192      1.0  0.50577  0.19014  0.78260  1.0000
  H   H150      1.0  0.00729  0.03714  0.79028  1.0000
  Fe  Fe9       1.0  0.37085  0.33493  0.57948  1.0000
  C   C193      1.0  0.44541  0.00465  0.52625  1.0000
  H   H151      1.0  0.32357  0.05251  0.46864  1.0000
  Fe  Fe10      1.0  0.33664  0.63772  0.37179  1.0000
  S   S19       1.0  0.36035  0.63047  0.32176  1.0000
  Fe  Fe11      1.0  0.34361  0.57287  0.39369  1.0000
  S   S20       1.0  0.36751  0.56113  0.34402  1.0000
  S   S21       1.0  0.33813  0.54825  0.44520  1.0000
  Fe  Fe12      1.0  0.39258  0.60333  0.35174  1.0000
  S   S22       1.0  0.44133  0.61526  0.35377  1.0000
  Fe  Fe13      1.0  0.33299  0.58927  0.31742  1.0000
  S   S23       1.0  0.31507  0.58126  0.26249  1.0000
  S   S24       1.0  0.37037  0.61367  0.40227  1.0000
  S   S25       1.0  0.30741  0.59801  0.36658  1.0000
  Fe  Fe14      1.0  0.16509  0.57392  0.06275  1.0000
  S   S26       1.0  0.13768  0.55931  0.10844  1.0000
  S   S27       1.0  0.17601  0.54905  0.01216  1.0000
  Fe  Fe15      1.0  0.16878  0.63802  0.09081  1.0000
  S   S28       1.0  0.14052  0.62757  0.13689  1.0000
  Fe  Fe16      1.0  0.16887  0.58719  0.14124  1.0000
  S   S29       1.0  0.18549  0.57846  0.19654  1.0000
  Fe  Fe17      1.0  0.11233  0.60112  0.10045  1.0000
  S   S30       1.0  0.06354  0.60646  0.08815  1.0000
  S   S31       1.0  0.19802  0.59855  0.09614  1.0000
  S   S32       1.0  0.13888  0.61494  0.05383  1.0000
  C   C194      1.0  0.02773  0.58715  0.14269  1.0000
  C   C195      1.0  0.02966  0.59850  0.10910  1.0000
  H   H152      1.0  0.38843  0.58769  0.24970  1.0000
  H   H153      1.0  0.04761  0.58252  0.15689  1.0000
  C   C196      1.0  0.45440  0.57377  0.44068  1.0000
  C   C197      1.0  0.27871  0.58205  0.24498  1.0000
  C   C198      1.0  0.27513  0.58313  0.20872  1.0000
  C   C199      1.0  0.24689  0.58290  0.19350  1.0000
  C   C200      1.0  0.22171  0.58097  0.21434  1.0000
  C   C201      1.0  0.22527  0.58027  0.25065  1.0000
  C   C202      1.0  0.25349  0.58104  0.26591  1.0000
  H   H154      1.0  0.29438  0.58397  0.19220  1.0000
  H   H155      1.0  0.24467  0.58338  0.16559  1.0000
  H   H156      1.0  0.20609  0.57863  0.26711  1.0000
  H   H157      1.0  0.25576  0.58005  0.29378  1.0000
  H   H158      1.0  0.25946  0.65079  0.34999  1.0000
  C   C203      1.0  0.47385  0.59478  0.34630  1.0000
  C   C204      1.0  0.01966  0.50999  0.14313  1.0000
  C   C205      1.0  0.36541  0.64319  0.10678  1.0000
  H   H159      1.0  0.14301  0.54090  0.29897  1.0000
  H   H160      1.0  0.33002  0.66617  0.27042  1.0000
  H   H161      1.0  0.14189  0.44566  0.01723  1.0000
  C   C206      1.0  0.16690  0.51366  0.99497  1.0000
  H   H162      1.0  0.37206  0.62200  0.09667  1.0000
  C   C207      1.0  0.07039  0.54386  0.02662  1.0000
  H   H163      1.0  0.43303  0.60944  0.27660  1.0000
  C   C208      1.0  0.35062  0.48921  0.43304  1.0000
  C   C209      1.0  0.39328  0.61083  0.24652  1.0000
  H   H164      1.0  0.35073  0.49436  0.40568  1.0000
  H   H165      1.0  0.13939  0.62077  0.24133  1.0000
  C   C210      1.0  0.07237  0.51243  0.13490  1.0000
  C   C211      1.0  0.36470  0.64808  0.14261  1.0000
  C   C212      1.0  0.42365  0.65316  0.25902  1.0000
  H   H166      1.0  0.08817  0.50475  0.08314  1.0000
  C   C213      1.0  0.34573  0.51150  0.45739  1.0000
  C   C214      1.0  0.07118  0.44534  0.02806  1.0000
  C   C215      1.0  0.28457  0.65548  0.26364  1.0000
  C   C216      1.0  0.37364  0.62862  0.22854  1.0000
  C   C217      1.0  0.15517  0.49116  0.01541  1.0000
  H   H167      1.0  0.06126  0.55304  0.05022  1.0000
  C   C218      1.0  0.35446  0.46001  0.44411  1.0000
  C   C219      1.0  0.49906  0.60286  0.36479  1.0000
  H   H168      1.0  0.35752  0.44284  0.42503  1.0000
  H   H169      1.0  0.45694  0.56663  0.30605  1.0000
  C   C220      1.0  0.10329  0.54877  0.97749  1.0000
  C   C221      1.0  0.31217  0.66466  0.25205  1.0000
  C   C222      1.0  0.24206  0.66594  0.34326  1.0000
  H   H170      1.0  0.05715  0.37213  0.02392  1.0000
  H   H171      1.0  0.16317  0.56783  0.34970  1.0000
  C   C223      1.0  0.44092  0.60087  0.44603  1.0000
  C   C224      1.0  0.50395  0.56118  0.31220  1.0000
  C   C225      1.0  0.05316  0.39536  0.02748  1.0000
  C   C226      1.0  0.14990  0.46311  0.00083  1.0000
  C   C227      1.0  0.14658  0.56437  0.29764  1.0000
  C   C228      1.0  0.07623  0.41536  0.02351  1.0000
  H   H172      1.0  0.39946  0.44188  0.37895  1.0000
  C   C229      1.0  0.41828  0.62309  0.26177  1.0000
  C   C230      1.0  0.16338  0.60970  0.32397  1.0000
  C   C231      1.0  0.21846  0.65660  0.32275  1.0000
  H   H173      1.0  0.44842  0.61982  0.43160  1.0000
  H   H174      1.0  0.21823  0.63425  0.31313  1.0000
  H   H175      1.0  0.00735  0.38977  0.04014  1.0000
  C   C232      1.0  0.43896  0.50019  0.40954  1.0000
  C   C233      1.0  0.42543  0.47245  0.40873  1.0000
  C   C234      1.0  0.41032  0.46305  0.37915  1.0000
  C   C235      1.0  0.40873  0.48111  0.35008  1.0000
  C   C236      1.0  0.42236  0.50857  0.35050  1.0000
  C   C237      1.0  0.43716  0.51819  0.38013  1.0000
  C   C238      1.0  0.18177  0.66040  0.22157  1.0000
  H   H176      1.0  0.49436  0.49530  0.38535  1.0000
  H   H177      1.0  0.09739  0.58167  0.01704  1.0000
  H   H178      1.0  0.05052  0.51991  0.18379  1.0000
  C   C239      1.0  0.02510  0.40534  0.03645  1.0000
  H   H179      1.0  0.18961  0.63856  0.22729  1.0000
  H   H180      1.0  0.01797  0.57465  0.98430  1.0000
  C   C240      1.0  0.47617  0.57317  0.32054  1.0000
  H   H181      1.0  0.46892  0.42987  0.42179  1.0000
  H   H182      1.0  0.49731  0.61935  0.38477  1.0000
  H   H183      1.0  0.39672  0.47398  0.32733  1.0000
  H   H184      1.0  0.42115  0.52265  0.32800  1.0000
  H   H185      1.0  0.44735  0.53967  0.37986  1.0000
  C   C241      1.0  0.04779  0.51450  0.15660  1.0000
  C   C242      1.0  0.48695  0.66702  0.46055  1.0000
  H   H186      1.0  0.47236  0.57246  0.42226  1.0000
  C   C243      1.0  0.37917  0.65878  0.22494  1.0000
  C   C244      1.0  0.48300  0.42188  0.44215  1.0000
  C   C245      1.0  0.04277  0.45570  0.03540  1.0000
  H   H187      1.0  0.35382  0.61881  0.21802  1.0000
  H   H188      1.0  0.09812  0.40771  0.01682  1.0000
  C   C246      1.0  0.06224  0.51577  0.01531  1.0000
  H   H189      1.0  0.37082  0.63034  0.15952  1.0000
  C   C247      1.0  0.09087  0.56024  0.00780  1.0000
  H   H190      1.0  0.08661  0.66480  0.12002  1.0000
  C   C248      1.0  0.01605  0.50365  0.10789  1.0000
  H   H191      1.0  0.42610  0.45797  0.43073  1.0000
  H   H192      1.0  0.08953  0.46037  0.02573  1.0000
  P   P9        1.0  0.45925  0.51307  0.44701  1.0000
  P   P10       1.0  0.03615  0.49457  0.04014  1.0000
  C   C249      1.0  0.13979  0.57948  0.26733  1.0000
  C   C250      1.0  0.06885  0.50614  0.09963  1.0000
  H   H193      1.0  0.15095  0.49513  0.04264  1.0000
  C   C251      1.0  0.44381  0.54857  0.45753  1.0000
  C   C252      1.0  0.15814  0.57952  0.32609  1.0000
  H   H194      1.0  0.13116  0.56773  0.24505  1.0000
  H   H195      1.0  0.17180  0.62115  0.34650  1.0000
  C   C253      1.0  0.04061  0.50222  0.08577  1.0000
  C   C254      1.0  0.15778  0.62483  0.29303  1.0000
  H   H196      1.0  0.09418  0.51602  0.14532  1.0000
  C   C255      1.0  0.14504  0.60963  0.26510  1.0000
  C   C256      1.0  0.07330  0.50519  0.98361  1.0000
  H   H197      1.0  0.24015  0.64505  0.24924  1.0000
  H   H198      1.0  0.28172  0.64901  0.29039  1.0000
  C   C257      1.0  0.01997  0.43539  0.04077  1.0000
  H   H199      1.0  0.44255  0.66264  0.27187  1.0000
  C   C258      1.0  0.26123  0.65318  0.24041  1.0000
  C   C259      1.0  0.49728  0.51888  0.43433  1.0000
  H   H200      1.0  0.19366  0.65705  0.16752  1.0000
  P   P11       1.0  0.16366  0.66396  0.29091  1.0000
  C   C260      1.0  0.31687  0.67094  0.21688  1.0000
  H   H201      1.0  0.35752  0.66146  0.05628  1.0000
  C   C261      1.0  0.40428  0.67098  0.24057  1.0000
  H   H202      1.0  0.49178  0.33990  0.45186  1.0000
  H   H203      1.0  0.49735  0.65545  0.28287  1.0000
  C   C262      1.0  0.26557  0.65979  0.20544  1.0000
  H   H204      1.0  0.02355  0.65892  0.98937  1.0000
  H   H205      1.0  0.06645  0.48412  0.97361  1.0000
  C   C263      1.0  0.29326  0.66878  0.19365  1.0000
  H   H206      1.0  0.24775  0.65677  0.18725  1.0000
  C   C264      1.0  0.18425  0.67086  0.18766  1.0000
  C   C265      1.0  0.35717  0.66541  0.08403  1.0000
  H   H207      1.0  0.03448  0.66150  0.10401  1.0000
  H   H208      1.0  0.50583  0.54532  0.29137  1.0000
  Fe  Fe18      1.0  0.33008  0.37953  0.61586  1.0000
  S   S33       1.0  0.33003  0.35838  0.56240  1.0000
  S   S34       1.0  0.28461  0.38255  0.64275  1.0000
  Fe  Fe19      1.0  0.39682  0.39034  0.61178  1.0000
  S   S35       1.0  0.40073  0.37029  0.55904  1.0000
  S   S36       1.0  0.43627  0.40874  0.64106  1.0000
  Fe  Fe20      1.0  0.35990  0.39551  0.54610  1.0000
  S   S37       1.0  0.35867  0.41556  0.49183  1.0000
  H   H209      1.0  0.02993  0.41395  0.95436  1.0000
  S   S38       1.0  0.35759  0.41805  0.59793  1.0000
  S   S39       1.0  0.36933  0.35352  0.63344  1.0000
  Fe  Fe21      1.0  0.11256  0.39596  0.82858  1.0000
  S   S40       1.0  0.11100  0.37445  0.88041  1.0000
  S   S41       1.0  0.07032  0.41110  0.80230  1.0000
  Fe  Fe22      1.0  0.17994  0.38853  0.82227  1.0000
  S   S42       1.0  0.18175  0.36608  0.87484  1.0000
  S   S43       1.0  0.22440  0.39642  0.79363  1.0000
  H   H210      1.0  0.38649  0.57990  0.50120  1.0000
  Fe  Fe23      1.0  0.15081  0.40173  0.89357  1.0000
  C   C266      1.0  0.45684  0.48843  0.48392  1.0000
  S   S44       1.0  0.14140  0.36125  0.80434  1.0000
  S   S45       1.0  0.15090  0.42543  0.84239  1.0000
  H   H211      1.0  0.12022  0.56097  0.96387  1.0000
  H   H212      1.0  0.18154  0.52498  0.94349  1.0000
  C   C267      1.0  0.45274  0.45151  0.54215  1.0000
  H   H213      1.0  0.10613  0.45087  0.90503  1.0000
  C   C268      1.0  0.02627  0.53730  0.90796  1.0000
  H   H214      1.0  0.28721  0.49495  0.74829  1.0000
  C   C269      1.0  0.03527  0.40375  0.82099  1.0000
  C   C270      1.0  0.03255  0.39191  0.85419  1.0000
  H   H215      1.0  0.48026  0.34207  0.67827  1.0000
  H   H216      1.0  0.05189  0.38724  0.86912  1.0000
  C   C271      1.0  0.26866  0.38585  0.68521  1.0000
  C   C272      1.0  0.23813  0.38149  0.68926  1.0000
  C   C273      1.0  0.22421  0.38450  0.72199  1.0000
  C   C274      1.0  0.24061  0.39213  0.75138  1.0000
  C   C275      1.0  0.27116  0.39640  0.74734  1.0000
  C   C276      1.0  0.28508  0.39333  0.71460  1.0000
  H   H217      1.0  0.22505  0.37596  0.66679  1.0000
  H   H218      1.0  0.20075  0.38118  0.72445  1.0000
  H   H219      1.0  0.28414  0.40246  0.76971  1.0000
  H   H220      1.0  0.30839  0.39738  0.71201  1.0000
  H   H221      1.0  0.03872  0.46381  0.83424  1.0000
  C   C277      1.0  0.34982  0.47519  0.50394  1.0000
  C   C278      1.0  0.05880  0.57968  0.91051  1.0000
  H   H222      1.0  0.34927  0.46993  0.53124  1.0000
  H   H223      1.0  0.24463  0.46094  0.74507  1.0000
  C   C279      1.0  0.06555  0.47412  0.89712  1.0000
  C   C280      1.0  0.47264  0.40069  0.62727  1.0000
  C   C281      1.0  0.47794  0.38426  0.59724  1.0000
  C   C282      1.0  0.28374  0.48652  0.66033  1.0000
  H   H224      1.0  0.45979  0.37652  0.58180  1.0000
  H   H225      1.0  0.24813  0.52883  0.60260  1.0000
  C   C283      1.0  0.26470  0.54538  0.60781  1.0000
  H   H226      1.0  0.04643  0.46779  0.77155  1.0000
  C   C284      1.0  0.38485  0.47224  0.64919  1.0000
  C   C285      1.0  0.02005  0.50726  0.84014  1.0000
  C   C286      1.0  0.29328  0.53716  0.61717  1.0000
  H   H227      1.0  0.28841  0.51694  0.54948  1.0000
  H   H228      1.0  0.29427  0.43648  0.60740  1.0000
  H   H229      1.0  0.07607  0.59293  0.89906  1.0000
  C   C287      1.0  0.25530  0.46848  0.72148  1.0000
  C   C288      1.0  0.03239  0.48385  0.82143  1.0000
  P   P12       1.0  0.01354  0.50446  0.88618  1.0000
  C   C289      1.0  0.03522  0.47502  0.90390  1.0000
  C   C290      1.0  0.27975  0.47736  0.52133  1.0000
  C   C291      1.0  0.34562  0.50433  0.49286  1.0000
  H   H230      1.0  0.05795  0.54905  0.86818  1.0000
  C   C292      1.0  0.34143  0.49375  0.62311  1.0000
  H   H231      1.0  0.34139  0.46725  0.66974  1.0000
  C   C293      1.0  0.35909  0.50460  0.59607  1.0000
  C   C294      1.0  0.38934  0.49925  0.59557  1.0000
  C   C295      1.0  0.40221  0.48303  0.62212  1.0000
  C   C296      1.0  0.25895  0.46812  0.65876  1.0000
  C   C297      1.0  0.06995  0.43001  0.93132  1.0000
  C   C298      1.0  0.28342  0.43218  0.55357  1.0000
  C   C299      1.0  0.27855  0.44676  0.52236  1.0000
  H   H232      1.0  0.31185  0.51169  0.69457  1.0000
  C   C300      1.0  0.28973  0.44814  0.58366  1.0000
  H   H233      1.0  0.34933  0.51669  0.57496  1.0000
  H   H234      1.0  0.40271  0.50715  0.57424  1.0000
  H   H235      1.0  0.42552  0.47813  0.62138  1.0000
  C   C301      1.0  0.48955  0.39444  0.49502  1.0000
  H   H236      1.0  0.28294  0.40843  0.55436  1.0000
  C   C302      1.0  0.41939  0.55114  0.47978  1.0000
  H   H237      1.0  0.25025  0.46064  0.63421  1.0000
  C   C303      1.0  0.29337  0.49675  0.69280  1.0000
  C   C304      1.0  0.48403  0.64683  0.48756  1.0000
  C   C305      1.0  0.02798  0.51124  0.76808  1.0000
  H   H238      1.0  0.34174  0.52142  0.51182  1.0000
  C   C306      1.0  0.35452  0.47730  0.64959  1.0000
  C   C307      1.0  0.48215  0.48052  0.50246  1.0000
  C   C308      1.0  0.35388  0.45278  0.47955  1.0000
  C   C309      1.0  0.27939  0.48748  0.72325  1.0000
  P   P13       1.0  0.30208  0.49882  0.62130  1.0000
  H   H239      1.0  0.10410  0.51239  0.94183  1.0000
  H   H240      1.0  0.33597  0.55327  0.63348  1.0000
  H   H241      1.0  0.17116  0.47592  0.91773  1.0000
  H   H242      1.0  0.48029  0.38159  0.51599  1.0000
  C   C310      1.0  0.35083  0.33985  0.71878  1.0000
  C   C311      1.0  0.37251  0.36166  0.71832  1.0000
  H   H243      1.0  0.49291  0.42320  0.67032  1.0000
  H   H244      1.0  0.45111  0.43719  0.56449  1.0000
  C   C312      1.0  0.00956  0.41010  0.80227  1.0000
  H   H245      1.0  0.04043  0.35432  0.76912  1.0000
  C   C313      1.0  0.02251  0.45334  0.92502  1.0000
  H   H246      1.0  0.22615  0.44444  0.68796  1.0000
  H   H247      1.0  0.27279  0.61960  0.60932  1.0000
  C   C314      1.0  0.29091  0.47885  0.58296  1.0000
  C   C315      1.0  0.42749  0.45899  0.52381  1.0000
  H   H248      1.0  0.40964  0.53225  0.49197  1.0000
  H   H249      1.0  0.32292  0.60540  0.62773  1.0000
  C   C316      1.0  0.03659  0.48597  0.78562  1.0000
  H   H250      1.0  0.08346  0.41262  0.94170  1.0000
  C   C317      1.0  0.42948  0.47747  0.49503  1.0000
  H   H251      1.0  0.27698  0.48860  0.49684  1.0000
  H   H252      1.0  0.01136  0.41940  0.77661  1.0000
  H   H253      1.0  0.23542  0.58122  0.59711  1.0000
  C   C318      1.0  0.17239  0.50784  0.95958  1.0000
  H   H254      1.0  0.40630  0.45030  0.53179  1.0000
  C   C319      1.0  0.25741  0.57502  0.60481  1.0000
  H   H255      1.0  0.03117  0.51272  0.74029  1.0000
  C   C320      1.0  0.30672  0.58862  0.62202  1.0000
  C   C321      1.0  0.16651  0.47998  0.94485  1.0000
  C   C322      1.0  0.27844  0.59663  0.61174  1.0000
  H   H256      1.0  0.39481  0.45883  0.66908  1.0000
  C   C323      1.0  0.08276  0.45162  0.91061  1.0000
  H   H257      1.0  0.27465  0.43433  0.49879  1.0000
  C   C324      1.0  0.49673  0.41035  0.64710  1.0000
  Fe  Fe24      1.0  0.14151  0.34095  0.85758  1.0000
  C   C325      1.0  0.31410  0.55899  0.62500  1.0000
  C   C326      1.0  0.24493  0.45907  0.68925  1.0000
  S   S46       1.0  0.14914  0.42109  0.94892  1.0000
  H   H258      1.0  0.07592  0.49066  0.88110  1.0000
  C   C327      1.0  0.03984  0.43087  0.93853  1.0000
  C   C328      1.0  0.28617  0.49338  0.55141  1.0000
  C   C329      1.0  0.40216  0.35396  0.71659  1.0000
  C   C330      1.0  0.01498  0.53437  0.78639  1.0000
  H   H259      1.0  0.40961  0.48293  0.48120  1.0000
  C   C331      1.0  0.04837  0.55481  0.89303  1.0000
  C   C332      1.0  0.48008  0.46225  0.53146  1.0000
  C   C333      1.0  0.40612  0.57838  0.48528  1.0000
  H   H260      1.0  0.46652  0.64928  0.50645  1.0000
  H   H261      1.0  0.41886  0.37095  0.71494  1.0000
  H   H262      1.0  0.36626  0.38457  0.71798  1.0000
  C   C334      1.0  0.01572  0.54447  0.94114  1.0000
  C   C335      1.0  0.01084  0.53233  0.82228  1.0000
  H   H263      1.0  0.32792  0.34625  0.71862  1.0000
  C   C336      1.0  0.04751  0.58708  0.94315  1.0000
  C   C337      1.0  0.50362  0.62345  0.49015  1.0000
  H   H264      1.0  0.22693  0.33939  0.82370  1.0000
  H   H265      1.0  0.49973  0.45608  0.54546  1.0000
  C   C338      1.0  0.15555  0.45726  0.96550  1.0000
  H   H266      1.0  0.00796  0.55381  0.77273  1.0000
  H   H267      1.0  0.05603  0.60599  0.95703  1.0000
  C   C339      1.0  0.02604  0.56940  0.95852  1.0000
  H   H268      1.0  0.50130  0.60776  0.51100  1.0000
  C   C340      1.0  0.09425  0.52137  0.96517  1.0000
  H   H269      1.0  0.50361  0.48805  0.49455  1.0000
  C   C341      1.0  0.41697  0.60326  0.46858  1.0000
  H   H270      1.0  0.40596  0.62413  0.47184  1.0000
  H   H271      1.0  0.44795  0.39961  0.46930  1.0000
  C   C342      1.0  0.47128  0.40463  0.46871  1.0000
  Fe  Fe25      1.0  0.35593  0.90252  0.38409  1.0000
  S   S47       1.0  0.36535  0.93356  0.34040  1.0000
  S   S48       1.0  0.34843  0.91614  0.44076  1.0000
  Fe  Fe26      1.0  0.36169  0.84834  0.33715  1.0000
  S   S49       1.0  0.37189  0.87613  0.29053  1.0000
  S   S50       1.0  0.36599  0.80017  0.32235  1.0000
  Fe  Fe27      1.0  0.40129  0.90190  0.32593  1.0000
  S   S51       1.0  0.44584  0.91786  0.30656  1.0000
  Fe  Fe28      1.0  0.33492  0.90494  0.30838  1.0000
  S   S52       1.0  0.30517  0.92640  0.26782  1.0000
  S   S53       1.0  0.39381  0.87234  0.37138  1.0000
  S   S54       1.0  0.32270  0.87575  0.35327  1.0000
  C   C343      1.0  0.10542  0.68235  0.28873  1.0000
  Fe  Fe29      1.0  0.16734  0.90693  0.06287  1.0000
  S   S55       1.0  0.15374  0.92710  0.11364  1.0000
  S   S56       1.0  0.19467  0.93221  0.02300  1.0000
  Fe  Fe30      1.0  0.13918  0.84786  0.08131  1.0000
  S   S57       1.0  0.12317  0.86435  0.13299  1.0000
  S   S58       1.0  0.12387  0.80307  0.06236  1.0000
  Fe  Fe31      1.0  0.11006  0.90501  0.10448  1.0000
  S   S59       1.0  0.06771  0.93137  0.10956  1.0000
  Fe  Fe32      1.0  0.16828  0.88488  0.13814  1.0000
  S   S60       1.0  0.19078  0.87689  0.19045  1.0000
  S   S61       1.0  0.12297  0.88739  0.05225  1.0000
  S   S62       1.0  0.18498  0.86568  0.08778  1.0000
  S   S63       1.0  0.19118  0.68258  0.08615  1.0000
  C   C344      1.0  0.14293  0.76984  0.06945  1.0000
  C   C345      1.0  0.12797  0.74308  0.06504  1.0000
  C   C346      1.0  0.14238  0.71618  0.07030  1.0000
  C   C347      1.0  0.17205  0.71582  0.07950  1.0000
  C   C348      1.0  0.18711  0.74259  0.08355  1.0000
  C   C349      1.0  0.17261  0.76949  0.07866  1.0000
  H   H272      1.0  0.10506  0.74313  0.05761  1.0000
  H   H273      1.0  0.13060  0.69572  0.06686  1.0000
  H   H274      1.0  0.21014  0.74254  0.09029  1.0000
  H   H275      1.0  0.18448  0.78994  0.08154  1.0000
  C   C350      1.0  0.03362  0.91294  0.11513  1.0000
  C   C351      1.0  0.03232  0.88246  0.11852  1.0000
  H   H276      1.0  0.48375  0.68133  0.33619  1.0000
  H   H277      1.0  0.05236  0.86977  0.11815  1.0000
  H   H278      1.0  0.10589  0.67625  0.26152  1.0000
  C   C352      1.0  0.27383  0.91175  0.24608  1.0000
  C   C353      1.0  0.26248  0.92671  0.21721  1.0000
  C   C354      1.0  0.23743  0.91621  0.19946  1.0000
  C   C355      1.0  0.22296  0.89092  0.21095  1.0000
  C   C356      1.0  0.23412  0.87617  0.24005  1.0000
  C   C357      1.0  0.25957  0.88626  0.25726  1.0000
  H   H279      1.0  0.27324  0.94652  0.20851  1.0000
  H   H280      1.0  0.22927  0.92766  0.17702  1.0000
  H   H281      1.0  0.22302  0.85674  0.24928  1.0000
  H   H282      1.0  0.26785  0.87466  0.27955  1.0000
  C   C358      1.0  0.35340  0.76786  0.34287  1.0000
  C   C359      1.0  0.36017  0.74073  0.32742  1.0000
  C   C360      1.0  0.35038  0.71435  0.34212  1.0000
  C   C361      1.0  0.33359  0.71473  0.37249  1.0000
  C   C362      1.0  0.32695  0.74182  0.38823  1.0000
  C   C363      1.0  0.33691  0.76835  0.37354  1.0000
  H   H283      1.0  0.37294  0.73997  0.30378  1.0000
  H   H284      1.0  0.35558  0.69375  0.32969  1.0000
  H   H285      1.0  0.31397  0.74228  0.41179  1.0000
  H   H286      1.0  0.33163  0.78909  0.38575  1.0000
  C   C364      1.0  0.47913  0.90641  0.32575  1.0000
  P   P14       1.0  0.49097  0.94891  0.46211  1.0000
  C   C365      1.0  0.47933  0.88597  0.35259  1.0000
  C   C366      1.0  0.08579  0.71157  0.12834  1.0000
  H   H287      1.0  0.45888  0.87705  0.36225  1.0000
  C   C367      1.0  0.18038  0.96021  0.99600  1.0000
  C   C368      1.0  0.48589  0.97067  0.42364  1.0000
  C   C369      1.0  0.24805  0.71120  0.13925  1.0000
  C   C370      1.0  0.26898  0.71664  0.11352  1.0000
  C   C371      1.0  0.28552  0.74250  0.11451  1.0000
  C   C372      1.0  0.28114  0.76289  0.14124  1.0000
  C   C373      1.0  0.25965  0.75779  0.16681  1.0000
  C   C374      1.0  0.24324  0.73174  0.16562  1.0000
  P   P15       1.0  0.25124  0.78528  0.19924  1.0000
  C   C375      1.0  0.26202  0.77387  0.24230  1.0000
  C   C376      1.0  0.26990  0.81897  0.18764  1.0000
  C   C377      1.0  0.29793  0.82537  0.20092  1.0000
  C   C378      1.0  0.31201  0.85171  0.19253  1.0000
  C   C379      1.0  0.29872  0.87136  0.16983  1.0000
  C   C380      1.0  0.27146  0.86455  0.15527  1.0000
  C   C381      1.0  0.25701  0.83857  0.16425  1.0000
  C   C382      1.0  0.26757  0.79505  0.26811  1.0000
  C   C383      1.0  0.27630  0.78656  0.30129  1.0000
  C   C384      1.0  0.27876  0.75687  0.30930  1.0000
  C   C385      1.0  0.27259  0.73564  0.28418  1.0000
  C   C386      1.0  0.26441  0.74402  0.25074  1.0000
  C   C387      1.0  0.21201  0.79167  0.19841  1.0000
  C   C388      1.0  0.19690  0.80001  0.22869  1.0000
  C   C389      1.0  0.16689  0.80649  0.22750  1.0000
  C   C390      1.0  0.15173  0.80468  0.19613  1.0000
  C   C391      1.0  0.16647  0.79605  0.16597  1.0000
  C   C392      1.0  0.19646  0.78949  0.16706  1.0000
  H   H288      1.0  0.23491  0.69137  0.13804  1.0000
  C   C393      1.0  0.08440  0.93557  0.98228  1.0000
  H   H289      1.0  0.30133  0.74702  0.09416  1.0000
  H   H290      1.0  0.29399  0.78288  0.14119  1.0000
  H   H291      1.0  0.22629  0.72764  0.18473  1.0000
  H   H292      1.0  0.30877  0.81036  0.21825  1.0000
  H   H293      1.0  0.33296  0.85722  0.20422  1.0000
  H   H294      1.0  0.30924  0.89214  0.16417  1.0000
  H   H295      1.0  0.26078  0.87998  0.13820  1.0000
  H   H296      1.0  0.23546  0.83438  0.15351  1.0000
  H   H297      1.0  0.26537  0.81821  0.26257  1.0000
  H   H298      1.0  0.28142  0.80304  0.32076  1.0000
  H   H299      1.0  0.28553  0.75027  0.33499  1.0000
  H   H300      1.0  0.27457  0.71265  0.29059  1.0000
  H   H301      1.0  0.26028  0.72704  0.23178  1.0000
  H   H302      1.0  0.20831  0.80243  0.25306  1.0000
  H   H303      1.0  0.15560  0.81398  0.25065  1.0000
  H   H304      1.0  0.12873  0.81068  0.19495  1.0000
  H   H305      1.0  0.15473  0.79525  0.14158  1.0000
  H   H306      1.0  0.20763  0.78359  0.14320  1.0000
  C   C394      1.0  0.38271  0.73492  0.19527  1.0000
  C   C395      1.0  0.38820  0.76442  0.20315  1.0000
  C   C396      1.0  0.37062  0.77909  0.22741  1.0000
  C   C397      1.0  0.34748  0.76431  0.24361  1.0000
  H   H307      1.0  0.39668  0.72371  0.17668  1.0000
  H   H308      1.0  0.40626  0.77589  0.19074  1.0000
  H   H309      1.0  0.37512  0.80178  0.23420  1.0000
  H   H310      1.0  0.22262  0.73717  0.35523  1.0000
  H   H311      1.0  0.31750  0.98239  0.34753  1.0000
  H   H312      1.0  0.02796  0.69160  0.04011  1.0000
  C   C398      1.0  0.11856  0.97828  0.16344  1.0000
  C   C399      1.0  0.15159  0.97031  0.99983  1.0000
  H   H313      1.0  0.10891  0.71299  0.13485  1.0000
  H   H314      1.0  0.48580  0.83077  0.31419  1.0000
  H   H315      1.0  0.40873  0.69423  0.23924  1.0000
  C   C400      1.0  0.03551  0.89421  0.02481  1.0000
  C   C401      1.0  0.17747  0.97374  0.18285  1.0000
  H   H316      1.0  0.48394  0.84097  0.44712  1.0000
  C   C402      1.0  0.17386  0.69874  0.17939  1.0000
  C   C403      1.0  0.48051  0.00433  0.36326  1.0000
  H   H317      1.0  0.29737  0.97137  0.15183  1.0000
  C   C404      1.0  0.34215  0.73479  0.23609  1.0000
  C   C405      1.0  0.16963  0.99313  0.15622  1.0000
  H   H318      1.0  0.00805  0.95261  0.11278  1.0000
  C   C406      1.0  0.30822  0.99057  0.37166  1.0000
  C   C407      1.0  0.34819  0.69257  0.09709  1.0000
  C   C408      1.0  0.27670  0.96948  0.13812  1.0000
  C   C409      1.0  0.35961  0.71987  0.21176  1.0000
  C   C410      1.0  0.07932  0.69310  0.30314  1.0000
  C   C411      1.0  0.35750  0.95035  0.46059  1.0000
  C   C412      1.0  0.44118  0.91361  0.45961  1.0000
  H   H319      1.0  0.50149  0.75439  0.39756  1.0000
  C   C413      1.0  0.19843  0.97284  0.97030  1.0000
  H   H320      1.0  0.13746  0.96073  0.01937  1.0000
  H   H321      1.0  0.15442  0.73847  0.19887  1.0000
  C   C414      1.0  0.22767  0.98784  0.12608  1.0000
  C   C415      1.0  0.42842  0.74221  0.38622  1.0000
  C   C416      1.0  0.45490  0.75752  0.39002  1.0000
  C   C417      1.0  0.48117  0.74225  0.39508  1.0000
  C   C418      1.0  0.37095  0.00203  0.45778  1.0000
  C   C419      1.0  0.03892  0.73514  0.11832  1.0000
  H   H322      1.0  0.40810  0.75404  0.38202  1.0000
  H   H323      1.0  0.07517  0.95174  0.03377  1.0000
  C   C420      1.0  0.06868  0.73694  0.12722  1.0000
  H   H324      1.0  0.42874  0.93371  0.46279  1.0000
  C   C421      1.0  0.16635  0.86132  0.97507  1.0000
  H   H325      1.0  0.18050  0.72090  0.31971  1.0000
  H   H326      1.0  0.47187  0.68528  0.45964  1.0000
  C   C422      1.0  0.49030  0.75688  0.30057  1.0000
  H   H327      1.0  0.05760  0.85713  0.00243  1.0000
  C   C423      1.0  0.44896  0.80156  0.30969  1.0000
  C   C424      1.0  0.43967  0.77267  0.30452  1.0000
  C   C425      1.0  0.46027  0.75030  0.30031  1.0000
  H   H328      1.0  0.43281  0.81880  0.31336  1.0000
  H   H329      1.0  0.41647  0.76761  0.30415  1.0000
  H   H330      1.0  0.45289  0.72785  0.29706  1.0000
  C   C426      1.0  0.27191  0.94584  0.11563  1.0000
  P   P16       1.0  0.35309  0.68155  0.20229  1.0000
  C   C427      1.0  0.36618  0.97478  0.44123  1.0000
  C   C428      1.0  0.12664  0.95890  0.18966  1.0000
  H   H331      1.0  0.34162  0.70967  0.07938  1.0000
  C   C429      1.0  0.00729  0.92904  0.11546  1.0000
  C   C430      1.0  0.46747  0.96128  0.39660  1.0000
  C   C431      1.0  0.00778  0.67940  0.03627  1.0000
  C   C432      1.0  0.42597  0.88708  0.45646  1.0000
  H   H332      1.0  0.02633  0.75516  0.11731  1.0000
  H   H333      1.0  0.04977  0.89501  0.04724  1.0000
  C   C433      1.0  0.02149  0.87154  0.97061  1.0000
  C   C434      1.0  0.49987  0.78598  0.30504  1.0000
  C   C435      1.0  0.50160  0.99702  0.42009  1.0000
  H   H334      1.0  0.00881  0.92951  0.04279  1.0000
  H   H335      1.0  0.33422  0.77552  0.26294  1.0000
  C   C436      1.0  0.22299  0.96381  0.10394  1.0000
  C   C437      1.0  0.07205  0.95516  0.00617  1.0000
  H   H336      1.0  0.42941  0.84047  0.44904  1.0000
  C   C438      1.0  0.12879  0.68565  0.34498  1.0000
  C   C439      1.0  0.10264  0.69638  0.35933  1.0000
  H   H337      1.0  0.45501  0.78125  0.38854  1.0000
  H   H338      1.0  0.45555  0.94075  0.39797  1.0000
  H   H339      1.0  0.06003  0.69559  0.28700  1.0000
  C   C440      1.0  0.16199  0.71667  0.20528  1.0000
  H   H340      1.0  0.09583  0.97910  0.15513  1.0000
  C   C441      1.0  0.47895  0.80822  0.31012  1.0000
  C   C442      1.0  0.48109  0.71153  0.39665  1.0000
  H   H341      1.0  0.17532  0.70660  0.15297  1.0000
  C   C443      1.0  0.04005  0.87291  0.99932  1.0000
  C   C444      1.0  0.45437  0.69628  0.39267  1.0000
  C   C445      1.0  0.07329  0.68446  0.12001  1.0000
  H   H342      1.0  0.32480  0.72364  0.24990  1.0000
  H   H343      1.0  0.26172  0.70198  0.37108  1.0000
  H   H344      1.0  0.15027  0.72056  0.25895  1.0000
  H   H345      1.0  0.30693  0.94801  0.39550  1.0000
  H   H346      1.0  0.40215  0.88687  0.45725  1.0000
  H   H347      1.0  0.20021  0.97137  0.19046  1.0000
  C   C446      1.0  0.15960  0.70635  0.23926  1.0000
  C   C447      1.0  0.02611  0.70787  0.11017  1.0000
  C   C448      1.0  0.24503  0.94301  0.09856  1.0000
  C   C449      1.0  0.35574  0.67534  0.15601  1.0000
  C   C450      1.0  0.16862  0.67776  0.24743  1.0000
  C   C451      1.0  0.34732  0.69750  0.13292  1.0000
  C   C452      1.0  0.42818  0.71160  0.38746  1.0000
  H   H348      1.0  0.07864  0.75810  0.13258  1.0000
  S   S64       1.0  0.31968  0.68191  0.39052  1.0000
  C   C453      1.0  0.29022  0.98148  0.42987  1.0000
  C   C454      1.0  0.14116  0.99302  0.97856  1.0000
  H   H349      1.0  0.29624  0.67320  0.16634  1.0000
  H   H350      1.0  0.33968  0.71845  0.14263  1.0000
  H   H351      1.0  0.45048  0.97082  0.34588  1.0000
  C   C455      1.0  0.01232  0.91408  0.02189  1.0000
  C   C456      1.0  0.30207  0.97114  0.39863  1.0000
  H   H352      1.0  0.36840  0.97289  0.41337  1.0000
  H   H353      1.0  0.24110  0.92472  0.08107  1.0000
  H   H354      1.0  0.28892  0.92962  0.11157  1.0000
  H   H355      1.0  0.40765  0.69970  0.38422  1.0000
  H   H356      1.0  0.27183  0.70101  0.09249  1.0000
  C   C457      1.0  0.25464  0.99036  0.14351  1.0000
  C   C458      1.0  0.15610  0.95661  0.19934  1.0000
  C   C459      1.0  0.22128  0.71463  0.34637  1.0000
  H   H357      1.0  0.28615  0.96592  0.45042  1.0000
  C   C460      1.0  0.46465  0.97825  0.36671  1.0000
  C   C461      1.0  0.05564  0.97893  0.99458  1.0000
  C   C462      1.0  0.44136  0.86092  0.45189  1.0000
  C   C463      1.0  0.13719  0.85172  0.97420  1.0000
  H   H358      1.0  0.16256  0.94081  0.21882  1.0000
  H   H359      1.0  0.11019  0.94495  0.20165  1.0000
  H   H360      1.0  0.20232  0.96131  0.09047  1.0000
  C   C464      1.0  0.19547  0.67601  0.31510  1.0000
  H   H361      1.0  0.09702  0.91739  0.99201  1.0000
  H   H362      1.0  0.13071  0.83249  0.98892  1.0000
  C   C465      1.0  0.24338  0.69486  0.35520  1.0000
  H   H363      1.0  0.45382  0.67250  0.39312  1.0000
  C   C466      1.0  0.19749  0.70531  0.32624  1.0000
  C   C467      1.0  0.04365  0.68263  0.11093  1.0000
  C   C468      1.0  0.48743  0.88776  0.45386  1.0000
  H   H364      1.0  0.10141  0.70142  0.38679  1.0000
  C   C469      1.0  0.47205  0.91419  0.45818  1.0000
  H   H365      1.0  0.18238  0.84957  0.99035  1.0000
  H   H366      1.0  0.14745  0.68208  0.36177  1.0000
  C   C470      1.0  0.13059  0.67932  0.30936  1.0000
  H   H367      1.0  0.04616  0.99404  0.01319  1.0000
  C   C471      1.0  0.13993  0.99523  0.14659  1.0000
  C   C472      1.0  0.07797  0.70027  0.33838  1.0000
  H   H368      1.0  0.05767  0.70846  0.34954  1.0000
  C   C473      1.0  0.47206  0.86125  0.45077  1.0000
  H   H369      1.0  0.11876  0.00035  0.98144  1.0000
  C   C474      1.0  0.50574  0.67274  0.33402  1.0000
  H   H370      1.0  0.50580  0.73918  0.29722  1.0000
  H   H371      1.0  0.43677  0.00048  0.58090  1.0000
  C   C475      1.0  0.04054  0.90135  0.89124  1.0000
  C   C476      1.0  0.05185  0.98338  0.95907  1.0000
  H   H372      1.0  0.13344  0.92821  0.79537  1.0000
  C   C477      1.0  0.02636  0.85473  0.86593  1.0000
  H   H373      1.0  0.06198  0.96823  0.90767  1.0000
  C   C478      1.0  0.14269  0.96581  0.82750  1.0000
  P   P17       1.0  0.09693  0.91453  0.91553  1.0000
  C   C479      1.0  0.46321  0.96480  0.56141  1.0000
  C   C480      1.0  0.14011  0.97815  0.86056  1.0000
  C   C481      1.0  0.36048  0.98040  0.51348  1.0000
  C   C482      1.0  0.47656  0.95232  0.53215  1.0000
  H   H374      1.0  0.10884  0.90053  0.84201  1.0000
  C   C483      1.0  0.47511  0.96638  0.49987  1.0000
  C   C484      1.0  0.26258  0.95622  0.54138  1.0000
  C   C485      1.0  0.01921  0.88326  0.87613  1.0000
  H   H375      1.0  0.16050  0.92272  0.92622  1.0000
  H   H376      1.0  0.35882  0.98217  0.54135  1.0000
  C   C486      1.0  0.07636  0.86249  0.88539  1.0000
  C   C487      1.0  0.15375  0.90253  0.93862  1.0000
  C   C488      1.0  0.06919  0.89099  0.89650  1.0000
  H   H377      1.0  0.12417  0.97266  0.91241  1.0000
  C   C489      1.0  0.12581  0.96277  0.88699  1.0000
  C   C490      1.0  0.05496  0.84439  0.87045  1.0000
  C   C491      1.0  0.45911  0.99253  0.49702  1.0000
  H   H378      1.0  0.34855  0.93451  0.51215  1.0000
  C   C492      1.0  0.08066  0.93974  0.94651  1.0000
  H   H379      1.0  0.22071  0.96509  0.96703  1.0000
  H   H380      1.0  0.28777  0.94970  0.58793  1.0000
  C   C493      1.0  0.35496  0.95330  0.49684  1.0000
  C   C494      1.0  0.11713  0.92230  0.84750  1.0000
  C   C495      1.0  0.06454  0.96406  0.93509  1.0000
  H   H381      1.0  0.06062  0.82236  0.86219  1.0000
  H   H382      1.0  0.48783  0.93154  0.53458  1.0000
  H   H383      1.0  0.03462  0.92338  0.89859  1.0000
  H   H384      1.0  0.09854  0.85425  0.88797  1.0000
  C   C496      1.0  0.11420  0.93475  0.88073  1.0000
  H   H385      1.0  0.03935  0.00197  0.95012  1.0000
  H   H386      1.0  0.31639  0.99569  0.58117  1.0000
  C   C497      1.0  0.13118  0.93788  0.82096  1.0000
  C   C498      1.0  0.12447  0.89283  0.93717  1.0000
  C   C499      1.0  0.11628  0.86751  0.95555  1.0000
  C   C500      1.0  0.28361  0.96397  0.56611  1.0000
  H   H387      1.0  0.09367  0.86021  0.95602  1.0000
  C   C501      1.0  0.44765  0.99101  0.55844  1.0000
  H   H388      1.0  0.25049  0.93583  0.54396  1.0000
  H   H389      1.0  0.46442  0.95388  0.58625  1.0000
  C   C502      1.0  0.29972  0.98987  0.56231  1.0000
  H   H390      1.0  0.19704  0.89460  0.95887  1.0000
  H   H391      1.0  0.14948  0.99956  0.86589  1.0000
  H   H392      1.0  0.15385  0.97784  0.80710  1.0000
  H   H393      1.0  0.00983  0.84071  0.85423  1.0000
  C   C503      1.0  0.17462  0.88663  0.95718  1.0000
  C   C504      1.0  0.18795  0.99563  0.94897  1.0000
  H   H394      1.0  0.02468  0.85461  0.95118  1.0000
  C   C505      1.0  0.25741  0.97454  0.51307  1.0000
  H   H395      1.0  0.24115  0.96811  0.49402  1.0000
  C   C506      1.0  0.27337  0.00076  0.50921  1.0000
  H   H396      1.0  0.45637  0.00321  0.47226  1.0000
  C   C507      1.0  0.65615  0.02504  0.46051  1.0000
  C   C508      1.0  0.78470  0.01155  0.97057  1.0000
  H   H397      1.0  0.94568  0.00889  0.10985  1.0000
  C   C509      1.0  0.57428  0.05863  0.39796  1.0000
  H   H398      1.0  0.55415  0.09180  0.42981  1.0000
  H   H399      1.0  0.57523  0.07237  0.37515  1.0000
  H   H400      1.0  0.72223  0.05285  0.45806  1.0000
  C   C510      1.0  0.58550  0.03015  0.39657  1.0000
  C   C511      1.0  0.56235  0.06953  0.42892  1.0000
  H   H401      1.0  0.93382  0.06301  0.98721  1.0000
  H   H402      1.0  0.87320  0.04276  0.02922  1.0000
  C   C512      1.0  0.86908  0.02377  0.01303  1.0000
  H   H403      1.0  0.65045  0.04301  0.44364  1.0000
  C   C513      1.0  0.58489  0.01263  0.42615  1.0000
  C   C514      1.0  0.97921  0.07326  0.97556  1.0000
  H   H404      1.0  0.51172  0.03367  0.38699  1.0000
  C   C515      1.0  0.56138  0.05192  0.45869  1.0000
  C   C516      1.0  0.73349  0.00705  0.45866  1.0000
  C   C517      1.0  0.94917  0.07939  0.97767  1.0000
  H   H405      1.0  0.76676  0.00983  0.02207  1.0000
  H   H406      1.0  0.78893  0.03495  0.97160  1.0000
  C   C518      1.0  0.86703  0.02730  0.97683  1.0000
  H   H407      1.0  0.66610  0.00734  0.07935  1.0000
  H   H408      1.0  0.98920  0.01461  0.07136  1.0000
  H   H409      1.0  0.59509  0.02175  0.37275  1.0000
  H   H410      1.0  0.98695  0.05190  0.98350  1.0000
  C   C519      1.0  0.57303  0.02346  0.45714  1.0000
  H   H411      1.0  0.59525  0.32311  0.46518  1.0000
  S   S65       1.0  0.69140  0.30419  0.58362  1.0000
  Fe  Fe33      1.0  0.62068  0.08095  0.63316  1.0000
  S   S66       1.0  0.61548  0.10425  0.58306  1.0000
  S   S67       1.0  0.57897  0.05836  0.65217  1.0000
  Fe  Fe34      1.0  0.68589  0.09877  0.63897  1.0000
  S   S68       1.0  0.68372  0.12320  0.58799  1.0000
  S   S69       1.0  0.73141  0.10480  0.66397  1.0000
  Fe  Fe35      1.0  0.64090  0.14071  0.60797  1.0000
  S   S70       1.0  0.62042  0.18600  0.60728  1.0000
  Fe  Fe36      1.0  0.65841  0.08406  0.56765  1.0000
  S   S71       1.0  0.66081  0.06754  0.51142  1.0000
  S   S72       1.0  0.64395  0.11852  0.65964  1.0000
  S   S73       1.0  0.66297  0.05845  0.61699  1.0000
  S   S74       1.0  0.82860  0.30015  0.89003  1.0000
  Fe  Fe37      1.0  0.90817  0.07524  0.83578  1.0000
  S   S75       1.0  0.91110  0.10309  0.88343  1.0000
  S   S76       1.0  0.94974  0.05319  0.81516  1.0000
  Fe  Fe38      1.0  0.84087  0.08369  0.83060  1.0000
  S   S77       1.0  0.84019  0.11203  0.87892  1.0000
  S   S78       1.0  0.79614  0.07224  0.80620  1.0000
  Fe  Fe39      1.0  0.88029  0.13370  0.85597  1.0000
  S   S79       1.0  0.89366  0.18158  0.84827  1.0000
  Fe  Fe40      1.0  0.87103  0.07839  0.90191  1.0000
  H   H412      1.0  0.80183  0.14534  0.58374  1.0000
  S   S80       1.0  0.87958  0.10696  0.80664  1.0000
  S   S81       1.0  0.86941  0.04885  0.85529  1.0000
  C   C520      1.0  0.51796  0.29958  0.62062  1.0000
  H   H413      1.0  0.72347  0.03149  0.68416  1.0000
  C   C521      1.0  0.98427  0.07127  0.81795  1.0000
  C   C522      1.0  0.95172  0.25437  0.89978  1.0000
  H   H414      1.0  0.95768  0.23157  0.89644  1.0000
  H   H415      1.0  0.96816  0.10897  0.84574  1.0000
  C   C523      1.0  0.84530  0.26706  0.87587  1.0000
  C   C524      1.0  0.87004  0.26720  0.85425  1.0000
  C   C525      1.0  0.88394  0.24070  0.84527  1.0000
  C   C526      1.0  0.87332  0.21375  0.85770  1.0000
  C   C527      1.0  0.84787  0.21341  0.87817  1.0000
  C   C528      1.0  0.83397  0.24000  0.88726  1.0000
  H   H416      1.0  0.87907  0.28778  0.84537  1.0000
  H   H417      1.0  0.90348  0.24118  0.82928  1.0000
  H   H418      1.0  0.83933  0.19280  0.88773  1.0000
  H   H419      1.0  0.81470  0.23965  0.90375  1.0000
  C   C529      1.0  0.74843  0.09654  0.70439  1.0000
  C   C530      1.0  0.77772  0.10550  0.70988  1.0000
  C   C531      1.0  0.79253  0.09888  0.74103  1.0000
  C   C532      1.0  0.77830  0.08281  0.76703  1.0000
  C   C533      1.0  0.74886  0.07427  0.76172  1.0000
  C   C534      1.0  0.73395  0.08121  0.73076  1.0000
  H   H420      1.0  0.78916  0.11736  0.68970  1.0000
  H   H421      1.0  0.81509  0.10573  0.74467  1.0000
  H   H422      1.0  0.73756  0.06196  0.78167  1.0000
  H   H423      1.0  0.71139  0.07435  0.72717  1.0000
  P   P18       1.0  0.00513  0.26829  0.86760  1.0000
  C   C535      1.0  0.79578  0.12254  0.58024  1.0000
  C   C536      1.0  0.82591  0.18656  0.78112  1.0000
  C   C537      1.0  0.74746  0.28896  0.81149  1.0000
  C   C538      1.0  0.59304  0.15476  0.52263  1.0000
  C   C539      1.0  0.54369  0.10130  0.62387  1.0000
  C   C540      1.0  0.54497  0.07329  0.63831  1.0000
  P   P19       1.0  0.78126  0.28905  0.66618  1.0000
  H   H424      1.0  0.56357  0.11385  0.62033  1.0000
  C   C541      1.0  0.93520  0.31278  0.90956  1.0000
  C   C542      1.0  0.67238  0.27138  0.59312  1.0000
  C   C543      1.0  0.64357  0.27183  0.60579  1.0000
  C   C544      1.0  0.62814  0.24541  0.61069  1.0000
  C   C545      1.0  0.64156  0.21835  0.60361  1.0000
  C   C546      1.0  0.67079  0.21782  0.59226  1.0000
  C   C547      1.0  0.68607  0.24431  0.58682  1.0000
  H   H425      1.0  0.63278  0.29254  0.61064  1.0000
  H   H426      1.0  0.60551  0.24599  0.61936  1.0000
  H   H427      1.0  0.68131  0.19708  0.58671  1.0000
  H   H428      1.0  0.70838  0.24386  0.57709  1.0000
  C   C548      1.0  0.80931  0.07234  0.56718  1.0000
  H   H429      1.0  0.74131  0.06281  0.51642  1.0000
  H   H430      1.0  0.81634  0.23807  0.69011  1.0000
  H   H431      1.0  0.61452  0.02095  0.58186  1.0000
  C   C549      1.0  0.84566  0.30741  0.73714  1.0000
  C   C550      1.0  0.80022  0.28639  0.80526  1.0000
  C   C551      1.0  0.79806  0.25678  0.79601  1.0000
  C   C552      1.0  0.77043  0.24310  0.79365  1.0000
  P   P20       1.0  0.76733  0.20429  0.78380  1.0000
  C   C553      1.0  0.76469  0.18415  0.82404  1.0000
  C   C554      1.0  0.73603  0.19682  0.75595  1.0000
  C   C555      1.0  0.72649  0.16781  0.75048  1.0000
  C   C556      1.0  0.70426  0.16162  0.72654  1.0000
  C   C557      1.0  0.69130  0.18424  0.70778  1.0000
  C   C558      1.0  0.70056  0.21313  0.71295  1.0000
  C   C559      1.0  0.72288  0.21942  0.73675  1.0000
  C   C560      1.0  0.75953  0.19875  0.85569  1.0000
  C   C561      1.0  0.75918  0.18317  0.88685  1.0000
  C   C562      1.0  0.76388  0.15292  0.88673  1.0000
  C   C563      1.0  0.76913  0.13826  0.85547  1.0000
  C   C564      1.0  0.76991  0.15379  0.82433  1.0000
  H   H432      1.0  0.82160  0.29671  0.80777  1.0000
  H   H433      1.0  0.81807  0.24469  0.79159  1.0000
  H   H434      1.0  0.73668  0.14969  0.76373  1.0000
  H   H435      1.0  0.69752  0.13910  0.72195  1.0000
  H   H436      1.0  0.67438  0.17931  0.68886  1.0000
  H   H437      1.0  0.69081  0.23060  0.69791  1.0000
  H   H438      1.0  0.73044  0.24185  0.73889  1.0000
  H   H439      1.0  0.75644  0.22222  0.85676  1.0000
  H   H440      1.0  0.75571  0.19466  0.91117  1.0000
  C   C565      1.0  0.75879  0.08423  0.58119  1.0000
  H   H441      1.0  0.77326  0.11486  0.85538  1.0000
  H   H442      1.0  0.77538  0.14205  0.80071  1.0000
  H   H443      1.0  0.77972  0.18523  0.71169  1.0000
  C   C566      1.0  0.79952  0.18311  0.72681  1.0000
  C   C567      1.0  0.59024  0.25471  0.53457  1.0000
  C   C568      1.0  0.55984  0.25283  0.53992  1.0000
  C   C569      1.0  0.54345  0.27826  0.54711  1.0000
  H   H444      1.0  0.99761  0.16093  0.79210  1.0000
  C   C570      1.0  0.60700  0.13349  0.50230  1.0000
  H   H445      1.0  0.71975  0.33340  0.75886  1.0000
  C   C571      1.0  0.85805  0.28002  0.74363  1.0000
  C   C572      1.0  0.51052  0.16871  0.70291  1.0000
  H   H446      1.0  0.64835  0.33210  0.47551  1.0000
  C   C573      1.0  0.55213  0.18218  0.66641  1.0000
  H   H447      1.0  0.87586  0.27808  0.76209  1.0000
  H   H448      1.0  0.58765  0.15129  0.66420  1.0000
  S   S82       1.0  0.87054  0.06313  0.95879  1.0000
  H   H449      1.0  0.56277  0.19727  0.64863  1.0000
  P   P21       1.0  0.54663  0.06654  0.49882  1.0000
  H   H450      1.0  0.94999  0.01325  0.87795  1.0000
  C   C574      1.0  0.55561  0.04198  0.53383  1.0000
  H   H451      1.0  0.86043  0.00469  0.92844  1.0000
  C   C575      1.0  0.77498  0.30254  0.81271  1.0000
  H   H452      1.0  0.54954  0.23145  0.53905  1.0000
  H   H453      1.0  0.51606  0.13615  0.60599  1.0000
  C   C576      1.0  0.71986  0.32076  0.73501  1.0000
  C   C577      1.0  0.51859  0.05761  0.64322  1.0000
  C   C578      1.0  0.50962  0.20385  0.81480  1.0000
  H   H454      1.0  0.95699  0.23960  0.82974  1.0000
  H   H455      1.0  0.51400  0.20884  0.67306  1.0000
  C   C579      1.0  0.91602  0.29023  0.91913  1.0000
  H   H456      1.0  0.56364  0.11595  0.70396  1.0000
  C   C580      1.0  0.81708  0.10188  0.57107  1.0000
  H   H457      1.0  0.75017  0.12952  0.59294  1.0000
  C   C581      1.0  0.97058  0.27694  0.88859  1.0000
  H   H458      1.0  0.97175  0.30871  0.82326  1.0000
  C   C582      1.0  0.69341  0.31449  0.71826  1.0000
  C   C583      1.0  0.69359  0.29910  0.68689  1.0000
  C   C584      1.0  0.72022  0.29043  0.67197  1.0000
  C   C585      1.0  0.74703  0.29709  0.68829  1.0000
  C   C586      1.0  0.74658  0.31222  0.72011  1.0000
  C   C587      1.0  0.74519  0.25931  0.80239  1.0000
  C   C588      1.0  0.77524  0.25570  0.64154  1.0000
  C   C589      1.0  0.99898  0.09437  0.96265  1.0000
  C   C590      1.0  0.75676  0.20558  0.63939  1.0000
  C   C591      1.0  0.76039  0.20517  0.60341  1.0000
  C   C592      1.0  0.77169  0.22980  0.58645  1.0000
  C   C593      1.0  0.77904  0.25503  0.60537  1.0000
  H   H459      1.0  0.71982  0.27948  0.64699  1.0000
  C   C594      1.0  0.55034  0.12318  0.52782  1.0000
  H   H460      1.0  0.92868  0.33542  0.91320  1.0000
  C   C595      1.0  0.52439  0.18850  0.68021  1.0000
  H   H461      1.0  0.82674  0.19174  0.80858  1.0000
  C   C596      1.0  0.56421  0.10157  0.50745  1.0000
  C   C597      1.0  0.80002  0.19090  0.76211  1.0000
  H   H462      1.0  0.87067  0.17146  0.77998  1.0000
  H   H463      1.0  0.75394  0.18596  0.58863  1.0000
  H   H464      1.0  0.77400  0.22966  0.55847  1.0000
  H   H465      1.0  0.78693  0.27409  0.59153  1.0000
  H   H466      1.0  0.67316  0.29475  0.67339  1.0000
  C   C598      1.0  0.82456  0.17148  0.71080  1.0000
  H   H467      1.0  0.82383  0.16501  0.68375  1.0000
  H   H468      1.0  0.52881  0.11967  0.53878  1.0000
  H   H469      1.0  0.52074  0.31701  0.49794  1.0000
  H   H470      1.0  0.54599  0.32513  0.55512  1.0000
  C   C599      1.0  0.60444  0.28189  0.53616  1.0000
  H   H471      1.0  0.72375  0.24893  0.80264  1.0000
  H   H472      1.0  0.94953  0.14809  0.94387  1.0000
  H   H473      1.0  0.62810  0.28327  0.53280  1.0000
  H   H474      1.0  0.00255  0.13777  0.94010  1.0000
  H   H475      1.0  0.95351  0.19241  0.79873  1.0000
  H   H476      1.0  0.80136  0.00693  0.91851  1.0000
  H   H477      1.0  0.52958  0.20018  0.82940  1.0000
  H   H478      1.0  0.72796  0.30134  0.81818  1.0000
  C   C600      1.0  0.81101  0.28502  0.69693  1.0000
  C   C601      1.0  0.98724  0.09839  0.83462  1.0000
  C   C602      1.0  0.76415  0.23077  0.65831  1.0000
  C   C603      1.0  0.85089  0.17497  0.76501  1.0000
  H   H479      1.0  0.53994  0.29115  0.61665  1.0000
  C   C604      1.0  0.85022  0.16734  0.72992  1.0000
  C   C605      1.0  0.82235  0.30991  0.71389  1.0000
  C   C606      1.0  0.51652  0.11401  0.61584  1.0000
  C   C607      1.0  0.55801  0.30537  0.54892  1.0000
  H   H480      1.0  0.86947  0.15778  0.71777  1.0000
  H   H481      1.0  0.89446  0.29537  0.92961  1.0000
  H   H482      1.0  0.74764  0.18657  0.65252  1.0000
  H   H483      1.0  0.99630  0.05343  0.91222  1.0000
  C   C608      1.0  0.66855  0.00716  0.51742  1.0000
  H   H484      1.0  0.83967  0.10871  0.56724  1.0000
  C   C609      1.0  0.59276  0.10699  0.49488  1.0000
  C   C610      1.0  0.51222  0.31621  0.65044  1.0000
  C   C611      1.0  0.97630  0.22590  0.82774  1.0000
  C   C612      1.0  0.96249  0.30623  0.89463  1.0000
  H   H485      1.0  0.76089  0.23113  0.68601  1.0000
  C   C613      1.0  0.74246  0.01576  0.60047  1.0000
  H   H486      1.0  0.55435  0.16570  0.55212  1.0000
  H   H487      1.0  0.51931  0.03590  0.65432  1.0000
  H   H488      1.0  0.51492  0.12703  0.72922  1.0000
  H   H489      1.0  0.67255  0.01112  0.54465  1.0000
  C   C614      1.0  0.53447  0.02282  0.54787  1.0000
  C   C615      1.0  0.82391  0.25759  0.70323  1.0000
  H   H490      1.0  0.77690  0.32538  0.82031  1.0000
  C   C616      1.0  0.59218  0.02135  0.57231  1.0000
  H   H491      1.0  0.90942  0.24355  0.92179  1.0000
  C   C617      1.0  0.92444  0.26103  0.91464  1.0000
  C   C618      1.0  0.76689  0.33301  0.61899  1.0000
  C   C619      1.0  0.84729  0.25516  0.72653  1.0000
  C   C620      1.0  0.66122  0.03063  0.49596  1.0000
  C   C621      1.0  0.56473  0.14960  0.53538  1.0000
  H   H492      1.0  0.60461  0.17473  0.52966  1.0000
  H   H493      1.0  0.60461  0.09039  0.48034  1.0000
  C   C622      1.0  0.56633  0.15625  0.67534  1.0000
  C   C623      1.0  0.97438  0.19937  0.80960  1.0000
  C   C624      1.0  0.52502  0.14264  0.71175  1.0000
  C   C625      1.0  0.58466  0.04051  0.54566  1.0000
  H   H494      1.0  0.59933  0.32815  0.54574  1.0000
  C   C626      1.0  0.98808  0.12140  0.95113  1.0000
  C   C627      1.0  0.58832  0.30715  0.54351  1.0000
  H   H495      1.0  0.60158  0.05421  0.53438  1.0000
  H   H496      1.0  0.97694  0.32411  0.88731  1.0000
  C   C628      1.0  0.76667  0.11370  0.58519  1.0000
  H   H497      1.0  0.60300  0.23500  0.53013  1.0000
  H   H498      1.0  0.76663  0.31831  0.73321  1.0000
  C   C629      1.0  0.73240  0.03535  0.47260  1.0000
  C   C630      1.0  0.78011  0.06325  0.57250  1.0000
  H   H499      1.0  0.85697  0.23395  0.73158  1.0000
  C   C631      1.0  0.95800  0.12742  0.95329  1.0000
  C   C632      1.0  0.55278  0.13644  0.69789  1.0000
  P   P22       1.0  0.76992  0.02508  0.56828  1.0000
  H   H500      1.0  0.76397  0.14087  0.91087  1.0000
  C   C633      1.0  0.00375  0.33272  0.79387  1.0000
  H   H501      1.0  0.73611  0.07780  0.58542  1.0000
  H   H502      1.0  0.00466  0.02026  0.86319  1.0000
  H   H503      1.0  0.52296  0.17595  0.77284  1.0000
  C   C634      1.0  0.78955  0.31887  0.63695  1.0000
  C   C635      1.0  0.00279  0.23435  0.84353  1.0000
  C   C636      1.0  0.99499  0.31181  0.81825  1.0000
  H   H504      1.0  0.83682  0.31604  0.64314  1.0000
  H   H505      1.0  0.74412  0.32693  0.62299  1.0000
  H   H506      1.0  0.92243  0.02258  0.93229  1.0000
  H   H507      1.0  0.82619  0.05673  0.56024  1.0000
  H   H508      1.0  0.67286  0.32232  0.72911  1.0000
  C   C637      1.0  0.74314  0.04086  0.50593  1.0000
  C   C638      1.0  0.50716  0.07136  0.49644  1.0000
  H   H509      1.0  0.52981  0.32090  0.66853  1.0000
  C   C639      1.0  0.72279  0.02100  0.65890  1.0000
  H   H510      1.0  0.75987  0.04516  0.63987  1.0000
  C   C640      1.0  0.74334  0.02884  0.63353  1.0000
  C   C641      1.0  0.93860  0.10650  0.96672  1.0000
  C   C642      1.0  0.99916  0.18160  0.80600  1.0000
  H   H511      1.0  0.62941  0.13692  0.49352  1.0000
  H   H512      1.0  0.85390  0.32682  0.75031  1.0000
  H   H513      1.0  0.51219  0.02236  0.53827  1.0000
  C   C643      1.0  0.75536  0.01806  0.52546  1.0000
  C   C644      1.0  0.81885  0.32700  0.63031  1.0000
  H   H514      1.0  0.81323  0.33143  0.70913  1.0000
  H   H515      1.0  0.57337  0.00962  0.47979  1.0000
  H   H516      1.0  0.81669  0.00467  0.52159  1.0000
  H   H517      1.0  0.91520  0.11100  0.96783  1.0000
  Fe  Fe41      1.0  0.64533  0.57566  0.40273  1.0000
  S   S83       1.0  0.64460  0.54737  0.35493  1.0000
  H   H518      1.0  0.76075  0.56463  0.11517  1.0000
  Fe  Fe42      1.0  0.64002  0.63247  0.35861  1.0000
  S   S84       1.0  0.63826  0.60666  0.30866  1.0000
  Fe  Fe43      1.0  0.60752  0.57632  0.33741  1.0000
  S   S85       1.0  0.56453  0.55735  0.31628  1.0000
  Fe  Fe44      1.0  0.67553  0.58086  0.33100  1.0000
  S   S86       1.0  0.71822  0.56734  0.30290  1.0000
  S   S87       1.0  0.60717  0.60348  0.38565  1.0000
  S   S88       1.0  0.67859  0.60782  0.38038  1.0000
  Fe  Fe45      1.0  0.86580  0.63948  0.08908  1.0000
  S   S89       1.0  0.86644  0.63004  0.14600  1.0000
  Fe  Fe46      1.0  0.85870  0.57311  0.06956  1.0000
  S   S90       1.0  0.85794  0.56068  0.12630  1.0000
  S   S91       1.0  0.86967  0.53778  0.02845  1.0000
  Fe  Fe47      1.0  0.82824  0.59993  0.13478  1.0000
  S   S92       1.0  0.78438  0.60820  0.16357  1.0000
  Fe  Fe48      1.0  0.89605  0.59223  0.13196  1.0000
  S   S93       1.0  0.93905  0.58134  0.15979  1.0000
  S   S94       1.0  0.82676  0.61069  0.07725  1.0000
  S   S95       1.0  0.89742  0.60340  0.07582  1.0000
  C   C645      1.0  0.97381  0.58798  0.13983  1.0000
  C   C646      1.0  0.87938  0.48861  0.14904  1.0000
  C   C647      1.0  0.97598  0.59946  0.10637  1.0000
  H   H519      1.0  0.92511  0.53411  0.99176  1.0000
  H   H520      1.0  0.95640  0.60477  0.09224  1.0000
  C   C648      1.0  0.73653  0.57978  0.26451  1.0000
  C   C649      1.0  0.76447  0.56838  0.25623  1.0000
  C   C650      1.0  0.77966  0.57699  0.22583  1.0000
  C   C651      1.0  0.76697  0.59704  0.20303  1.0000
  C   C652      1.0  0.73915  0.60864  0.21145  1.0000
  C   C653      1.0  0.72406  0.60022  0.24197  1.0000
  H   H521      1.0  0.77441  0.55262  0.27343  1.0000
  H   H522      1.0  0.80101  0.56786  0.21989  1.0000
  H   H523      1.0  0.72907  0.62400  0.19395  1.0000
  H   H524      1.0  0.70264  0.60923  0.24783  1.0000
  C   C654      1.0  0.52947  0.57048  0.32970  1.0000
  H   H525      1.0  0.91176  0.51065  0.18070  1.0000
  C   C655      1.0  0.95706  0.49928  0.98988  1.0000
  H   H526      1.0  0.54677  0.63339  0.27641  1.0000
  C   C656      1.0  0.81210  0.66447  0.22194  1.0000
  H   H527      1.0  0.91803  0.65109  0.20325  1.0000
  H   H528      1.0  0.54573  0.59741  0.37125  1.0000
  C   C657      1.0  0.54114  0.64565  0.29965  1.0000
  H   H529      1.0  0.94504  0.52145  0.13151  1.0000
  C   C658      1.0  0.83361  0.44579  0.06622  1.0000
  H   H530      1.0  0.99267  0.46878  0.99210  1.0000
  C   C659      1.0  0.57526  0.43729  0.39800  1.0000
  H   H531      1.0  0.87407  0.39954  0.01522  1.0000
  H   H532      1.0  0.52084  0.44422  0.42251  1.0000
  P   P23       1.0  0.83537  0.46481  0.10743  1.0000
  C   C660      1.0  0.00529  0.66097  0.00731  1.0000
  H   H533      1.0  0.76588  0.40372  0.17432  1.0000
  C   C661      1.0  0.55514  0.53146  0.41314  1.0000
  C   C662      1.0  0.60290  0.47087  0.43417  1.0000
  C   C663      1.0  0.51280  0.42937  0.44216  1.0000
  H   H534      1.0  0.99824  0.44273  0.04831  1.0000
  H   H535      1.0  0.81928  0.64226  0.21640  1.0000
  H   H536      1.0  0.64698  0.66023  0.21657  1.0000
  H   H537      1.0  0.78842  0.43501  0.99679  1.0000
  C   C664      1.0  0.53679  0.51469  0.39191  1.0000
  C   C665      1.0  0.74849  0.63433  0.35007  1.0000
  C   C666      1.0  0.51601  0.53563  0.45563  1.0000
  C   C667      1.0  0.83103  0.41552  0.00267  1.0000
  H   H538      1.0  0.74115  0.64111  0.29598  1.0000
  C   C668      1.0  0.90612  0.50304  0.15489  1.0000
  H   H539      1.0  0.68238  0.51363  0.43851  1.0000
  C   C669      1.0  0.67251  0.50726  0.46292  1.0000
  H   H540      1.0  0.78171  0.65082  0.26101  1.0000
  H   H541      1.0  0.97019  0.63707  0.19617  1.0000
  H   H542      1.0  0.57724  0.53688  0.40457  1.0000
  H   H543      1.0  0.81183  0.53384  0.99405  1.0000
  H   H544      1.0  0.95365  0.56434  0.03331  1.0000
  C   C670      1.0  0.91701  0.50100  0.09351  1.0000
  C   C671      1.0  0.80844  0.44755  0.04533  1.0000
  C   C672      1.0  0.56140  0.64803  0.32653  1.0000
  S   S96       1.0  0.63750  0.55733  0.45753  1.0000
  H   H545      1.0  0.78968  0.46045  0.05332  1.0000
  C   C673      1.0  0.96106  0.65425  0.18020  1.0000
  H   H546      1.0  0.93568  0.63572  0.02063  1.0000
  C   C674      1.0  0.75482  0.64723  0.38208  1.0000
  H   H547      1.0  0.89363  0.48740  0.99401  1.0000
  H   H548      1.0  0.74409  0.61098  0.34840  1.0000
  C   C675      1.0  0.74716  0.65152  0.32023  1.0000
  C   C676      1.0  0.58602  0.45139  0.36837  1.0000
  C   C677      1.0  0.58367  0.36891  0.46757  1.0000
  H   H549      1.0  0.93090  0.50691  0.07181  1.0000
  C   C678      1.0  0.87176  0.49038  0.98398  1.0000
  H   H550      1.0  0.86447  0.48517  0.17060  1.0000
  H   H551      1.0  0.61068  0.47805  0.45927  1.0000
  H   H552      1.0  0.97742  0.63087  0.97925  1.0000
  C   C679      1.0  0.96232  0.54349  0.02433  1.0000
  H   H553      1.0  0.57984  0.44368  0.34279  1.0000
  C   C680      1.0  0.85576  0.41289  0.02377  1.0000
  C   C681      1.0  0.80736  0.43273  0.01352  1.0000
  C   C682      1.0  0.61384  0.48472  0.40456  1.0000
  H   H554      1.0  0.99857  0.57313  0.18392  1.0000
  C   C683      1.0  0.82594  0.43750  0.13925  1.0000
  C   C684      1.0  0.79632  0.43040  0.14529  1.0000
  C   C685      1.0  0.78879  0.40892  0.16955  1.0000
  C   C686      1.0  0.81079  0.39410  0.18753  1.0000
  C   C687      1.0  0.84035  0.40059  0.18106  1.0000
  C   C688      1.0  0.84794  0.42208  0.15682  1.0000
  C   C689      1.0  0.81062  0.49562  0.10970  1.0000
  H   H555      1.0  0.87622  0.42538  0.07170  1.0000
  C   C690      1.0  0.77887  0.52810  0.14298  1.0000
  C   C691      1.0  0.79706  0.50346  0.14119  1.0000
  H   H556      1.0  0.88393  0.48199  0.06113  1.0000
  H   H557      1.0  0.77906  0.44147  0.13123  1.0000
  C   C692      1.0  0.54494  0.54153  0.44520  1.0000
  C   C693      1.0  0.52938  0.64062  0.43904  1.0000
  H   H558      1.0  0.85739  0.38889  0.19475  1.0000
  H   H559      1.0  0.87095  0.42650  0.15173  1.0000
  H   H560      1.0  0.62920  0.50278  0.40726  1.0000
  C   C694      1.0  0.77443  0.54525  0.11354  1.0000
  H   H561      1.0  0.76869  0.53441  0.16736  1.0000
  H   H562      1.0  0.80091  0.49100  0.16453  1.0000
  C   C695      1.0  0.95594  0.64774  0.02497  1.0000
  C   C696      1.0  0.85426  0.51338  0.99700  1.0000
  H   H563      1.0  0.81804  0.50862  0.05663  1.0000
  C   C697      1.0  0.58276  0.44765  0.43118  1.0000
  C   C698      1.0  0.92492  0.50922  0.12712  1.0000
  H   H564      1.0  0.54750  0.63793  0.42119  1.0000
  C   C699      1.0  0.82561  0.51630  0.98443  1.0000
  C   C700      1.0  0.60512  0.47528  0.37167  1.0000
  C   C701      1.0  0.94616  0.52637  0.00103  1.0000
  C   C702      1.0  0.52660  0.59057  0.35694  1.0000
  C   C703      1.0  0.97938  0.64513  0.00166  1.0000
  H   H565      1.0  0.80491  0.37745  0.20631  1.0000
  C   C704      1.0  0.87145  0.47994  0.11533  1.0000
  H   H566      1.0  0.75529  0.63385  0.40522  1.0000
  H   H567      1.0  0.61349  0.48626  0.34875  1.0000
  H   H568      1.0  0.54470  0.50742  0.36674  1.0000
  C   C705      1.0  0.78845  0.53802  0.08240  1.0000
  H   H569      1.0  0.58282  0.63805  0.32381  1.0000
  C   C706      1.0  0.89030  0.48665  0.08757  1.0000
  C   C707      1.0  0.85697  0.42775  0.05557  1.0000
  H   H570      1.0  0.56133  0.41818  0.39498  1.0000
  H   H571      1.0  0.78580  0.55183  0.05985  1.0000
  C   C708      1.0  0.99990  0.58186  0.15794  1.0000
  C   C709      1.0  0.80666  0.51345  0.08059  1.0000
  H   H572      1.0  0.83032  0.40464  0.97760  1.0000
  C   C710      1.0  0.98420  0.48932  0.00191  1.0000
  H   H573      1.0  0.94459  0.48615  0.97157  1.0000
  C   C711      1.0  0.55384  0.66242  0.35737  1.0000
  C   C712      1.0  0.98943  0.53356  0.03645  1.0000
  H   H574      1.0  0.55966  0.55402  0.46169  1.0000
  C   C713      1.0  0.50940  0.66384  0.43562  1.0000
  H   H575      1.0  0.56993  0.66329  0.37793  1.0000
  H   H576      1.0  0.99409  0.50016  0.09801  1.0000
  C   C714      1.0  0.93159  0.66207  0.18412  1.0000
  C   C715      1.0  0.00040  0.50622  0.02565  1.0000
  C   C716      1.0  0.51335  0.65809  0.30334  1.0000
  H   H577      1.0  0.00183  0.54728  0.05424  1.0000
  H   H578      1.0  0.00081  0.66027  0.15150  1.0000
  C   C717      1.0  0.00363  0.60459  0.09115  1.0000
  C   C718      1.0  0.95848  0.66588  0.05413  1.0000
  C   C719      1.0  0.52637  0.62050  0.46603  1.0000
  H   H579      1.0  0.00485  0.61361  0.06531  1.0000
  H   H580      1.0  0.00059  0.51195  0.15991  1.0000
  C   C720      1.0  0.50809  0.50815  0.40252  1.0000
  C   C721      1.0  0.53156  0.41827  0.46775  1.0000
  C   C722      1.0  0.79076  0.66949  0.24748  1.0000
  C   C723      1.0  0.97837  0.66745  0.15459  1.0000
  H   H581      1.0  0.69249  0.66880  0.18234  1.0000
  H   H582      1.0  0.94010  0.66737  0.07194  1.0000
  H   H583      1.0  0.56071  0.36459  0.46255  1.0000
  C   C724      1.0  0.66622  0.66956  0.22892  1.0000
  Fe  Fe49      1.0  0.66937  0.39358  0.65443  1.0000
  S   S97       1.0  0.69942  0.38618  0.60918  1.0000
  S   S98       1.0  0.68720  0.39972  0.70939  1.0000
  Fe  Fe50      1.0  0.61381  0.38292  0.61091  1.0000
  S   S99       1.0  0.64129  0.37368  0.56356  1.0000
  S   S100      1.0  0.56632  0.37422  0.59479  1.0000
  H   H584      1.0  0.80755  0.38019  0.57018  1.0000
  Fe  Fe51      1.0  0.66751  0.41338  0.57823  1.0000
  S   S101      1.0  0.68442  0.44159  0.53319  1.0000
  S   S102      1.0  0.64134  0.35353  0.64456  1.0000
  S   S103      1.0  0.63911  0.42416  0.62462  1.0000
  Fe  Fe52      1.0  0.89621  0.38491  0.85469  1.0000
  S   S104      1.0  0.86945  0.37741  0.90333  1.0000
  S   S105      1.0  0.94474  0.38419  0.86956  1.0000
  Fe  Fe53      1.0  0.84019  0.38600  0.80950  1.0000
  S   S106      1.0  0.81084  0.37903  0.85543  1.0000
  S   S107      1.0  0.82198  0.38616  0.75412  1.0000
  Fe  Fe54      1.0  0.83957  0.41231  0.88301  1.0000
  S   S108      1.0  0.81765  0.44950  0.91389  1.0000
  H   H585      1.0  0.79268  0.49913  0.94947  1.0000
  S   S109      1.0  0.86726  0.42160  0.83570  1.0000
  S   S110      1.0  0.87213  0.35023  0.82401  1.0000
  H   H586      1.0  0.72021  0.49305  0.64144  1.0000
  H   H587      1.0  0.70073  0.45821  0.70102  1.0000
  C   C725      1.0  0.63800  0.51590  0.50953  1.0000
  C   C726      1.0  0.95523  0.52013  0.90147  1.0000
  C   C727      1.0  0.69339  0.47970  0.70917  1.0000
  C   C728      1.0  0.97899  0.39203  0.84959  1.0000
  C   C729      1.0  0.64747  0.49019  0.52647  1.0000
  C   C730      1.0  0.97449  0.49787  0.89046  1.0000
  H   H588      1.0  0.96188  0.40910  0.80185  1.0000
  H   H589      1.0  0.87474  0.45306  0.94918  1.0000
  C   C731      1.0  0.72459  0.39422  0.72147  1.0000
  C   C732      1.0  0.74649  0.38753  0.69712  1.0000
  C   C733      1.0  0.77603  0.38460  0.70763  1.0000
  C   C734      1.0  0.78409  0.38798  0.74262  1.0000
  C   C735      1.0  0.76202  0.39339  0.76716  1.0000
  C   C736      1.0  0.73255  0.39684  0.75658  1.0000
  H   H590      1.0  0.74078  0.38507  0.67010  1.0000
  H   H591      1.0  0.79277  0.38004  0.68840  1.0000
  H   H592      1.0  0.76774  0.39567  0.79421  1.0000
  H   H593      1.0  0.71584  0.40178  0.77574  1.0000
  C   C737      1.0  0.66998  0.47315  0.51205  1.0000
  H   H594      1.0  0.91012  0.53178  0.91241  1.0000
  C   C738      1.0  0.57780  0.45494  0.57038  1.0000
  H   H595      1.0  0.72459  0.46180  0.58943  1.0000
  C   C739      1.0  0.51959  0.40111  0.49453  1.0000
  C   C740      1.0  0.53085  0.38590  0.60780  1.0000
  C   C741      1.0  0.52579  0.40306  0.63738  1.0000
  H   H596      1.0  0.76800  0.52812  0.64372  1.0000
  H   H597      1.0  0.54414  0.41023  0.65305  1.0000
  C   C742      1.0  0.96280  0.47074  0.87993  1.0000
  C   C743      1.0  0.57888  0.43826  0.53992  1.0000
  H   H598      1.0  0.81279  0.48261  0.72800  1.0000
  H   H599      1.0  0.71908  0.54797  0.72923  1.0000
  H   H600      1.0  0.66619  0.55620  0.73914  1.0000
  H   H601      1.0  0.63042  0.51564  0.73023  1.0000
  H   H602      1.0  0.53340  0.39339  0.51545  1.0000
  C   C744      1.0  0.92495  0.51474  0.90351  1.0000
  C   C745      1.0  0.66347  0.48444  0.71496  1.0000
  H   H603      1.0  0.80156  0.44830  0.83066  1.0000
  H   H604      1.0  0.83397  0.46230  0.78157  1.0000
  H   H605      1.0  0.76244  0.42314  0.58642  1.0000
  H   H606      1.0  0.63783  0.48392  0.55102  1.0000
  H   H607      1.0  0.64805  0.46651  0.71124  1.0000
  H   H608      1.0  0.62101  0.52918  0.52128  1.0000
  H   H609      1.0  0.77812  0.53861  0.75446  1.0000
  H   H610      1.0  0.79601  0.41532  0.63628  1.0000
  C   C746      1.0  0.91363  0.48743  0.89373  1.0000
  H   H611      1.0  0.92378  0.44437  0.87403  1.0000
  H   H612      1.0  0.80381  0.58555  0.74477  1.0000
  H   H613      1.0  0.96330  0.54175  0.90804  1.0000
  H   H614      1.0  0.79166  0.44573  0.68869  1.0000
  H   H615      1.0  0.89014  0.48334  0.89486  1.0000
  C   C747      1.0  0.93256  0.46548  0.88192  1.0000
  H   H616      1.0  0.74761  0.45273  0.82511  1.0000
  Fe  Fe55      1.0  0.67027  0.34751  0.59812  1.0000
  H   H617      1.0  0.81156  0.60399  0.68495  1.0000
  H   H618      1.0  0.79350  0.57508  0.63466  1.0000
  C   C748      1.0  0.56512  0.48097  0.50675  1.0000
  C   C749      1.0  0.70383  0.53009  0.72498  1.0000
  H   H619      1.0  0.72578  0.47145  0.77136  1.0000
  C   C750      1.0  0.83252  0.47385  0.94571  1.0000
  C   C751      1.0  0.98148  0.40423  0.81647  1.0000
  C   C752      1.0  0.67382  0.53484  0.73070  1.0000
  C   C753      1.0  0.81485  0.49662  0.95901  1.0000
  C   C754      1.0  0.65364  0.51202  0.72569  1.0000
  C   C755      1.0  0.81040  0.46493  0.77938  1.0000
  C   C756      1.0  0.79215  0.45688  0.80697  1.0000
  C   C757      1.0  0.76171  0.45948  0.80387  1.0000
  C   C758      1.0  0.74944  0.47010  0.77319  1.0000
  C   C759      1.0  0.76766  0.47875  0.74552  1.0000
  C   C760      1.0  0.79827  0.47606  0.74890  1.0000
  P   P24       1.0  0.75239  0.49532  0.70703  1.0000
  C   C761      1.0  0.77132  0.52964  0.69980  1.0000
  C   C762      1.0  0.75582  0.47205  0.66907  1.0000
  C   C763      1.0  0.73696  0.47625  0.64070  1.0000
  C   C764      1.0  0.73944  0.45868  0.61105  1.0000
  C   C765      1.0  0.76084  0.43687  0.60933  1.0000
  C   C766      1.0  0.77975  0.43258  0.63731  1.0000
  C   C767      1.0  0.77723  0.45002  0.66712  1.0000
  C   C768      1.0  0.77569  0.54030  0.66605  1.0000
  C   C769      1.0  0.79017  0.56702  0.66078  1.0000
  C   C770      1.0  0.80033  0.58331  0.68911  1.0000
  C   C771      1.0  0.79597  0.57292  0.72278  1.0000
  C   C772      1.0  0.78148  0.54623  0.72815  1.0000
  C   C773      1.0  0.71379  0.50243  0.71403  1.0000
  H   H620      1.0  0.00297  0.37700  0.89413  1.0000
  C   C774      1.0  0.80259  0.36316  0.58884  1.0000
  C   C775      1.0  0.82528  0.34928  0.60663  1.0000
  H   H621      1.0  0.97703  0.45359  0.87003  1.0000
  H   H622      1.0  0.00040  0.55023  0.83613  1.0000
  H   H623      1.0  0.55950  0.52092  0.53603  1.0000
  C   C776      1.0  0.59397  0.39767  0.47263  1.0000
  H   H624      1.0  0.98741  0.34597  0.78098  1.0000
  H   H625      1.0  0.84790  0.35560  0.60185  1.0000
  H   H626      1.0  0.58216  0.44459  0.59505  1.0000
  H   H627      1.0  0.58417  0.41518  0.54153  1.0000
  C   C777      1.0  0.00464  0.38615  0.86838  1.0000
  C   C778      1.0  0.65041  0.52463  0.47764  1.0000
  C   C779      1.0  0.57254  0.45118  0.50789  1.0000
  C   C780      1.0  0.56462  0.49778  0.53718  1.0000
  H   H628      1.0  0.57050  0.49767  0.59265  1.0000
  C   C781      1.0  0.57090  0.48474  0.56902  1.0000
  H   H629      1.0  0.99931  0.45351  0.93099  1.0000
  H   H630      1.0  0.99966  0.53068  0.95366  1.0000
  C   C782      1.0  0.68232  0.48185  0.48013  1.0000
  H   H631      1.0  0.75583  0.36523  0.58067  1.0000
  Fe  Fe56      1.0  0.84390  0.34498  0.87119  1.0000
  H   H632      1.0  0.51038  0.36316  0.56514  1.0000
  H   H633      1.0  0.50813  0.54426  0.48016  1.0000
  H   H634      1.0  0.63254  0.42455  0.48199  1.0000
  C   C783      1.0  0.64360  0.37897  0.47866  1.0000
  H   H635      1.0  0.55972  0.49116  0.48235  1.0000
  C   C784      1.0  0.77345  0.35491  0.59490  1.0000
  C   C785      1.0  0.50679  0.37673  0.58778  1.0000
  C   C786      1.0  0.62407  0.40252  0.47810  1.0000
  C   C787      1.0  0.63319  0.35035  0.47426  1.0000
  C   C788      1.0  0.86106  0.47078  0.95854  1.0000
  H   H636      1.0  0.66676  0.38301  0.48344  1.0000
  H   H637      1.0  0.54207  0.60287  0.46841  1.0000
  C   C789      1.0  0.60325  0.34532  0.46863  1.0000
  P   P25       1.0  0.56985  0.42877  0.46944  1.0000
  H   H638      1.0  0.69978  0.46894  0.46871  1.0000
  S   S111      1.0  0.62985  0.68073  0.34909  1.0000
  Fe  Fe57      1.0  0.67272  0.89128  0.32505  1.0000
  S   S112      1.0  0.70034  0.88311  0.37235  1.0000
  S   S113      1.0  0.68926  0.89232  0.26863  1.0000
  Fe  Fe58      1.0  0.61472  0.88210  0.36513  1.0000
  S   S114      1.0  0.63911  0.87224  0.41417  1.0000
  S   S115      1.0  0.56565  0.87540  0.37419  1.0000
  Fe  Fe59      1.0  0.66717  0.91132  0.40133  1.0000
  C   C790      1.0  0.65942  0.99657  0.44639  1.0000
  Fe  Fe60      1.0  0.66967  0.84512  0.38173  1.0000
  S   S116      1.0  0.68692  0.80073  0.39928  1.0000
  S   S117      1.0  0.64139  0.92253  0.35312  1.0000
  S   S118      1.0  0.64343  0.85188  0.33368  1.0000
  H   H639      1.0  0.69813  0.79666  0.31288  1.0000
  Fe  Fe61      1.0  0.85377  0.91229  0.07871  1.0000
  S   S119      1.0  0.87673  0.92464  0.12854  1.0000
  S   S120      1.0  0.85188  0.93601  0.02604  1.0000
  Fe  Fe62      1.0  0.83994  0.84959  0.10555  1.0000
  S   S121      1.0  0.86268  0.85778  0.15599  1.0000
  S   S122      1.0  0.81494  0.80699  0.09673  1.0000
  Fe  Fe63      1.0  0.83916  0.90099  0.15594  1.0000
  S   S123      1.0  0.81824  0.91622  0.20714  1.0000
  Fe  Fe64      1.0  0.89788  0.88019  0.12438  1.0000
  S   S124      1.0  0.94525  0.86509  0.12999  1.0000
  S   S125      1.0  0.81475  0.89199  0.10651  1.0000
  S   S126      1.0  0.87648  0.86863  0.07388  1.0000
  H   H640      1.0  0.74360  0.82374  0.32661  1.0000
  C   C791      1.0  0.97869  0.88431  0.12315  1.0000
  C   C792      1.0  0.97989  0.91478  0.11922  1.0000
  H   H641      1.0  0.70363  0.90272  0.03074  1.0000
  H   H642      1.0  0.95979  0.92733  0.11981  1.0000
  C   C793      1.0  0.86157  0.71842  0.08169  1.0000
  C   C794      1.0  0.83230  0.71950  0.09290  1.0000
  C   C795      1.0  0.81847  0.74681  0.09810  1.0000
  C   C796      1.0  0.83392  0.77320  0.09304  1.0000
  C   C797      1.0  0.86356  0.77208  0.08341  1.0000
  C   C798      1.0  0.87717  0.74482  0.07734  1.0000
  H   H643      1.0  0.82001  0.69935  0.09618  1.0000
  H   H644      1.0  0.79559  0.74755  0.10549  1.0000
  H   H645      1.0  0.87573  0.79222  0.07948  1.0000
  H   H646      1.0  0.89981  0.74420  0.06871  1.0000
  C   C799      1.0  0.72591  0.89700  0.25277  1.0000
  C   C800      1.0  0.73206  0.89106  0.21757  1.0000
  C   C801      1.0  0.76048  0.89556  0.20362  1.0000
  C   C802      1.0  0.78295  0.90698  0.22438  1.0000
  C   C803      1.0  0.77687  0.91270  0.25960  1.0000
  C   C804      1.0  0.74869  0.90741  0.27383  1.0000
  H   H647      1.0  0.71469  0.88318  0.20088  1.0000
  H   H648      1.0  0.76485  0.89106  0.17657  1.0000
  H   H649      1.0  0.79402  0.92160  0.27593  1.0000
  H   H650      1.0  0.74438  0.91223  0.30087  1.0000
  C   C805      1.0  0.64946  0.71283  0.36066  1.0000
  C   C806      1.0  0.64238  0.73908  0.34377  1.0000
  C   C807      1.0  0.65453  0.76591  0.35463  1.0000
  C   C808      1.0  0.67370  0.76690  0.38277  1.0000
  C   C809      1.0  0.68195  0.74048  0.39866  1.0000
  C   C810      1.0  0.66992  0.71347  0.38761  1.0000
  H   H651      1.0  0.62696  0.73878  0.32264  1.0000
  H   H652      1.0  0.64878  0.78597  0.34163  1.0000
  H   H653      1.0  0.69708  0.74102  0.42022  1.0000
  H   H654      1.0  0.67564  0.69339  0.40077  1.0000
  C   C811      1.0  0.53286  0.90903  0.32835  1.0000
  C   C812      1.0  0.53299  0.88812  0.35473  1.0000
  H   H655      1.0  0.91231  0.83934  0.01405  1.0000
  H   H656      1.0  0.55338  0.91820  0.31916  1.0000
  C   C813      1.0  0.72658  0.86186  0.02909  1.0000
  C   C814      1.0  0.85919  0.97133  0.00809  1.0000
  C   C815      1.0  0.56935  0.72153  0.40454  1.0000
  C   C816      1.0  0.54261  0.71546  0.42144  1.0000
  C   C817      1.0  0.91937  0.68319  0.16244  1.0000
  P   P26       1.0  0.98778  0.70487  0.09811  1.0000
  C   C818      1.0  0.78058  0.69805  0.25412  1.0000
  C   C819      1.0  0.59152  0.73702  0.42178  1.0000
  C   C820      1.0  0.71675  0.69185  0.26159  1.0000
  C   C821      1.0  0.77199  0.78707  0.31533  1.0000
  H   H657      1.0  0.95182  0.78479  0.02261  1.0000
  H   H658      1.0  0.80872  0.96939  0.16265  1.0000
  H   H659      1.0  0.90859  0.97070  0.09711  1.0000
  C   C822      1.0  0.54672  0.93378  0.43825  1.0000
  C   C823      1.0  0.85775  0.97479  0.97188  1.0000
  C   C824      1.0  0.75086  0.90947  0.03027  1.0000
  C   C825      1.0  0.00502  0.86829  0.12265  1.0000
  C   C826      1.0  0.96628  0.68873  0.13269  1.0000
  C   C827      1.0  0.97309  0.99767  0.06606  1.0000
  H   H660      1.0  0.69034  0.69085  0.30847  1.0000
  C   C828      1.0  0.76952  0.95320  0.13792  1.0000
  C   C829      1.0  0.66578  0.67581  0.26439  1.0000
  H   H661      1.0  0.89635  0.68881  0.16474  1.0000
  H   H662      1.0  0.53596  0.92783  0.41417  1.0000
  C   C830      1.0  0.79607  0.97013  0.07564  1.0000
  C   C831      1.0  0.93243  0.88152  0.00544  1.0000
  P   P27       1.0  0.74981  0.70401  0.28341  1.0000
  H   H663      1.0  0.73393  0.93747  0.10664  1.0000
  H   H664      1.0  0.92671  0.98873  0.98158  1.0000
  C   C832      1.0  0.81364  0.71627  0.20914  1.0000
  C   C833      1.0  0.66836  0.97341  0.46752  1.0000
  H   H665      1.0  0.59283  0.88622  0.27654  1.0000
  C   C834      1.0  0.53799  0.72660  0.45508  1.0000
  C   C835      1.0  0.86536  0.99598  0.02857  1.0000
  H   H666      1.0  0.97245  0.73570  0.03334  1.0000
  C   C836      1.0  0.58701  0.74731  0.45550  1.0000
  H   H667      1.0  0.70664  0.84884  0.02920  1.0000
  H   H668      1.0  0.78441  0.74357  0.23814  1.0000
  C   C837      1.0  0.72905  0.73999  0.09327  1.0000
  C   C838      1.0  0.74164  0.71463  0.10691  1.0000
  C   C839      1.0  0.74899  0.71353  0.14200  1.0000
  C   C840      1.0  0.74369  0.73778  0.16344  1.0000
  C   C841      1.0  0.73127  0.76340  0.14999  1.0000
  C   C842      1.0  0.72388  0.76433  0.11468  1.0000
  P   P28       1.0  0.72643  0.79508  0.17786  1.0000
  C   C843      1.0  0.69738  0.78949  0.20948  1.0000
  C   C844      1.0  0.76099  0.80333  0.19891  1.0000
  C   C845      1.0  0.76184  0.82059  0.22916  1.0000
  C   C846      1.0  0.78876  0.82969  0.24295  1.0000
  C   C847      1.0  0.81505  0.82147  0.22688  1.0000
  C   C848      1.0  0.81445  0.80389  0.19714  1.0000
  C   C849      1.0  0.78759  0.79495  0.18314  1.0000
  C   C850      1.0  0.68538  0.81366  0.22722  1.0000
  C   C851      1.0  0.66212  0.80991  0.25053  1.0000
  C   C852      1.0  0.65070  0.78196  0.25668  1.0000
  C   C853      1.0  0.66241  0.75776  0.23917  1.0000
  C   C854      1.0  0.68559  0.76146  0.21559  1.0000
  C   C855      1.0  0.71736  0.82651  0.15170  1.0000
  C   C856      1.0  0.68787  0.83439  0.14656  1.0000
  C   C857      1.0  0.68092  0.85953  0.12772  1.0000
  C   C858      1.0  0.70331  0.87663  0.11331  1.0000
  C   C859      1.0  0.73263  0.86826  0.11709  1.0000
  C   C860      1.0  0.73968  0.84325  0.13608  1.0000
  H   H669      1.0  0.72391  0.74099  0.06590  1.0000
  H   H670      1.0  0.91504  0.93705  0.04750  1.0000
  C   C861      1.0  0.95472  0.78755  0.11062  1.0000
  H   H671      1.0  0.74961  0.73688  0.19046  1.0000
  H   H672      1.0  0.71471  0.78392  0.10338  1.0000
  H   H673      1.0  0.74194  0.82808  0.24163  1.0000
  H   H674      1.0  0.78918  0.84408  0.26540  1.0000
  H   H675      1.0  0.83584  0.82944  0.23688  1.0000
  H   H676      1.0  0.83477  0.79820  0.18397  1.0000
  H   H677      1.0  0.78777  0.78259  0.15913  1.0000
  H   H678      1.0  0.69371  0.83563  0.22285  1.0000
  H   H679      1.0  0.65315  0.82886  0.26386  1.0000
  H   H680      1.0  0.63289  0.77907  0.27510  1.0000
  H   H681      1.0  0.65372  0.73607  0.24417  1.0000
  H   H682      1.0  0.69403  0.74241  0.20222  1.0000
  H   H683      1.0  0.67020  0.82138  0.15744  1.0000
  H   H684      1.0  0.65818  0.86591  0.12465  1.0000
  H   H685      1.0  0.69791  0.89629  0.09914  1.0000
  H   H686      1.0  0.75005  0.88122  0.10555  1.0000
  H   H687      1.0  0.76261  0.83731  0.13878  1.0000
  H   H688      1.0  0.94047  0.81819  0.07208  1.0000
  C   C862      1.0  0.72500  0.89253  0.02973  1.0000
  P   P29       1.0  0.51500  0.69154  0.40267  1.0000
  H   H689      1.0  0.76279  0.71795  0.35697  1.0000
  C   C863      1.0  0.71289  0.96302  0.03397  1.0000
  H   H690      1.0  0.57373  0.71401  0.37849  1.0000
  H   H691      1.0  0.51455  0.87061  0.21721  1.0000
  C   C864      1.0  0.81055  0.97475  0.10713  1.0000
  H   H692      1.0  0.00431  0.84472  0.12565  1.0000
  C   C865      1.0  0.95615  0.95671  0.03073  1.0000
  H   H693      1.0  0.72435  0.00260  0.43326  1.0000
  C   C866      1.0  0.94956  0.79661  0.07666  1.0000
  C   C867      1.0  0.52520  0.83756  0.25487  1.0000
  C   C868      1.0  0.71704  0.68524  0.22596  1.0000
  H   H694      1.0  0.60121  0.70331  0.23611  1.0000
  H   H695      1.0  0.58407  0.84100  0.30901  1.0000
  S   S127      1.0  0.87890  0.68496  0.07019  1.0000
  H   H696      1.0  0.80086  0.85384  0.03080  1.0000
  H   H697      1.0  0.95024  0.87724  0.02331  1.0000
  C   C869      1.0  0.97305  0.74081  0.08924  1.0000
  H   H698      1.0  0.50929  0.80607  0.37171  1.0000
  H   H699      1.0  0.86666  0.99380  0.05640  1.0000
  C   C870      1.0  0.93157  0.95368  0.05249  1.0000
  C   C871      1.0  0.66655  0.96883  0.00359  1.0000
  H   H700      1.0  0.82220  0.73427  0.19380  1.0000
  C   C872      1.0  0.93078  0.90835  0.98780  1.0000
  C   C873      1.0  0.74485  0.80113  0.31786  1.0000
  C   C874      1.0  0.79232  0.72142  0.23468  1.0000
  H   H701      1.0  0.65643  0.99286  0.41891  1.0000
  H   H702      1.0  0.79190  0.79885  0.32203  1.0000
  H   H703      1.0  0.79458  0.74701  0.30361  1.0000
  C   C875      1.0  0.75513  0.94822  0.10644  1.0000
  C   C876      1.0  0.57718  0.93051  0.44083  1.0000
  C   C877      1.0  0.58937  0.72088  0.24896  1.0000
  C   C878      1.0  0.58088  0.71786  0.28359  1.0000
  C   C879      1.0  0.56577  0.74048  0.30043  1.0000
  C   C880      1.0  0.55908  0.76641  0.28274  1.0000
  C   C881      1.0  0.56740  0.76920  0.24778  1.0000
  P   P30       1.0  0.53857  0.79501  0.30443  1.0000
  C   C882      1.0  0.79728  0.96632  0.13825  1.0000
  C   C883      1.0  0.55203  0.79881  0.34829  1.0000
  H   H704      1.0  0.59422  0.99080  0.42526  1.0000
  H   H705      1.0  0.74628  0.69602  0.09017  1.0000
  C   C884      1.0  0.57372  0.80859  0.41544  1.0000
  C   C885      1.0  0.59311  0.80266  0.38820  1.0000
  C   C886      1.0  0.58231  0.79733  0.35486  1.0000
  H   H706      1.0  0.55790  0.90164  0.23092  1.0000
  H   H707      1.0  0.61236  0.74107  0.40903  1.0000
  C   C887      1.0  0.54446  0.82905  0.28139  1.0000
  C   C888      1.0  0.99346  0.91294  0.99315  1.0000
  P   P31       1.0  0.96024  0.93475  0.99201  1.0000
  C   C889      1.0  0.55438  0.88120  0.24453  1.0000
  C   C890      1.0  0.57405  0.87253  0.27019  1.0000
  C   C891      1.0  0.56901  0.84670  0.28866  1.0000
  S   S128      1.0  0.67769  0.93817  0.45051  1.0000
  H   H708      1.0  0.52860  0.81381  0.43059  1.0000
  H   H709      1.0  0.58640  0.69811  0.29760  1.0000
  H   H710      1.0  0.55926  0.73773  0.32724  1.0000
  C   C892      1.0  0.77340  0.75776  0.30466  1.0000
  H   H711      1.0  0.94958  0.80211  0.13210  1.0000
  C   C893      1.0  0.53265  0.80432  0.37597  1.0000
  H   H712      1.0  0.58224  0.81345  0.44102  1.0000
  H   H713      1.0  0.61657  0.80283  0.39296  1.0000
  H   H714      1.0  0.59763  0.79322  0.33392  1.0000
  C   C894      1.0  0.88716  0.86537  0.97850  1.0000
  C   C895      1.0  0.93651  0.69624  0.13664  1.0000
  P   P32       1.0  0.74995  0.94897  0.03444  1.0000
  C   C896      1.0  0.77811  0.89522  0.02996  1.0000
  H   H715      1.0  0.83942  0.68370  0.18233  1.0000
  C   C897      1.0  0.77965  0.86462  0.02980  1.0000
  C   C898      1.0  0.50613  0.87686  0.36686  1.0000
  C   C899      1.0  0.76005  0.67738  0.38424  1.0000
  C   C900      1.0  0.96644  0.75983  0.11693  1.0000
  C   C901      1.0  0.71913  0.78583  0.30989  1.0000
  C   C902      1.0  0.74765  0.74235  0.29580  1.0000
  H   H716      1.0  0.73691  0.68742  0.21080  1.0000
  C   C903      1.0  0.75287  0.68180  0.32198  1.0000
  C   C904      1.0  0.95606  0.77784  0.04891  1.0000
  H   H717      1.0  0.70012  0.74493  0.29448  1.0000
  C   C905      1.0  0.75390  0.84792  0.02948  1.0000
  C   C906      1.0  0.54348  0.80885  0.40948  1.0000
  C   C907      1.0  0.72043  0.75649  0.29926  1.0000
  H   H718      1.0  0.50637  0.82417  0.24816  1.0000
  H   H719      1.0  0.56225  0.78880  0.23336  1.0000
  C   C908      1.0  0.91100  0.85993  0.00022  1.0000
  H   H720      1.0  0.58964  0.92197  0.41902  1.0000
  H   H721      1.0  0.75951  0.94642  0.16215  1.0000
  C   C909      1.0  0.52589  0.67499  0.36157  1.0000
  H   H722      1.0  0.58920  0.74889  0.20416  1.0000
  C   C910      1.0  0.92780  0.97270  0.08071  1.0000
  H   H723      1.0  0.97028  0.75319  0.14345  1.0000
  C   C911      1.0  0.75913  0.69463  0.35436  1.0000
  C   C912      1.0  0.96777  0.75000  0.05512  1.0000
  H   H724      1.0  0.75938  0.69405  0.15232  1.0000
  C   C913      1.0  0.69182  0.67441  0.20968  1.0000
  H   H725      1.0  0.99522  0.98218  0.02031  1.0000
  H   H726      1.0  0.92614  0.71156  0.11916  1.0000
  C   C914      1.0  0.98448  0.68171  0.06015  1.0000
  C   C915      1.0  0.97663  0.97910  0.03743  1.0000
  C   C916      1.0  0.69090  0.68686  0.28073  1.0000
  C   C917      1.0  0.58262  0.74654  0.23104  1.0000
  C   C918      1.0  0.76814  0.95698  0.07504  1.0000
  H   H727      1.0  0.76449  0.68746  0.40917  1.0000
  H   H728      1.0  0.75526  0.82419  0.03009  1.0000
  H   H729      1.0  0.86999  0.84905  0.97557  1.0000
  H   H730      1.0  0.79825  0.90782  0.03078  1.0000
  C   C919      1.0  0.82341  0.68779  0.20267  1.0000
  C   C920      1.0  0.94864  0.99447  0.08771  1.0000
  C   C921      1.0  0.52997  0.86371  0.23687  1.0000
  C   C922      1.0  0.70248  0.98161  0.06042  1.0000
  H   H731      1.0  0.65282  0.96428  0.98129  1.0000
  H   H732      1.0  0.64615  0.67141  0.27947  1.0000
  H   H733      1.0  0.71628  0.98779  0.08204  1.0000
  C   C923      1.0  0.53031  0.94436  0.46655  1.0000
  H   H734      1.0  0.51117  0.88741  0.45258  1.0000
  C   C924      1.0  0.50599  0.91799  0.31376  1.0000
  H   H735      1.0  0.51605  0.00442  0.44056  1.0000
  C   C925      1.0  0.76803  0.96670  0.99839  1.0000
  H   H736      1.0  0.80711  0.97619  0.05188  1.0000
  H   H737      1.0  0.70306  0.94405  0.98377  1.0000
  C   C926      1.0  0.69495  0.95729  0.00516  1.0000
  H   H738      1.0  0.83235  0.98435  0.10734  1.0000
  C   C927      1.0  0.77547  0.95089  0.96828  1.0000
  C   C928      1.0  0.77253  0.99718  0.99921  1.0000
  C   C929      1.0  0.67404  0.99308  0.05881  1.0000
  C   C930      1.0  0.65604  0.98659  0.03050  1.0000
  H   H739      1.0  0.63410  0.99570  0.02917  1.0000
  H   H740      1.0  0.50606  0.86095  0.38745  1.0000
  H   H741      1.0  0.50599  0.93397  0.29314  1.0000
  H   H742      1.0  0.74462  0.96198  0.46778  1.0000
  H   H743      1.0  0.51751  0.72248  0.46860  1.0000
  H   H744      1.0  0.71937  0.98425  0.56813  1.0000
  H   H745      1.0  0.83944  0.96790  0.63937  1.0000
  C   C931      1.0  0.93714  0.00393  0.93053  1.0000
  H   H746      1.0  0.86620  0.89676  0.94529  1.0000
  C   C932      1.0  0.93985  0.98475  0.95851  1.0000
  H   H747      1.0  0.79500  0.99735  0.63037  1.0000
  H   H748      1.0  0.68505  0.99435  0.67113  1.0000
  C   C933      1.0  0.70011  0.98698  0.61873  1.0000
  H   H749      1.0  0.57643  0.98954  0.60899  1.0000
  C   C934      1.0  0.78728  0.96541  0.93951  1.0000
  C   C935      1.0  0.84643  0.97966  0.55266  1.0000
  H   H750      1.0  0.90471  0.93416  0.95232  1.0000
  C   C936      1.0  0.57074  0.00346  0.58738  1.0000
  C   C937      1.0  0.80196  0.00251  0.57504  1.0000
  H   H751      1.0  0.76433  0.97140  0.52640  1.0000
  C   C938      1.0  0.83427  0.97571  0.61360  1.0000
  C   C939      1.0  0.86190  0.00247  0.95629  1.0000
  C   C940      1.0  0.75591  0.98955  0.51145  1.0000
  C   C941      1.0  0.82117  0.99641  0.54732  1.0000
  C   C942      1.0  0.72069  0.99470  0.59330  1.0000
  H   H752      1.0  0.68317  0.97099  0.61287  1.0000
  H   H753      1.0  0.77205  0.92745  0.96678  1.0000
  H   H754      1.0  0.60440  0.75923  0.46864  1.0000
  C   C943      1.0  0.97445  0.95542  0.92556  1.0000
  H   H755      1.0  0.52531  0.99021  0.58675  1.0000
  H   H756      1.0  0.98300  0.88884  0.94626  1.0000
  H   H757      1.0  0.98883  0.93684  0.92307  1.0000
  H   H758      1.0  0.86100  0.97481  0.53110  1.0000
  C   C944      1.0  0.54193  0.00405  0.57501  1.0000
  H   H759      1.0  0.87253  0.95630  0.58991  1.0000
  H   H760      1.0  0.98319  0.97028  0.87346  1.0000
  C   C945      1.0  0.59162  0.93819  0.47144  1.0000
  H   H761      1.0  0.67937  0.96114  0.51979  1.0000
  H   H762      1.0  0.53344  0.96179  0.51889  1.0000
  C   C946      1.0  0.95270  0.99865  0.89988  1.0000
  H   H763      1.0  0.79323  0.95316  0.91641  1.0000
  H   H764      1.0  0.61525  0.93559  0.47330  1.0000
  C   C947      1.0  0.74501  0.98412  0.47818  1.0000
  C   C948      1.0  0.54510  0.95260  0.49705  1.0000
  C   C949      1.0  0.57561  0.94942  0.49947  1.0000
  C   C950      1.0  0.70119  0.00007  0.65155  1.0000
  H   H765      1.0  0.85283  0.95599  0.95572  1.0000
  C   C951      1.0  0.80895  0.99239  0.60834  1.0000
  H   H766      1.0  0.99712  0.89141  0.87219  1.0000
  C   C952      1.0  0.85294  0.96925  0.58577  1.0000
  C   C953      1.0  0.67236  0.97883  0.50321  1.0000
  H   H767      1.0  0.55652  0.75063  0.49809  1.0000
  C   C954      1.0  0.97138  0.97443  0.89742  1.0000
  H   H768      1.0  0.58699  0.95590  0.52295  1.0000
  C   C955      1.0  0.95852  0.96025  0.95624  1.0000
  C   C956      1.0  0.88508  0.89220  0.96137  1.0000
  C   C957      1.0  0.56007  0.74249  0.47198  1.0000
  C   C958      1.0  0.90690  0.91355  0.96576  1.0000
  C   C959      1.0  0.79179  0.99572  0.94061  1.0000
  C   C960      1.0  0.99816  0.89129  0.96765  1.0000
