data_image0
_chemical_formula_structural       S2CFeS2FeS2FeSFeS3C2H4C2HC6H4CHC4H2C2HPHC2H3CH2CH7CH3CH2C9PCHCH7CH3C2HC3HC3H3CH10CFeC5PC19H9CH2C2HC2HCHC3HC5H2C4SCH3C2SH2PCHC2HC2HC3H6C2FeS2FeS2FeSFeS3CS2C5H2C6H5CH4CH2C2HCHCHC6PC5HC2HC9H6CH8SHC3H2CH2C6PC5HC4HC3HC3H7C2H2C3H5C3HCHC2PHFeH5CHCH2C2HCH2CH2C3HC4HC2HC2SCHSFeS2FeS2FeSFeS3CH2C3H2C3HCHC2H3C6H5CHSHC10PCH2C3H3C2H4CH2CHC4PC8HSHC10H9C3H5C6HC2HC5HCH2CH2C2HCHCH5FeHC5HCH2FeH2CHCH4C2HCFeS2FeS2FeSFeS3CSC9H4C5SH2CHCHC3H2C6PC2H2CHCHC2H6C2HCH6C6H3CHCHCHCHPC2H3C9HCHCH5CH3CHC2H2CPC5H2C2H3SHCHFeHC4HCHFeCSH2S2HFeS2CH3SC3H4CSC6H3CH2CH4FeH2C6H2CPC6HC4HC2HC3H4C2H3C4HC2PC11HSHCH2CH3CHCHC2HFeHFeCH2C2SCH2CHFeC4HFeSCSFeS2C2S2C2HCH2C6H4C9PCH2PCH2C5FeC3HSHCH5CHCHCH2C2FeCH2CH2C2H2C2HC2HC3HCSCH2CPCH2CHC3HCHCHCFeCH5C2HCHCH3SH4CSH3C2HCHCH2C3HC9H3C2H2CHCFePC2HCH3CFeS2FeCFeS2CSHCHFeSHSC6H7CSCH2C2SC3HCHCHCH2C3H2C6HCH2CHC2HCPH2C2PHC2HC8FeH2CPHC3H7CHC4H2C3HC4HCHC2H2C3FeS2C2S2FeS2HC3SHCH2C6H4CH4C3HCH4C3H2CHC2HCHCHCH2CPHCHCHSH2C2HC2H2C3FeHC5H2FeC2HC6H7C2HFeH2CH3CFeCSHCHC2SHSH2FeS2FeS2FeSFeS3H2C2HC2H2C3HCHC7H4CHC9HCH3C6PC15H7CH14C2PC7HC2H2C6SH7CH2CH5C3FeC2PC3HCH2CHC4HFeS2FeS2FeSFeS3CSC2SHC4H2C7H4CH2CHCHCHCH4CHC2HC2FeC5H6CH2CHCH2CHCH3CHCHC2H4C7PCHC2H2C2H2C2H2C3HCHCH2C3PCH7C8HC3H4C3HSHCHC5H3C3S2FeS2FeS2FeSFeS3C2HCH3CH2CHCHCHC9H7CHC6PC16H16CHC4H6CHCHC3H2C2H4C2PC17H4C2H5CHCHCHCH3FeHCH3CSHFeS2FeS2FeSFeS4H2C7H4C2HC2H5C2PH3C5H2C3H4C4PC12HCHC2H3CH6C2H2CH2C2H2SH3CHCHPHC3HC4HCSHCHC2HC9HCH3C2H3CFeSH2
_chemical_formula_sum              "S128 C960 Fe64 H768 P32"
_cell_length_a       37.8378
_cell_length_b       36.2077
_cell_length_c       37.2609
_cell_angle_alpha    89.5173
_cell_angle_beta     91.5201
_cell_angle_gamma    92.1015

_space_group_name_H-M_alt    "P 1"
_space_group_IT_number       1

loop_
  _space_group_symop_operation_xyz
  'x, y, z'

loop_
  _atom_site_type_symbol
  _atom_site_label
  _atom_site_symmetry_multiplicity
  _atom_site_fract_x
  _atom_site_fract_y
  _atom_site_fract_z
  _atom_site_occupancy
  S   S1        1.0  0.30457  0.36314  0.39146  1.0000
  S   S2        1.0  0.29286  0.26739  0.34279  1.0000
  C   C1        1.0  0.28458  0.39794  0.28262  1.0000
  Fe  Fe1       1.0  0.19568  0.22864  0.16411  1.0000
  S   S3        1.0  0.15797  0.23350  0.11662  1.0000
  S   S4        1.0  0.22699  0.27870  0.18512  1.0000
  Fe  Fe2       1.0  0.18272  0.14580  0.17252  1.0000
  S   S5        1.0  0.14417  0.14371  0.12548  1.0000
  S   S6        1.0  0.20538  0.09830  0.20556  1.0000
  Fe  Fe3       1.0  0.18285  0.18191  0.09679  1.0000
  S   S7        1.0  0.19238  0.17288  0.03698  1.0000
  Fe  Fe4       1.0  0.12216  0.19549  0.14835  1.0000
  S   S8        1.0  0.06250  0.19861  0.15520  1.0000
  S   S9        1.0  0.22305  0.18016  0.14197  1.0000
  S   S10       1.0  0.15814  0.19450  0.19749  1.0000
  C   C2        1.0  0.03538  0.23747  0.14902  1.0000
  C   C3        1.0  0.04945  0.27309  0.14242  1.0000
  H   H1        1.0  0.07773  0.27756  0.14035  1.0000
  H   H2        1.0  0.13351  0.30292  0.19416  1.0000
  H   H3        1.0  0.31426  0.48324  0.19593  1.0000
  H   H4        1.0  0.26654  0.18888  0.05881  1.0000
  C   C4        1.0  0.18271  0.06638  0.23409  1.0000
  C   C5        1.0  0.14741  0.07045  0.24310  1.0000
  H   H5        1.0  0.13307  0.09350  0.23228  1.0000
  C   C6        1.0  0.24402  0.27612  0.22950  1.0000
  C   C7        1.0  0.26830  0.30354  0.24203  1.0000
  C   C8        1.0  0.28381  0.30095  0.27662  1.0000
  C   C9        1.0  0.27405  0.27166  0.29932  1.0000
  C   C10       1.0  0.24884  0.24496  0.28726  1.0000
  C   C11       1.0  0.23407  0.24697  0.25237  1.0000
  H   H6        1.0  0.27551  0.32660  0.22481  1.0000
  H   H7        1.0  0.30341  0.32152  0.28561  1.0000
  H   H8        1.0  0.24065  0.22262  0.30497  1.0000
  H   H9        1.0  0.21494  0.22604  0.24327  1.0000
  C   C12       1.0  0.06563  0.13567  0.27816  1.0000
  H   H10       1.0  0.19045  0.04658  0.14906  1.0000
  C   C13       1.0  0.16121  0.41680  0.12081  1.0000
  C   C14       1.0  0.27525  0.11511  0.28367  1.0000
  C   C15       1.0  0.01526  0.26631  0.26584  1.0000
  C   C16       1.0  0.18813  0.43580  0.14038  1.0000
  H   H11       1.0  0.33011  0.39453  0.09728  1.0000
  H   H12       1.0  0.26566  0.32688  0.47189  1.0000
  C   C17       1.0  0.23778  0.48807  0.19223  1.0000
  C   C18       1.0  0.21848  0.07770  0.10909  1.0000
  H   H13       1.0  0.18448  0.13398  0.27621  1.0000
  P   P1        1.0  0.24769  0.44003  0.18685  1.0000
  H   H14       1.0  0.32075  0.21205  0.39695  1.0000
  C   C19       1.0  0.22395  0.50074  0.22431  1.0000
  C   C20       1.0  0.06216  0.16020  0.24926  1.0000
  H   H15       1.0  0.31446  0.33197  0.15574  1.0000
  H   H16       1.0  0.18237  0.32847  0.14171  1.0000
  H   H17       1.0  0.09219  0.22987  0.27511  1.0000
  C   C21       1.0  0.07240  0.09184  0.16182  1.0000
  H   H18       1.0  0.20835  0.32010  0.50323  1.0000
  H   H19       1.0  0.31948  0.27817  0.50117  1.0000
  C   C22       1.0  0.29770  0.02072  0.46298  1.0000
  H   H20       1.0  0.26601  0.11132  0.25610  1.0000
  H   H21       1.0  0.02969  0.12366  0.14020  1.0000
  H   H22       1.0  0.08896  0.11924  0.28101  1.0000
  H   H23       1.0  0.24351  0.24702  0.47009  1.0000
  H   H24       1.0  0.18273  0.29963  0.02781  1.0000
  H   H25       1.0  0.27312  0.39486  0.12755  1.0000
  H   H26       1.0  0.29005  0.26182  0.42608  1.0000
  C   C23       1.0  0.14892  0.01443  0.28054  1.0000
  H   H27       1.0  0.03237  0.24883  0.28144  1.0000
  H   H28       1.0  0.30263  0.06520  0.35585  1.0000
  H   H29       1.0  0.11654  0.05832  0.17521  1.0000
  C   C24       1.0  0.18386  0.35846  0.14141  1.0000
  H   H30       1.0  0.25371  0.07863  0.40685  1.0000
  H   H31       1.0  0.27303  0.17418  0.28133  1.0000
  C   C25       1.0  0.27893  0.15056  0.29804  1.0000
  C   C26       1.0  0.13064  0.04460  0.26619  1.0000
  C   C27       1.0  0.19237  0.07682  0.04912  1.0000
  C   C28       1.0  0.28914  0.18369  0.20801  1.0000
  C   C29       1.0  0.31527  0.21061  0.21683  1.0000
  C   C30       1.0  0.29832  0.15037  0.19284  1.0000
  C   C31       1.0  0.27027  0.03472  0.44170  1.0000
  C   C32       1.0  0.03202  0.18123  0.24549  1.0000
  C   C33       1.0  0.22133  0.38583  0.27986  1.0000
  P   P2        1.0  0.31419  0.13112  0.40134  1.0000
  C   C34       1.0  0.26556  0.18186  0.03063  1.0000
  H   H32       1.0  0.18923  0.46569  0.13953  1.0000
  C   C35       1.0  0.28304  0.23323  0.43241  1.0000
  H   H33       1.0  0.26162  0.18869  0.21277  1.0000
  H   H34       1.0  0.30764  0.23622  0.22865  1.0000
  H   H35       1.0  0.21046  0.14318  0.38870  1.0000
  H   H36       1.0  0.21180  0.10836  0.33162  1.0000
  H   H37       1.0  0.03781  0.33045  0.13301  1.0000
  H   H38       1.0  0.28085  0.05700  0.29356  1.0000
  H   H39       1.0  0.22844  0.03319  0.24213  1.0000
  C   C36       1.0  0.21953  0.40312  0.24619  1.0000
  H   H40       1.0  0.18103  0.32496  0.23653  1.0000
  H   H41       1.0  0.14198  0.43206  0.10519  1.0000
  H   H42       1.0  0.02967  0.20008  0.22289  1.0000
  C   C37       1.0  0.21074  0.37733  0.16106  1.0000
  C   C38       1.0  0.29780  0.12488  0.35559  1.0000
  H   H43       1.0  0.18005  0.20225  0.39086  1.0000
  C   C39       1.0  0.15902  0.37817  0.12139  1.0000
  C   C40       1.0  0.21916  0.08903  0.07319  1.0000
  C   C41       1.0  0.05191  0.19106  0.37687  1.0000
  H   H44       1.0  0.10325  0.04773  0.27277  1.0000
  C   C42       1.0  0.28939  0.43876  0.16442  1.0000
  C   C43       1.0  0.25388  0.38317  0.29804  1.0000
  C   C44       1.0  0.29142  0.16762  0.42333  1.0000
  H   H45       1.0  0.21897  0.48206  0.24656  1.0000
  H   H46       1.0  0.08895  0.25555  0.21362  1.0000
  H   H47       1.0  0.23850  0.08819  0.12809  1.0000
  C   C45       1.0  0.28989  0.15555  0.33388  1.0000
  H   H48       1.0  0.19227  0.08700  0.02167  1.0000
  H   H49       1.0  0.29237  0.18335  0.34427  1.0000
  H   H50       1.0  0.08272  0.16294  0.22954  1.0000
  H   H51       1.0  0.22977  0.36154  0.17643  1.0000
  H   H52       1.0  0.19403  0.40514  0.23257  1.0000
  H   H53       1.0  0.27790  0.12963  0.18592  1.0000
  H   H54       1.0  0.05331  0.31221  0.26606  1.0000
  H   H55       1.0  0.30699  0.42767  0.23851  1.0000
  H   H56       1.0  0.15365  0.19239  0.27772  1.0000
  H   H57       1.0  0.06986  0.04344  0.06928  1.0000
  C   C46       1.0  0.09501  0.04575  0.12221  1.0000
  Fe  Fe5       1.0  0.32764  0.31465  0.36452  1.0000
  C   C47       1.0  0.20111  0.03654  0.24881  1.0000
  C   C48       1.0  0.03541  0.25238  0.35831  1.0000
  C   C49       1.0  0.06986  0.26002  0.34692  1.0000
  C   C50       1.0  0.09569  0.23327  0.35060  1.0000
  C   C51       1.0  0.08646  0.19867  0.36571  1.0000
  P   P3        1.0  0.14030  0.24402  0.33648  1.0000
  C   C52       1.0  0.13764  0.26409  0.29190  1.0000
  C   C53       1.0  0.16291  0.27546  0.36776  1.0000
  C   C54       1.0  0.14408  0.29644  0.39191  1.0000
  C   C55       1.0  0.16211  0.32080  0.41561  1.0000
  C   C56       1.0  0.19898  0.32443  0.41544  1.0000
  C   C57       1.0  0.21787  0.30333  0.39191  1.0000
  C   C58       1.0  0.19997  0.27894  0.36827  1.0000
  C   C59       1.0  0.16270  0.29102  0.28064  1.0000
  C   C60       1.0  0.16092  0.30519  0.24559  1.0000
  C   C61       1.0  0.13425  0.29260  0.22156  1.0000
  C   C62       1.0  0.10922  0.26584  0.23254  1.0000
  C   C63       1.0  0.11101  0.25151  0.26748  1.0000
  C   C64       1.0  0.16442  0.20189  0.33446  1.0000
  C   C65       1.0  0.16585  0.18222  0.30222  1.0000
  C   C66       1.0  0.18317  0.14883  0.30126  1.0000
  C   C67       1.0  0.19883  0.13453  0.33249  1.0000
  C   C68       1.0  0.19797  0.15411  0.36460  1.0000
  C   C69       1.0  0.18081  0.18765  0.36565  1.0000
  C   C70       1.0  0.26311  0.33823  0.49840  1.0000
  H   H58       1.0  0.32210  0.18816  0.02461  1.0000
  H   H59       1.0  0.07645  0.28691  0.33540  1.0000
  H   H60       1.0  0.10572  0.17745  0.36892  1.0000
  H   H61       1.0  0.11560  0.29420  0.39280  1.0000
  H   H62       1.0  0.14754  0.33699  0.43417  1.0000
  H   H63       1.0  0.21288  0.34364  0.43352  1.0000
  H   H64       1.0  0.24646  0.30591  0.39182  1.0000
  H   H65       1.0  0.21513  0.26287  0.35030  1.0000
  H   H66       1.0  0.18426  0.30040  0.29833  1.0000
  C   C71       1.0  0.21296  0.41618  0.16089  1.0000
  H   H67       1.0  0.13811  0.36349  0.10628  1.0000
  H   H68       1.0  0.25743  0.13128  0.45515  1.0000
  C   C72       1.0  0.28289  0.41563  0.24920  1.0000
  C   C73       1.0  0.34374  0.35642  0.20049  1.0000
  H   H69       1.0  0.25543  0.36968  0.32407  1.0000
  C   C74       1.0  0.03882  0.13211  0.30321  1.0000
  C   C75       1.0  0.26487  0.15947  0.44822  1.0000
  H   H70       1.0  0.02771  0.09192  0.08146  1.0000
  C   C76       1.0  0.30035  0.20480  0.41574  1.0000
  H   H71       1.0  0.04142  0.11277  0.32541  1.0000
  C   C77       1.0  0.02674  0.30304  0.13827  1.0000
  C   C78       1.0  0.24770  0.18801  0.46500  1.0000
  C   C79       1.0  0.09634  0.06434  0.15514  1.0000
  H   H72       1.0  0.22747  0.18156  0.48437  1.0000
  C   C80       1.0  0.25672  0.22488  0.45705  1.0000
  C   C81       1.0  0.29524  0.08934  0.34047  1.0000
  C   C82       1.0  0.04644  0.08367  0.10225  1.0000
  C   C83       1.0  0.27525  0.06831  0.42337  1.0000
  C   C84       1.0  0.25038  0.41791  0.23045  1.0000
  H   H73       1.0  0.13993  0.24684  0.03554  1.0000
  H   H74       1.0  0.19753  0.37454  0.29194  1.0000
  C   C85       1.0  0.02709  0.30232  0.25750  1.0000
  C   C86       1.0  0.28347  0.08450  0.30487  1.0000
  C   C87       1.0  0.19119  0.05392  0.12088  1.0000
  C   C88       1.0  0.04748  0.10153  0.13538  1.0000
  S   S11       1.0  0.33107  0.45380  0.34383  1.0000
  C   C89       1.0  0.30787  0.08816  0.42605  1.0000
  H   H75       1.0  0.14380  0.04492  0.04215  1.0000
  H   H76       1.0  0.30978  0.39599  0.29679  1.0000
  H   H77       1.0  0.33434  0.38387  0.19557  1.0000
  C   C90       1.0  0.33015  0.04032  0.46596  1.0000
  C   C91       1.0  0.29418  0.41394  0.13631  1.0000
  S   S12       1.0  0.33459  0.35880  0.49534  1.0000
  H   H78       1.0  0.23977  0.10826  0.06420  1.0000
  H   H79       1.0  0.33607  0.26944  0.16695  1.0000
  P   P4        1.0  0.12789  0.01262  0.11262  1.0000
  C   C92       1.0  0.16500  0.05302  0.06085  1.0000
  H   H80       1.0  0.24519  0.01930  0.43925  1.0000
  C   C93       1.0  0.33375  0.14394  0.18640  1.0000
  C   C94       1.0  0.31733  0.46345  0.17461  1.0000
  H   H81       1.0  0.34109  0.21580  0.48988  1.0000
  C   C95       1.0  0.33282  0.32725  0.17797  1.0000
  C   C96       1.0  0.07025  0.05603  0.09555  1.0000
  H   H82       1.0  0.01447  0.35315  0.23018  1.0000
  C   C97       1.0  0.32655  0.41363  0.11900  1.0000
  C   C98       1.0  0.02638  0.21786  0.37315  1.0000
  C   C99       1.0  0.16460  0.04086  0.09672  1.0000
  H   H83       1.0  0.07391  0.10656  0.18700  1.0000
  H   H84       1.0  0.04494  0.16432  0.38853  1.0000
  H   H85       1.0  0.25556  0.50439  0.13932  1.0000
  H   H86       1.0  0.01573  0.27331  0.35569  1.0000
  H   H87       1.0  0.34082  0.11814  0.17445  1.0000
  H   H88       1.0  0.34268  0.22173  0.28556  1.0000
  C   C100      1.0  0.33530  0.07389  0.44758  1.0000
  C   C101      1.0  0.18437  0.01070  0.27191  1.0000
  Fe  Fe6       1.0  0.11945  0.34486  0.68773  1.0000
  S   S13       1.0  0.14883  0.38193  0.72740  1.0000
  S   S14       1.0  0.07136  0.31566  0.71188  1.0000
  Fe  Fe7       1.0  0.17413  0.36106  0.62939  1.0000
  S   S15       1.0  0.20694  0.40002  0.66458  1.0000
  S   S16       1.0  0.18604  0.34195  0.57273  1.0000
  Fe  Fe8       1.0  0.19782  0.35685  0.70749  1.0000
  S   S17       1.0  0.24121  0.34218  0.74729  1.0000
  Fe  Fe9       1.0  0.15512  0.42214  0.68201  1.0000
  S   S18       1.0  0.14331  0.48313  0.68830  1.0000
  S   S19       1.0  0.16830  0.31650  0.67161  1.0000
  S   S20       1.0  0.12245  0.38667  0.64292  1.0000
  C   C102      1.0  0.32256  0.29735  0.92573  1.0000
  S   S21       1.0  0.27127  0.17413  0.77847  1.0000
  S   S22       1.0  0.31626  0.11796  0.85706  1.0000
  C   C103      1.0  0.29235  0.35622  0.51521  1.0000
  C   C104      1.0  0.29647  0.17211  0.97449  1.0000
  C   C105      1.0  0.26382  0.16342  0.95748  1.0000
  C   C106      1.0  0.23227  0.16419  0.97690  1.0000
  C   C107      1.0  0.32359  0.38348  0.65288  1.0000
  H   H89       1.0  0.26289  0.15604  0.92941  1.0000
  H   H90       1.0  0.20720  0.15752  0.96342  1.0000
  C   C108      1.0  0.24728  0.29517  0.75678  1.0000
  C   C109      1.0  0.23148  0.26722  0.73544  1.0000
  C   C110      1.0  0.23767  0.22998  0.74335  1.0000
  C   C111      1.0  0.26044  0.22059  0.77198  1.0000
  C   C112      1.0  0.27548  0.24854  0.79375  1.0000
  C   C113      1.0  0.26897  0.28567  0.78616  1.0000
  H   H91       1.0  0.21511  0.27416  0.71247  1.0000
  H   H92       1.0  0.22582  0.20848  0.72652  1.0000
  H   H93       1.0  0.29210  0.24170  0.81648  1.0000
  H   H94       1.0  0.28095  0.30712  0.80300  1.0000
  H   H95       1.0  0.02475  0.18082  0.68099  1.0000
  C   C114      1.0  0.01243  0.25967  0.63536  1.0000
  H   H96       1.0  0.31701  0.25565  0.96708  1.0000
  H   H97       1.0  0.17622  0.46523  0.75807  1.0000
  H   H98       1.0  0.21669  0.08380  0.70747  1.0000
  H   H99       1.0  0.27171  0.30921  0.67666  1.0000
  C   C115      1.0  0.23738  0.26179  0.61987  1.0000
  H   H100      1.0  0.25430  0.37690  0.59476  1.0000
  H   H101      1.0  0.18387  0.14238  0.81691  1.0000
  C   C116      1.0  0.03855  0.28790  0.68924  1.0000
  C   C117      1.0  0.03722  0.28452  0.65191  1.0000
  H   H102      1.0  0.12490  0.20530  0.98477  1.0000
  C   C118      1.0  0.25711  0.20681  0.65081  1.0000
  H   H103      1.0  0.05578  0.30043  0.63590  1.0000
  C   C119      1.0  0.29230  0.32489  0.66293  1.0000
  H   H104      1.0  0.11427  0.27559  0.61044  1.0000
  C   C120      1.0  0.16911  0.09944  0.67892  1.0000
  C   C121      1.0  0.19445  0.10190  0.70683  1.0000
  C   C122      1.0  0.19104  0.12759  0.73411  1.0000
  C   C123      1.0  0.16236  0.15091  0.73357  1.0000
  C   C124      1.0  0.13713  0.14929  0.70518  1.0000
  C   C125      1.0  0.14053  0.12293  0.67813  1.0000
  P   P5        1.0  0.09931  0.17861  0.70437  1.0000
  C   C126      1.0  0.09443  0.19777  0.65944  1.0000
  C   C127      1.0  0.06054  0.15055  0.71546  1.0000
  C   C128      1.0  0.04608  0.45093  0.72772  1.0000
  C   C129      1.0  0.14277  0.22898  0.98082  1.0000
  C   C130      1.0  0.33521  0.43097  0.84596  1.0000
  H   H105      1.0  0.32109  0.44579  0.82499  1.0000
  C   C131      1.0  0.06289  0.12192  0.74099  1.0000
  C   C132      1.0  0.10689  0.23386  0.65143  1.0000
  H   H106      1.0  0.25375  0.24268  0.95380  1.0000
  C   C133      1.0  0.28880  0.37017  0.55000  1.0000
  C   C134      1.0  0.07866  0.17622  0.63173  1.0000
  C   C135      1.0  0.10526  0.21540  0.73690  1.0000
  C   C136      1.0  0.13700  0.23682  0.73883  1.0000
  C   C137      1.0  0.14120  0.26575  0.76338  1.0000
  C   C138      1.0  0.11386  0.27346  0.78630  1.0000
  C   C139      1.0  0.08240  0.25206  0.78491  1.0000
  C   C140      1.0  0.07798  0.22328  0.76022  1.0000
  C   C141      1.0  0.10478  0.24758  0.61626  1.0000
  H   H107      1.0  0.21073  0.12942  0.75576  1.0000
  H   H108      1.0  0.16015  0.16996  0.75545  1.0000
  H   H109      1.0  0.12098  0.12009  0.65658  1.0000
  H   H110      1.0  0.08663  0.23705  0.56198  1.0000
  H   H111      1.0  0.27997  0.37579  0.68846  1.0000
  H   H112      1.0  0.22288  0.48577  0.68066  1.0000
  C   C142      1.0  0.16883  0.49379  0.75840  1.0000
  H   H113      1.0  0.08810  0.11557  0.75353  1.0000
  H   H114      1.0  0.11771  0.25191  0.67212  1.0000
  H   H115      1.0  0.33233  0.03113  0.70495  1.0000
  H   H116      1.0  0.15823  0.23165  0.72082  1.0000
  H   H117      1.0  0.16529  0.28284  0.76400  1.0000
  H   H118      1.0  0.11666  0.29660  0.80449  1.0000
  H   H119      1.0  0.06091  0.25861  0.80206  1.0000
  H   H120      1.0  0.05286  0.20802  0.75886  1.0000
  S   S23       1.0  0.33714  0.17235  0.95132  1.0000
  H   H121      1.0  0.33559  0.18986  0.60239  1.0000
  C   C143      1.0  0.19518  0.21237  0.63446  1.0000
  C   C144      1.0  0.22235  0.19235  0.65040  1.0000
  C   C145      1.0  0.21936  0.17350  0.85215  1.0000
  H   H122      1.0  0.27433  0.49555  0.72251  1.0000
  H   H123      1.0  0.31231  0.02663  0.82476  1.0000
  C   C146      1.0  0.17561  0.28199  0.00523  1.0000
  H   H124      1.0  0.31124  0.38413  0.56315  1.0000
  H   H125      1.0  0.01241  0.25610  0.60658  1.0000
  C   C147      1.0  0.15124  0.36693  0.87548  1.0000
  C   C148      1.0  0.15738  0.37143  0.83886  1.0000
  C   C149      1.0  0.17712  0.34576  0.82108  1.0000
  C   C150      1.0  0.19061  0.31550  0.83972  1.0000
  C   C151      1.0  0.18476  0.31084  0.87656  1.0000
  C   C152      1.0  0.16497  0.33684  0.89436  1.0000
  P   P6        1.0  0.20411  0.27261  0.90056  1.0000
  C   C153      1.0  0.18271  0.26484  0.94291  1.0000
  C   C154      1.0  0.19829  0.23176  0.87332  1.0000
  C   C155      1.0  0.16654  0.22536  0.85358  1.0000
  C   C156      1.0  0.16133  0.19328  0.83322  1.0000
  C   C157      1.0  0.18773  0.16730  0.83260  1.0000
  H   H126      1.0  0.30543  0.29655  0.56241  1.0000
  C   C158      1.0  0.22476  0.20565  0.87233  1.0000
  C   C159      1.0  0.29701  0.36266  0.66985  1.0000
  C   C160      1.0  0.01691  0.39330  0.70919  1.0000
  C   C161      1.0  0.02735  0.15861  0.70029  1.0000
  H   H127      1.0  0.21034  0.31103  0.96917  1.0000
  C   C162      1.0  0.15836  0.23507  0.94760  1.0000
  C   C163      1.0  0.25059  0.28228  0.90992  1.0000
  C   C164      1.0  0.26988  0.30830  0.88940  1.0000
  H   H128      1.0  0.24279  0.28843  0.60723  1.0000
  C   C165      1.0  0.04730  0.41637  0.71157  1.0000
  C   C166      1.0  0.25652  0.36611  0.56796  1.0000
  C   C167      1.0  0.23077  0.33422  0.51633  1.0000
  H   H129      1.0  0.13602  0.38697  0.88928  1.0000
  H   H130      1.0  0.14701  0.39490  0.82424  1.0000
  H   H131      1.0  0.18213  0.34941  0.79279  1.0000
  H   H132      1.0  0.20595  0.29595  0.82543  1.0000
  H   H133      1.0  0.15998  0.33413  0.92270  1.0000
  H   H134      1.0  0.14567  0.24500  0.85424  1.0000
  H   H135      1.0  0.13679  0.18858  0.81802  1.0000
  C   C168      1.0  0.07584  0.19034  0.59676  1.0000
  C   C169      1.0  0.30376  0.27083  0.94573  1.0000
  H   H136      1.0  0.24003  0.15361  0.85120  1.0000
  H   H137      1.0  0.06978  0.46878  0.72937  1.0000
  C   C170      1.0  0.30574  0.31577  0.89733  1.0000
  C   C171      1.0  0.22726  0.34816  0.55118  1.0000
  C   C172      1.0  0.31421  0.30769  0.63880  1.0000
  H   H138      1.0  0.15179  0.21599  0.92609  1.0000
  H   H139      1.0  0.25749  0.32294  0.86732  1.0000
  H   H140      1.0  0.18184  0.26262  0.60639  1.0000
  H   H141      1.0  0.27789  0.19033  0.66239  1.0000
  H   H142      1.0  0.24961  0.20985  0.88701  1.0000
  C   C173      1.0  0.08914  0.22591  0.58897  1.0000
  C   C174      1.0  0.26478  0.24192  0.63603  1.0000
  C   C175      1.0  0.19127  0.28822  0.97204  1.0000
  H   H143      1.0  0.27834  0.03283  0.88009  1.0000
  C   C176      1.0  0.26789  0.26339  0.93798  1.0000
  H   H144      1.0  0.07192  0.40736  0.70099  1.0000
  C   C177      1.0  0.32608  0.23595  0.70159  1.0000
  C   C178      1.0  0.32609  0.43500  0.88176  1.0000
  P   P7        1.0  0.30993  0.25852  0.63186  1.0000
  H   H145      1.0  0.06785  0.14871  0.63720  1.0000
  Fe  Fe10      1.0  0.31806  0.16353  0.81556  1.0000
  H   H146      1.0  0.32039  0.33580  0.88136  1.0000
  H   H147      1.0  0.16845  0.20072  0.63357  1.0000
  H   H148      1.0  0.21658  0.16545  0.66219  1.0000
  H   H149      1.0  0.06278  0.17387  0.57583  1.0000
  H   H150      1.0  0.17151  0.07915  0.65799  1.0000
  C   C179      1.0  0.20271  0.24705  0.61916  1.0000
  H   H151      1.0  0.29970  0.24388  0.70791  1.0000
  C   C180      1.0  0.33819  0.23946  0.66643  1.0000
  H   H152      1.0  0.33338  0.30997  0.75561  1.0000
  H   H153      1.0  0.30497  0.45298  0.88852  1.0000
  C   C181      1.0  0.03241  0.10157  0.75088  1.0000
  C   C182      1.0  0.32150  0.24539  0.58721  1.0000
  H   H154      1.0  0.03419  0.07957  0.77067  1.0000
  C   C183      1.0  0.01340  0.26822  0.70962  1.0000
  H   H155      1.0  0.33851  0.21971  0.75610  1.0000
  H   H156      1.0  0.01837  0.36662  0.69654  1.0000
  C   C184      1.0  0.31591  0.26959  0.55820  1.0000
  H   H157      1.0  0.18834  0.50306  0.81269  1.0000
  H   H158      1.0  0.01415  0.27074  0.73847  1.0000
  C   C185      1.0  0.33556  0.22379  0.51701  1.0000
  C   C186      1.0  0.01437  0.46237  0.74167  1.0000
  C   C187      1.0  0.33282  0.20963  0.58060  1.0000
  H   H159      1.0  0.32679  0.41285  0.65794  1.0000
  C   C188      1.0  0.32336  0.25899  0.52332  1.0000
  C   C189      1.0  0.15235  0.50923  0.72806  1.0000
  C   C190      1.0  0.34151  0.32857  0.62257  1.0000
  C   C191      1.0  0.34008  0.19898  0.54559  1.0000
  H   H160      1.0  0.33732  0.41935  0.93662  1.0000
  C   C192      1.0  0.29705  0.18140  0.01114  1.0000
  C   C193      1.0  0.15136  0.25239  0.00959  1.0000
  H   H161      1.0  0.01354  0.48919  0.75425  1.0000
  C   C194      1.0  0.23292  0.17322  0.01363  1.0000
  C   C195      1.0  0.34431  0.41601  0.90883  1.0000
  S   S24       1.0  0.27537  0.63272  0.09743  1.0000
  C   C196      1.0  0.31420  0.78515  0.10758  1.0000
  H   H162      1.0  0.01538  0.75831  0.28522  1.0000
  S   S25       1.0  0.30936  0.62022  0.19418  1.0000
  Fe  Fe11      1.0  0.19481  0.86326  0.31121  1.0000
  S   S26       1.0  0.20058  0.91282  0.34741  1.0000
  S   S27       1.0  0.23586  0.85122  0.27010  1.0000
  Fe  Fe12      1.0  0.11830  0.84365  0.33315  1.0000
  S   S28       1.0  0.11842  0.89236  0.37020  1.0000
  S   S29       1.0  0.07149  0.80578  0.31393  1.0000
  Fe  Fe13      1.0  0.14591  0.92563  0.32681  1.0000
  S   S30       1.0  0.12633  0.98221  0.30893  1.0000
  Fe  Fe14      1.0  0.17338  0.87567  0.38798  1.0000
  S   S31       1.0  0.18447  0.87377  0.44874  1.0000
  S   S32       1.0  0.14174  0.87818  0.28852  1.0000
  S   S33       1.0  0.17182  0.82511  0.35295  1.0000
  C   C197      1.0  0.19902  0.66494  0.32204  1.0000
  H   H163      1.0  0.28967  0.77299  0.49840  1.0000
  H   H164      1.0  0.33641  0.76744  0.10432  1.0000
  C   C198      1.0  0.22460  0.86607  0.47322  1.0000
  C   C199      1.0  0.25551  0.85660  0.45631  1.0000
  C   C200      1.0  0.28639  0.84951  0.47693  1.0000
  H   H165      1.0  0.10153  0.62587  0.31218  1.0000
  H   H166      1.0  0.25544  0.85447  0.42740  1.0000
  C   C201      1.0  0.31851  0.82331  0.10262  1.0000
  C   C202      1.0  0.03343  0.77897  0.37261  1.0000
  C   C203      1.0  0.03722  0.77932  0.33536  1.0000
  H   H167      1.0  0.05172  0.79522  0.38940  1.0000
  C   C204      1.0  0.15911  0.74749  0.30206  1.0000
  H   H168      1.0  0.07399  0.70349  0.39346  1.0000
  C   C205      1.0  0.27607  0.68936  0.43445  1.0000
  C   C206      1.0  0.07668  0.96551  0.08057  1.0000
  H   H169      1.0  0.12349  0.80140  0.42177  1.0000
  H   H170      1.0  0.19880  0.98775  0.28284  1.0000
  H   H171      1.0  0.24855  0.64564  0.30347  1.0000
  C   C207      1.0  0.28592  0.73803  0.26868  1.0000
  C   C208      1.0  0.26640  0.74833  0.29826  1.0000
  C   C209      1.0  0.25118  0.78311  0.29911  1.0000
  C   C210      1.0  0.25560  0.80787  0.27045  1.0000
  C   C211      1.0  0.27606  0.79803  0.24140  1.0000
  C   C212      1.0  0.29107  0.76312  0.24041  1.0000
  H   H172      1.0  0.26271  0.72917  0.32037  1.0000
  H   H173      1.0  0.23624  0.79088  0.32199  1.0000
  H   H174      1.0  0.28003  0.81725  0.21936  1.0000
  H   H175      1.0  0.30623  0.75553  0.21761  1.0000
  H   H176      1.0  0.02914  0.89885  0.30604  1.0000
  C   C213      1.0  0.23508  0.63812  0.03498  1.0000
  H   H177      1.0  0.19094  0.57134  0.37308  1.0000
  S   S34       1.0  0.33406  0.70262  0.16427  1.0000
  H   H178      1.0  0.10787  0.76037  0.37069  1.0000
  C   C214      1.0  0.15747  0.77072  0.27193  1.0000
  C   C215      1.0  0.21680  0.53811  0.22813  1.0000
  C   C216      1.0  0.16082  0.72743  0.02187  1.0000
  C   C217      1.0  0.16427  0.72534  0.08687  1.0000
  C   C218      1.0  0.19311  0.59746  0.35874  1.0000
  C   C219      1.0  0.22339  0.56300  0.20003  1.0000
  C   C220      1.0  0.20004  0.77057  0.05431  1.0000
  C   C221      1.0  0.08332  0.63582  0.33153  1.0000
  C   C222      1.0  0.09278  0.66656  0.35300  1.0000
  C   C223      1.0  0.31995  0.84830  0.32549  1.0000
  P   P8        1.0  0.13511  0.69055  0.34707  1.0000
  C   C224      1.0  0.13277  0.71988  0.30753  1.0000
  H   H179      1.0  0.27328  0.66612  0.41631  1.0000
  H   H180      1.0  0.19269  0.97507  0.13304  1.0000
  C   C225      1.0  0.12948  0.76658  0.24698  1.0000
  C   C226      1.0  0.10301  0.73930  0.25222  1.0000
  C   C227      1.0  0.10450  0.71611  0.28241  1.0000
  H   H181      1.0  0.29296  0.87548  0.10189  1.0000
  H   H182      1.0  0.20385  0.72779  0.45721  1.0000
  H   H183      1.0  0.17201  0.78595  0.46439  1.0000
  C   C228      1.0  0.16912  0.65704  0.34272  1.0000
  C   C229      1.0  0.06813  0.67949  0.37705  1.0000
  H   H184      1.0  0.18076  0.75134  0.32137  1.0000
  H   H185      1.0  0.12788  0.78506  0.22406  1.0000
  H   H186      1.0  0.08074  0.73685  0.23344  1.0000
  H   H187      1.0  0.08308  0.69606  0.28628  1.0000
  C   C230      1.0  0.26170  0.65528  0.05688  1.0000
  H   H188      1.0  0.29669  0.70315  0.06251  1.0000
  H   H189      1.0  0.27143  0.73015  0.39218  1.0000
  C   C231      1.0  0.28105  0.68332  0.47138  1.0000
  H   H190      1.0  0.20640  0.54786  0.25300  1.0000
  C   C232      1.0  0.02568  0.63123  0.35839  1.0000
  C   C233      1.0  0.03489  0.66167  0.37987  1.0000
  C   C234      1.0  0.06436  0.93893  0.05574  1.0000
  C   C235      1.0  0.28969  0.84593  0.10615  1.0000
  P   P9        1.0  0.20889  0.77151  0.12897  1.0000
  C   C236      1.0  0.25652  0.83041  0.11467  1.0000
  C   C237      1.0  0.21411  0.73342  0.16017  1.0000
  C   C238      1.0  0.22378  0.69881  0.14769  1.0000
  C   C239      1.0  0.22954  0.66979  0.17184  1.0000
  C   C240      1.0  0.22569  0.67498  0.20860  1.0000
  C   C241      1.0  0.21523  0.70897  0.22110  1.0000
  C   C242      1.0  0.20970  0.73813  0.19714  1.0000
  C   C243      1.0  0.17352  0.71077  0.40993  1.0000
  H   H191      1.0  0.28248  0.65523  0.48139  1.0000
  S   S35       1.0  0.30232  0.69317  0.26756  1.0000
  H   H192      1.0  0.03704  0.92876  0.05603  1.0000
  C   C244      1.0  0.24453  0.51337  0.16420  1.0000
  C   C245      1.0  0.18087  0.80508  0.14837  1.0000
  C   C246      1.0  0.19415  0.82807  0.17616  1.0000
  C   C247      1.0  0.17221  0.85276  0.19250  1.0000
  C   C248      1.0  0.13699  0.85531  0.18085  1.0000
  C   C249      1.0  0.12365  0.83296  0.15286  1.0000
  C   C250      1.0  0.14543  0.80780  0.13673  1.0000
  C   C251      1.0  0.04992  0.61824  0.33427  1.0000
  C   C252      1.0  0.31715  0.83542  0.36077  1.0000
  C   C253      1.0  0.25212  0.79213  0.12046  1.0000
  H   H193      1.0  0.18805  0.68585  0.40708  1.0000
  H   H194      1.0  0.27943  0.78332  0.43341  1.0000
  H   H195      1.0  0.22768  0.69433  0.11935  1.0000
  H   H196      1.0  0.23782  0.64354  0.16194  1.0000
  H   H197      1.0  0.23164  0.65308  0.22753  1.0000
  H   H198      1.0  0.21270  0.71327  0.24955  1.0000
  H   H199      1.0  0.20283  0.76431  0.20802  1.0000
  H   H200      1.0  0.15575  0.71271  0.11178  1.0000
  H   H201      1.0  0.29501  0.84316  0.37659  1.0000
  C   C254      1.0  0.27522  0.72541  0.42079  1.0000
  C   C255      1.0  0.16454  0.76706  0.44279  1.0000
  C   C256      1.0  0.23737  0.55069  0.16813  1.0000
  H   H202      1.0  0.22130  0.82629  0.18591  1.0000
  H   H203      1.0  0.18254  0.86953  0.21460  1.0000
  H   H204      1.0  0.12000  0.87437  0.19376  1.0000
  H   H205      1.0  0.09630  0.83486  0.14387  1.0000
  H   H206      1.0  0.13442  0.79046  0.11540  1.0000
  C   C257      1.0  0.12706  0.96007  0.21044  1.0000
  C   C258      1.0  0.16122  0.94684  0.21359  1.0000
  C   C259      1.0  0.18463  0.95195  0.18550  1.0000
  C   C260      1.0  0.17425  0.97133  0.15461  1.0000
  C   C261      1.0  0.14067  0.98662  0.15212  1.0000
  C   C262      1.0  0.11664  0.97963  0.17967  1.0000
  H   H207      1.0  0.27822  0.73989  0.11901  1.0000
  C   C263      1.0  0.11190  0.97912  0.07995  1.0000
  C   C264      1.0  0.27622  0.68958  0.04609  1.0000
  H   H208      1.0  0.21098  0.94127  0.18796  1.0000
  C   C265      1.0  0.22552  0.63923  0.31949  1.0000
  C   C266      1.0  0.01281  0.75821  0.31406  1.0000
  C   C267      1.0  0.34310  0.53459  0.26800  1.0000
  C   C268      1.0  0.13496  0.96471  0.05515  1.0000
  C   C269      1.0  0.14635  0.71975  0.38521  1.0000
  H   H209      1.0  0.21789  0.59188  0.20302  1.0000
  C   C270      1.0  0.22253  0.60545  0.33773  1.0000
  H   H210      1.0  0.31008  0.84187  0.46361  1.0000
  H   H211      1.0  0.04255  0.59481  0.31741  1.0000
  C   C271      1.0  0.28112  0.76959  0.11622  1.0000
  H   H212      1.0  0.10902  0.95598  0.23240  1.0000
  H   H213      1.0  0.16971  0.93302  0.23805  1.0000
  C   C272      1.0  0.18259  0.73445  0.43852  1.0000
  C   C273      1.0  0.08723  0.92535  0.03057  1.0000
  H   H214      1.0  0.09011  0.98979  0.17780  1.0000
  C   C274      1.0  0.13714  0.77581  0.41873  1.0000
  H   H215      1.0  0.24316  0.58558  0.33571  1.0000
  C   C275      1.0  0.27979  0.75539  0.44402  1.0000
  H   H216      1.0  0.16253  0.97385  0.05501  1.0000
  H   H217      1.0  0.29984  0.86578  0.31402  1.0000
  H   H218      1.0  0.17756  0.79242  0.26826  1.0000
  H   H219      1.0  0.13116  0.68848  0.05415  1.0000
  H   H220      1.0  0.23432  0.84829  0.11627  1.0000
  Fe  Fe15      1.0  0.31833  0.64735  0.14022  1.0000
  H   H221      1.0  0.29386  0.99455  0.47703  1.0000
  C   C276      1.0  0.18969  0.75463  0.08705  1.0000
  C   C277      1.0  0.16657  0.62319  0.36139  1.0000
  C   C278      1.0  0.18554  0.75703  0.02190  1.0000
  C   C279      1.0  0.12836  0.75252  0.38982  1.0000
  C   C280      1.0  0.28506  0.74944  0.48091  1.0000
  H   H222      1.0  0.24306  0.57017  0.14650  1.0000
  C   C281      1.0  0.28455  0.71336  0.49502  1.0000
  H   H223      1.0  0.20231  0.69095  0.30803  1.0000
  H   H224      1.0  0.14420  0.61673  0.37819  1.0000
  Fe  Fe16      1.0  0.32947  0.67403  0.21785  1.0000
  H   H225      1.0  0.01587  0.67192  0.39829  1.0000
  H   H226      1.0  0.22353  0.61168  0.04306  1.0000
  C   C282      1.0  0.12256  0.93810  0.03039  1.0000
  H   H227      1.0  0.33225  0.56138  0.26263  1.0000
  C   C283      1.0  0.15009  0.71167  0.05434  1.0000
  H   H228      1.0  0.21966  0.79301  0.05354  1.0000
  H   H229      1.0  0.05875  0.97536  0.10024  1.0000
  H   H230      1.0  0.34408  0.83524  0.09554  1.0000
  H   H231      1.0  0.31187  0.52393  0.31487  1.0000
  C   C284      1.0  0.33157  0.51329  0.29759  1.0000
  C   C285      1.0  0.22517  0.86887  0.51092  1.0000
  H   H232      1.0  0.34072  0.80265  0.40289  1.0000
  C   C286      1.0  0.34280  0.81253  0.37547  1.0000
  Fe  Fe17      1.0  0.10911  0.69162  0.87387  1.0000
  S   S36       1.0  0.14292  0.64889  0.90154  1.0000
  S   S37       1.0  0.05017  0.69547  0.88573  1.0000
  Fe  Fe18      1.0  0.16969  0.71947  0.82762  1.0000
  S   S38       1.0  0.20803  0.67962  0.85142  1.0000
  S   S39       1.0  0.17981  0.76314  0.78462  1.0000
  Fe  Fe19      1.0  0.16301  0.63724  0.84618  1.0000
  S   S40       1.0  0.17545  0.57799  0.83058  1.0000
  Fe  Fe20      1.0  0.18578  0.69363  0.90498  1.0000
  S   S41       1.0  0.22438  0.71126  0.95096  1.0000
  S   S42       1.0  0.12613  0.67630  0.81850  1.0000
  S   S43       1.0  0.15049  0.73714  0.88117  1.0000
  C   C287      1.0  0.24468  0.76001  0.55815  1.0000
  S   S44       1.0  0.31442  0.86362  0.64744  1.0000
  C   C288      1.0  0.01565  0.80156  0.87936  1.0000
  C   C289      1.0  0.06337  0.80282  0.77071  1.0000
  C   C290      1.0  0.34001  0.70464  0.54910  1.0000
  C   C291      1.0  0.22175  0.76644  0.76509  1.0000
  C   C292      1.0  0.22847  0.79334  0.73850  1.0000
  C   C293      1.0  0.26226  0.79770  0.72381  1.0000
  C   C294      1.0  0.28933  0.77483  0.73546  1.0000
  C   C295      1.0  0.28260  0.74818  0.76210  1.0000
  C   C296      1.0  0.24893  0.74376  0.77668  1.0000
  H   H233      1.0  0.20756  0.81109  0.72957  1.0000
  H   H234      1.0  0.26732  0.81880  0.70371  1.0000
  H   H235      1.0  0.30367  0.73116  0.77181  1.0000
  H   H236      1.0  0.24420  0.72309  0.79721  1.0000
  C   C297      1.0  0.23812  0.68878  0.99154  1.0000
  C   C298      1.0  0.28397  0.64398  0.58735  1.0000
  C   C299      1.0  0.26646  0.90977  0.71463  1.0000
  C   C300      1.0  0.28194  0.63221  0.76380  1.0000
  C   C301      1.0  0.14319  0.54656  0.72900  1.0000
  S   S45       1.0  0.33188  0.77793  0.71735  1.0000
  H   H237      1.0  0.20309  0.64096  0.98594  1.0000
  H   H238      1.0  0.23811  0.59470  0.77749  1.0000
  C   C302      1.0  0.02369  0.73526  0.88564  1.0000
  H   H239      1.0  0.32687  0.67095  0.76056  1.0000
  C   C303      1.0  0.03775  0.77094  0.87919  1.0000
  H   H240      1.0  0.06563  0.77493  0.87408  1.0000
  C   C304      1.0  0.26051  0.61153  0.78745  1.0000
  C   C305      1.0  0.16620  0.55255  0.79049  1.0000
  C   C306      1.0  0.15007  0.56815  0.76001  1.0000
  H   H241      1.0  0.15058  0.71630  0.99655  1.0000
  H   H242      1.0  0.14273  0.59674  0.76040  1.0000
  C   C307      1.0  0.25071  0.79440  0.85844  1.0000
  C   C308      1.0  0.26285  0.79410  0.89414  1.0000
  C   C309      1.0  0.28514  0.82290  0.90702  1.0000
  C   C310      1.0  0.29482  0.85234  0.88431  1.0000
  C   C311      1.0  0.28176  0.85346  0.84868  1.0000
  C   C312      1.0  0.26064  0.82359  0.83559  1.0000
  P   P10       1.0  0.29587  0.89092  0.81943  1.0000
  C   C313      1.0  0.27029  0.89340  0.77797  1.0000
  C   C314      1.0  0.28664  0.90505  0.74619  1.0000
  H   H243      1.0  0.19255  0.53925  0.65448  1.0000
  H   H244      1.0  0.05790  0.71779  0.80996  1.0000
  C   C315      1.0  0.23339  0.88754  0.77786  1.0000
  H   H245      1.0  0.25611  0.86414  0.56047  1.0000
  C   C316      1.0  0.17573  0.51536  0.78934  1.0000
  H   H246      1.0  0.31259  0.87418  0.89448  1.0000
  C   C317      1.0  0.28873  0.74717  0.60450  1.0000
  C   C318      1.0  0.29086  0.93553  0.83961  1.0000
  H   H247      1.0  0.10213  0.76707  0.79442  1.0000
  H   H248      1.0  0.23373  0.77179  0.84841  1.0000
  H   H249      1.0  0.25529  0.77127  0.91166  1.0000
  H   H250      1.0  0.25203  0.82246  0.80777  1.0000
  H   H251      1.0  0.19425  0.76865  0.99658  1.0000
  H   H252      1.0  0.22000  0.87995  0.80232  1.0000
  C   C319      1.0  0.22751  0.57977  0.68047  1.0000
  C   C320      1.0  0.34121  0.88201  0.80991  1.0000
  H   H253      1.0  0.21447  0.90582  0.68978  1.0000
  C   C321      1.0  0.31008  0.65444  0.77794  1.0000
  H   H254      1.0  0.34312  0.64558  0.54156  1.0000
  H   H255      1.0  0.33755  0.67418  0.82586  1.0000
  H   H256      1.0  0.27925  0.91949  0.69044  1.0000
  H   H257      1.0  0.02687  0.82896  0.87437  1.0000
  H   H258      1.0  0.08274  0.82452  0.76443  1.0000
  H   H259      1.0  0.30839  0.65322  0.60078  1.0000
  C   C322      1.0  0.30534  0.96733  0.82295  1.0000
  C   C323      1.0  0.21340  0.89147  0.74603  1.0000
  C   C324      1.0  0.23366  0.60066  0.58401  1.0000
  C   C325      1.0  0.07438  0.77043  0.78755  1.0000
  C   C326      1.0  0.25615  0.86210  0.53153  1.0000
  C   C327      1.0  0.21917  0.62101  0.55557  1.0000
  H   H260      1.0  0.19378  0.61237  0.54365  1.0000
  H   H261      1.0  0.28538  0.77793  0.65330  1.0000
  H   H262      1.0  0.13061  0.55886  0.70564  1.0000
  C   C328      1.0  0.26614  0.97433  0.88491  1.0000
  H   H263      1.0  0.18505  0.88604  0.74599  1.0000
  C   C329      1.0  0.22994  0.90250  0.71439  1.0000
  H   H264      1.0  0.25000  0.59771  0.84258  1.0000
  C   C330      1.0  0.29485  0.63572  0.83835  1.0000
  H   H265      1.0  0.29587  0.55895  0.73774  1.0000
  C   C331      1.0  0.24491  0.79273  0.61465  1.0000
  H   H266      1.0  0.29917  0.63772  0.86716  1.0000
  P   P11       1.0  0.27171  0.63190  0.71609  1.0000
  C   C332      1.0  0.23667  0.66342  0.70626  1.0000
  C   C333      1.0  0.31086  0.64535  0.69144  1.0000
  H   H267      1.0  0.23392  0.81318  0.63182  1.0000
  H   H268      1.0  0.21966  0.57611  0.59390  1.0000
  H   H269      1.0  0.25738  0.91562  0.88258  1.0000
  C   C334      1.0  0.23521  0.68254  0.67326  1.0000
  C   C335      1.0  0.20805  0.70685  0.66575  1.0000
  C   C336      1.0  0.18176  0.71166  0.69075  1.0000
  C   C337      1.0  0.18233  0.69177  0.72300  1.0000
  C   C338      1.0  0.20968  0.66785  0.73086  1.0000
  C   C339      1.0  0.25672  0.58564  0.70403  1.0000
  C   C340      1.0  0.04950  0.74255  0.79613  1.0000
  C   C341      1.0  0.02748  0.80727  0.76238  1.0000
  C   C342      1.0  0.28686  0.85193  0.51465  1.0000
  H   H270      1.0  0.32496  0.58964  0.67824  1.0000
  C   C343      1.0  0.30081  0.00222  0.83758  1.0000
  H   H271      1.0  0.30558  0.70385  0.70028  1.0000
  C   C344      1.0  0.27374  0.55504  0.71896  1.0000
  H   H272      1.0  0.25498  0.67888  0.65332  1.0000
  H   H273      1.0  0.20746  0.72210  0.64063  1.0000
  H   H274      1.0  0.16101  0.73093  0.68536  1.0000
  H   H275      1.0  0.16198  0.69558  0.74244  1.0000
  H   H276      1.0  0.20954  0.65315  0.75625  1.0000
  C   C345      1.0  0.26597  0.61224  0.59998  1.0000
  H   H277      1.0  0.21326  0.60274  0.66930  1.0000
  H   H278      1.0  0.27691  0.59667  0.62231  1.0000
  H   H279      1.0  0.32718  0.83421  0.77732  1.0000
  C   C346      1.0  0.26713  0.61315  0.82450  1.0000
  H   H280      1.0  0.31122  0.73219  0.61444  1.0000
  C   C347      1.0  0.31637  0.65627  0.81507  1.0000
  C   C348      1.0  0.27457  0.74089  0.56981  1.0000
  H   H281      1.0  0.31485  0.91132  0.74573  1.0000
  H   H282      1.0  0.20771  0.80156  0.57092  1.0000
  C   C349      1.0  0.23722  0.65262  0.54270  1.0000
  P   P12       1.0  0.29259  0.70563  0.54248  1.0000
  C   C350      1.0  0.27044  0.93937  0.87023  1.0000
  C   C351      1.0  0.27400  0.77302  0.62674  1.0000
  C   C352      1.0  0.23014  0.78609  0.58042  1.0000
  C   C353      1.0  0.21583  0.54383  0.67171  1.0000
  C   C354      1.0  0.22343  0.65464  0.00249  1.0000
  H   H283      1.0  0.20143  0.87628  0.52428  1.0000
  H   H284      1.0  0.22521  0.66852  0.52117  1.0000
  C   C355      1.0  0.27020  0.66381  0.55792  1.0000
  C   C356      1.0  0.23289  0.51355  0.68662  1.0000
  H   H285      1.0  0.32001  0.96518  0.79852  1.0000
  H   H286      1.0  0.23260  0.75504  0.53191  1.0000
  H   H287      1.0  0.29503  0.82216  0.93456  1.0000
  S   S46       1.0  0.32568  0.83942  0.53919  1.0000
  H   H288      1.0  0.27585  0.73269  0.00564  1.0000
  C   C357      1.0  0.32097  0.68290  0.68808  1.0000
  H   H289      1.0  0.25064  0.97714  0.90870  1.0000
  Fe  Fe21      1.0  0.34367  0.84890  0.59784  1.0000
  H   H290      1.0  0.01934  0.83257  0.74942  1.0000
  C   C358      1.0  0.26179  0.51912  0.71029  1.0000
  C   C359      1.0  0.33175  0.61879  0.67586  1.0000
  C   C360      1.0  0.28153  0.00572  0.86873  1.0000
  C   C361      1.0  0.26440  0.70621  0.01371  1.0000
  H   H291      1.0  0.07761  0.90476  0.01132  1.0000
  C   C362      1.0  0.01360  0.74698  0.78815  1.0000
  H   H292      1.0  0.14034  0.92722  0.01108  1.0000
  Fe  Fe22      1.0  0.61323  0.18950  0.40230  1.0000
  C   C363      1.0  0.67522  0.16725  0.24783  1.0000
  S   S47       1.0  0.55957  0.20061  0.42603  1.0000
  H   H293      1.0  0.43247  0.13822  0.34693  1.0000
  H   H294      1.0  0.50581  0.21850  0.13766  1.0000
  S   S48       1.0  0.64728  0.14767  0.43041  1.0000
  S   S49       1.0  0.62532  0.16948  0.34696  1.0000
  H   H295      1.0  0.56883  0.25852  0.37161  1.0000
  Fe  Fe23      1.0  0.40339  0.33973  0.38197  1.0000
  S   S50       1.0  0.38642  0.39061  0.41039  1.0000
  S   S51       1.0  0.46137  0.33011  0.37116  1.0000
  C   C364      1.0  0.42920  0.25500  0.16448  1.0000
  H   H296      1.0  0.63412  0.19697  0.27243  1.0000
  H   H297      1.0  0.35143  0.02925  0.48238  1.0000
  H   H298      1.0  0.35778  0.22210  0.34992  1.0000
  S   S52       1.0  0.36723  0.34894  0.33371  1.0000
  C   C365      1.0  0.41265  0.23700  0.34292  1.0000
  C   C366      1.0  0.37106  0.46506  0.28268  1.0000
  C   C367      1.0  0.62816  0.33031  0.32999  1.0000
  H   H299      1.0  0.38218  0.43848  0.28834  1.0000
  H   H300      1.0  0.42645  0.18636  0.45133  1.0000
  H   H301      1.0  0.48800  0.41910  0.43518  1.0000
  H   H302      1.0  0.46147  0.17086  0.39859  1.0000
  C   C368      1.0  0.37756  0.16221  0.42948  1.0000
  S   S53       1.0  0.65626  0.23349  0.40270  1.0000
  C   C369      1.0  0.53244  0.23665  0.41053  1.0000
  C   C370      1.0  0.49914  0.24067  0.42571  1.0000
  C   C371      1.0  0.47680  0.26893  0.41391  1.0000
  C   C372      1.0  0.48785  0.29373  0.38711  1.0000
  C   C373      1.0  0.52107  0.28959  0.37199  1.0000
  C   C374      1.0  0.54333  0.26131  0.38361  1.0000
  H   H303      1.0  0.49062  0.22179  0.44667  1.0000
  H   H304      1.0  0.45128  0.27182  0.42577  1.0000
  H   H305      1.0  0.52934  0.30809  0.35068  1.0000
  C   C375      1.0  0.65309  0.32481  0.35759  1.0000
  H   H306      1.0  0.67305  0.37323  0.27170  1.0000
  H   H307      1.0  0.41888  0.23816  0.37141  1.0000
  C   C376      1.0  0.63755  0.04169  0.25859  1.0000
  H   H308      1.0  0.63701  0.09085  0.29140  1.0000
  H   H309      1.0  0.66529  0.32897  0.41384  1.0000
  H   H310      1.0  0.66069  0.10107  0.18394  1.0000
  H   H311      1.0  0.59915  0.11559  0.19489  1.0000
  Fe  Fe24      1.0  0.66320  0.13132  0.37459  1.0000
  H   H312      1.0  0.57652  0.35003  0.31613  1.0000
  H   H313      1.0  0.37090  0.48236  0.16521  1.0000
  C   C377      1.0  0.36085  0.14386  0.40024  1.0000
  C   C378      1.0  0.35094  0.20451  0.21032  1.0000
  C   C379      1.0  0.41365  0.17205  0.42880  1.0000
  C   C380      1.0  0.34490  0.29173  0.18461  1.0000
  C   C381      1.0  0.65861  0.26961  0.51282  1.0000
  C   C382      1.0  0.64804  0.33441  0.50212  1.0000
  H   H314      1.0  0.45099  0.25418  0.26306  1.0000
  H   H315      1.0  0.38716  0.16520  0.18966  1.0000
  C   C383      1.0  0.64494  0.06251  0.29000  1.0000
  P   P13       1.0  0.38458  0.23950  0.22187  1.0000
  C   C384      1.0  0.43058  0.24565  0.28150  1.0000
  C   C385      1.0  0.43888  0.24551  0.31823  1.0000
  C   C386      1.0  0.43343  0.16330  0.39910  1.0000
  C   C387      1.0  0.61264  0.15732  0.23431  1.0000
  C   C388      1.0  0.64007  0.17591  0.25328  1.0000
  C   C389      1.0  0.61151  0.42430  0.48750  1.0000
  H   H316      1.0  0.45443  0.36646  0.46224  1.0000
  C   C390      1.0  0.47695  0.20075  0.18422  1.0000
  C   C391      1.0  0.48280  0.22260  0.15371  1.0000
  C   C392      1.0  0.45890  0.24964  0.14381  1.0000
  C   C393      1.0  0.36984  0.22760  0.29410  1.0000
  H   H317      1.0  0.39668  0.31068  0.25916  1.0000
  C   C394      1.0  0.44728  0.20602  0.20493  1.0000
  C   C395      1.0  0.36805  0.28517  0.21389  1.0000
  H   H318      1.0  0.49540  0.17966  0.19179  1.0000
  C   C396      1.0  0.65553  0.12219  0.20328  1.0000
  C   C397      1.0  0.37885  0.31471  0.23638  1.0000
  C   C398      1.0  0.59606  0.34611  0.33749  1.0000
  H   H319      1.0  0.44297  0.18864  0.22835  1.0000
  H   H320      1.0  0.62379  0.05417  0.23608  1.0000
  H   H321      1.0  0.56317  0.36705  0.37792  1.0000
  H   H322      1.0  0.41100  0.27598  0.15618  1.0000
  C   C399      1.0  0.35425  0.43813  0.12950  1.0000
  C   C400      1.0  0.38094  0.13514  0.37048  1.0000
  H   H323      1.0  0.58544  0.16360  0.23920  1.0000
  H   H324      1.0  0.63356  0.32158  0.30297  1.0000
  H   H325      1.0  0.46547  0.25310  0.32759  1.0000
  C   C401      1.0  0.62752  0.45831  0.49732  1.0000
  C   C402      1.0  0.42335  0.23348  0.19545  1.0000
  C   C403      1.0  0.39603  0.23631  0.26909  1.0000
  C   C404      1.0  0.38258  0.48638  0.25303  1.0000
  H   H326      1.0  0.46337  0.26644  0.12004  1.0000
  C   C405      1.0  0.62338  0.32500  0.47451  1.0000
  C   C406      1.0  0.61622  0.28755  0.46671  1.0000
  P   P14       1.0  0.60367  0.36023  0.44666  1.0000
  C   C407      1.0  0.55642  0.36201  0.45250  1.0000
  C   C408      1.0  0.62376  0.40483  0.45811  1.0000
  C   C409      1.0  0.41707  0.14488  0.36997  1.0000
  C   C410      1.0  0.63349  0.26002  0.48609  1.0000
  C   C411      1.0  0.53706  0.33221  0.46769  1.0000
  C   C412      1.0  0.50056  0.33422  0.47189  1.0000
  C   C413      1.0  0.48295  0.36556  0.46031  1.0000
  C   C414      1.0  0.50192  0.39523  0.44499  1.0000
  C   C415      1.0  0.53851  0.39360  0.44127  1.0000
  C   C416      1.0  0.61328  0.34952  0.40073  1.0000
  C   C417      1.0  0.64575  0.33422  0.39281  1.0000
  H   H327      1.0  0.60235  0.16832  0.51189  1.0000
  S   S54       1.0  0.36499  0.30189  0.41068  1.0000
  H   H328      1.0  0.55267  0.41666  0.42883  1.0000
  C   C418      1.0  0.58860  0.35575  0.37272  1.0000
  H   H329      1.0  0.40254  0.47593  0.23594  1.0000
  H   H330      1.0  0.59808  0.27952  0.44485  1.0000
  C   C419      1.0  0.37823  0.22792  0.33083  1.0000
  H   H331      1.0  0.54960  0.30704  0.47562  1.0000
  H   H332      1.0  0.58967  0.41316  0.50291  1.0000
  H   H333      1.0  0.36275  0.16859  0.45292  1.0000
  C   C420      1.0  0.62038  0.13045  0.20932  1.0000
  H   H334      1.0  0.48562  0.31086  0.48284  1.0000
  C   C421      1.0  0.66230  0.04645  0.31956  1.0000
  H   H335      1.0  0.36893  0.12079  0.34762  1.0000
  C   C422      1.0  0.34959  0.46302  0.15726  1.0000
  C   C423      1.0  0.36000  0.17086  0.19507  1.0000
  H   H336      1.0  0.62844  0.23121  0.47922  1.0000
  Fe  Fe25      1.0  0.34748  0.39714  0.36427  1.0000
  H   H337      1.0  0.37482  0.37275  0.24733  1.0000
  Fe  Fe26      1.0  0.67141  0.21074  0.34985  1.0000
  C   C424      1.0  0.34574  0.47864  0.30536  1.0000
  H   H338      1.0  0.36079  0.08827  0.45010  1.0000
  H   H339      1.0  0.66273  0.40532  0.41637  1.0000
  C   C425      1.0  0.36661  0.35014  0.22971  1.0000
  C   C426      1.0  0.65246  0.41976  0.43891  1.0000
  S   S55       1.0  0.67200  0.07095  0.36024  1.0000
  C   C427      1.0  0.65594  0.47305  0.47799  1.0000
  H   H340      1.0  0.65451  0.36296  0.50857  1.0000
  H   H341      1.0  0.37926  0.43813  0.11599  1.0000
  C   C428      1.0  0.66841  0.45377  0.44884  1.0000
  H   H342      1.0  0.66835  0.49942  0.48561  1.0000
  Fe  Fe27      1.0  0.34465  0.35335  0.43547  1.0000
  C   C429      1.0  0.58248  0.20225  0.83429  1.0000
  C   C430      1.0  0.60398  0.24569  0.73113  1.0000
  C   C431      1.0  0.58629  0.44906  0.65410  1.0000
  C   C432      1.0  0.47180  0.08198  0.77356  1.0000
  H   H343      1.0  0.45142  0.35683  0.92299  1.0000
  Fe  Fe28      1.0  0.39579  0.18487  0.83168  1.0000
  S   S56       1.0  0.43962  0.22188  0.80815  1.0000
  C   C433      1.0  0.34597  0.36640  0.62939  1.0000
  S   S57       1.0  0.39974  0.14150  0.87478  1.0000
  Fe  Fe29      1.0  0.60941  0.33672  0.87390  1.0000
  S   S58       1.0  0.62798  0.39514  0.88676  1.0000
  S   S59       1.0  0.56258  0.30544  0.89838  1.0000
  C   C434      1.0  0.59379  0.13613  0.79880  1.0000
  C   C435      1.0  0.46202  0.15338  0.74710  1.0000
  S   S60       1.0  0.61458  0.34500  0.81478  1.0000
  S   S61       1.0  0.61404  0.45218  0.79902  1.0000
  C   C436      1.0  0.48837  0.36751  0.85675  1.0000
  C   C437      1.0  0.38051  0.38806  0.86416  1.0000
  H   H344      1.0  0.54512  0.37492  0.85995  1.0000
  C   C438      1.0  0.65024  0.44912  0.65154  1.0000
  H   H345      1.0  0.47465  0.05420  0.78400  1.0000
  H   H346      1.0  0.55157  0.40634  0.77376  1.0000
  C   C439      1.0  0.47540  0.24223  0.83334  1.0000
  C   C440      1.0  0.50034  0.26507  0.81566  1.0000
  C   C441      1.0  0.52799  0.28356  0.83507  1.0000
  C   C442      1.0  0.53067  0.27965  0.87244  1.0000
  C   C443      1.0  0.50634  0.25593  0.88991  1.0000
  C   C444      1.0  0.47912  0.23688  0.87039  1.0000
  H   H347      1.0  0.49789  0.26893  0.78691  1.0000
  H   H348      1.0  0.54664  0.30157  0.82133  1.0000
  H   H349      1.0  0.50831  0.25259  0.91877  1.0000
  H   H350      1.0  0.46063  0.21858  0.88411  1.0000
  C   C445      1.0  0.36244  0.40784  0.83718  1.0000
  C   C446      1.0  0.55172  0.04835  0.77265  1.0000
  C   C447      1.0  0.51084  0.09952  0.86301  1.0000
  C   C448      1.0  0.60350  0.29811  0.58913  1.0000
  C   C449      1.0  0.58327  0.31454  0.56192  1.0000
  C   C450      1.0  0.57339  0.35115  0.56528  1.0000
  C   C451      1.0  0.58373  0.37140  0.59591  1.0000
  C   C452      1.0  0.60420  0.35513  0.62337  1.0000
  C   C453      1.0  0.61368  0.31818  0.61983  1.0000
  P   P15       1.0  0.61631  0.38024  0.66398  1.0000
  C   C454      1.0  0.58453  0.36942  0.69830  1.0000
  H   H351      1.0  0.38157  0.29679  0.71453  1.0000
  H   H352      1.0  0.39322  0.23290  0.90686  1.0000
  P   P16       1.0  0.41486  0.35705  0.85257  1.0000
  C   C455      1.0  0.47645  0.08469  0.86772  1.0000
  H   H353      1.0  0.34732  0.33378  0.81640  1.0000
  H   H354      1.0  0.56016  0.04449  0.86401  1.0000
  C   C456      1.0  0.57903  0.39500  0.72554  1.0000
  C   C457      1.0  0.55519  0.38653  0.75266  1.0000
  C   C458      1.0  0.53702  0.35229  0.75323  1.0000
  C   C459      1.0  0.54253  0.32647  0.72647  1.0000
  C   C460      1.0  0.56618  0.33496  0.69905  1.0000
  Fe  Fe30      1.0  0.66973  0.32585  0.82445  1.0000
  C   C461      1.0  0.65152  0.18761  0.60358  1.0000
  C   C462      1.0  0.42316  0.31249  0.75260  1.0000
  C   C463      1.0  0.38273  0.21361  0.72173  1.0000
  H   H355      1.0  0.39978  0.20393  0.74331  1.0000
  S   S62       1.0  0.34471  0.20584  0.85164  1.0000
  H   H356      1.0  0.61120  0.26975  0.58639  1.0000
  C   C464      1.0  0.36071  0.31478  0.76434  1.0000
  H   H357      1.0  0.55744  0.36373  0.54424  1.0000
  H   H358      1.0  0.57557  0.39959  0.59804  1.0000
  H   H359      1.0  0.62883  0.30481  0.64089  1.0000
  H   H360      1.0  0.54514  0.43996  0.83862  1.0000
  H   H361      1.0  0.63363  0.22039  0.81557  1.0000
  C   C465      1.0  0.39538  0.21790  0.68697  1.0000
  H   H362      1.0  0.36926  0.40535  0.80927  1.0000
  C   C466      1.0  0.59681  0.18192  0.56774  1.0000
  H   H363      1.0  0.53433  0.11305  0.95117  1.0000
  C   C467      1.0  0.64652  0.21731  0.67795  1.0000
  H   H364      1.0  0.52876  0.29972  0.72724  1.0000
  H   H365      1.0  0.57036  0.31440  0.67889  1.0000
  C   C468      1.0  0.40566  0.26014  0.91010  1.0000
  C   C469      1.0  0.61979  0.50665  0.64569  1.0000
  Fe  Fe31      1.0  0.36944  0.10371  0.83594  1.0000
  C   C470      1.0  0.53185  0.10912  0.89344  1.0000
  H   H366      1.0  0.45681  0.30933  0.97039  1.0000
  H   H367      1.0  0.34892  0.17140  0.54062  1.0000
  C   C471      1.0  0.43129  0.32677  0.78671  1.0000
  H   H368      1.0  0.61397  0.16725  0.68357  1.0000
  H   H369      1.0  0.43179  0.43381  0.82923  1.0000
  C   C472      1.0  0.65277  0.17285  0.53997  1.0000
  C   C473      1.0  0.61596  0.17378  0.53744  1.0000
  H   H370      1.0  0.59365  0.42133  0.72640  1.0000
  H   H371      1.0  0.48832  0.46913  0.82319  1.0000
  C   C474      1.0  0.45600  0.38380  0.84861  1.0000
  C   C475      1.0  0.48372  0.09088  0.93218  1.0000
  H   H372      1.0  0.56316  0.50255  0.64914  1.0000
  C   C476      1.0  0.38790  0.30724  0.74116  1.0000
  C   C477      1.0  0.46301  0.08039  0.90214  1.0000
  H   H373      1.0  0.35018  0.30343  0.93221  1.0000
  C   C478      1.0  0.67050  0.17994  0.57276  1.0000
  C   C479      1.0  0.63170  0.26740  0.71719  1.0000
  C   C480      1.0  0.61777  0.42957  0.65547  1.0000
  H   H374      1.0  0.55884  0.11956  0.89072  1.0000
  C   C481      1.0  0.58736  0.48746  0.64931  1.0000
  S   S63       1.0  0.66352  0.31437  0.88307  1.0000
  C   C482      1.0  0.44490  0.08840  0.74807  1.0000
  H   H375      1.0  0.41858  0.12907  0.71571  1.0000
  H   H376      1.0  0.57839  0.22775  0.84839  1.0000
  C   C483      1.0  0.63511  0.48539  0.77036  1.0000
  P   P17       1.0  0.52914  0.10271  0.81870  1.0000
  C   C484      1.0  0.55666  0.17358  0.83477  1.0000
  H   H377      1.0  0.63757  0.29467  0.72804  1.0000
  H   H378      1.0  0.56823  0.18271  0.56561  1.0000
  C   C485      1.0  0.49413  0.11131  0.78601  1.0000
  H   H379      1.0  0.45969  0.07647  0.84502  1.0000
  C   C486      1.0  0.56171  0.03655  0.83617  1.0000
  C   C487      1.0  0.48824  0.44073  0.83260  1.0000
  C   C488      1.0  0.56224  0.14011  0.81727  1.0000
  H   H380      1.0  0.44422  0.30534  0.73513  1.0000
  C   C489      1.0  0.66789  0.36629  0.71689  1.0000
  H   H381      1.0  0.42708  0.24748  0.96262  1.0000
  C   C490      1.0  0.37147  0.39271  0.90015  1.0000
  H   H382      1.0  0.47304  0.08789  0.95880  1.0000
  C   C491      1.0  0.45620  0.42057  0.83619  1.0000
  Fe  Fe32      1.0  0.63732  0.40191  0.82747  1.0000
  C   C492      1.0  0.61376  0.19803  0.81596  1.0000
  H   H383      1.0  0.59885  0.19541  0.62341  1.0000
  H   H384      1.0  0.66756  0.22207  0.92364  1.0000
  H   H385      1.0  0.53239  0.17758  0.84888  1.0000
  H   H386      1.0  0.59887  0.11077  0.78503  1.0000
  H   H387      1.0  0.42742  0.06574  0.73909  1.0000
  C   C493      1.0  0.36876  0.32854  0.79869  1.0000
  C   C494      1.0  0.65316  0.25325  0.69099  1.0000
  H   H388      1.0  0.38869  0.27937  0.85806  1.0000
  C   C495      1.0  0.48880  0.14714  0.77275  1.0000
  H   H389      1.0  0.51917  0.34566  0.77480  1.0000
  C   C496      1.0  0.52030  0.38770  0.85320  1.0000
  H   H390      1.0  0.64379  0.16191  0.78407  1.0000
  H   H391      1.0  0.54235  0.06569  0.75082  1.0000
  H   H392      1.0  0.48899  0.33917  0.86597  1.0000
  S   S64       1.0  0.38853  0.04573  0.82527  1.0000
  H   H393      1.0  0.57635  0.19269  0.73003  1.0000
  H   H394      1.0  0.38368  0.23513  0.63282  1.0000
  H   H395      1.0  0.67627  0.50268  0.64467  1.0000
  H   H396      1.0  0.45870  0.33048  0.79519  1.0000
  C   C497      1.0  0.61872  0.19551  0.69231  1.0000
  S   S65       1.0  0.36866  0.14606  0.79202  1.0000
  H   H397      1.0  0.50464  0.17058  0.78252  1.0000
  H   H398      1.0  0.43627  0.06920  0.90535  1.0000
  H   H399      1.0  0.42240  0.21134  0.68155  1.0000
  C   C498      1.0  0.59740  0.20977  0.71862  1.0000
  C   C499      1.0  0.54881  0.05938  0.80850  1.0000
  H   H400      1.0  0.45788  0.18124  0.73763  1.0000
  C   C500      1.0  0.37326  0.23106  0.65939  1.0000
  H   H401      1.0  0.58835  0.25640  0.75243  1.0000
  C   C501      1.0  0.43998  0.12408  0.73483  1.0000
  H   H402      1.0  0.35926  0.31576  0.60449  1.0000
  H   H403      1.0  0.56097  0.43471  0.65748  1.0000
  C   C502      1.0  0.61941  0.16503  0.79818  1.0000
  C   C503      1.0  0.52027  0.42434  0.84125  1.0000
  C   C504      1.0  0.40415  0.33608  0.80956  1.0000
  H   H404      1.0  0.38506  0.37830  0.92162  1.0000
  C   C505      1.0  0.61443  0.18885  0.60066  1.0000
  C   C506      1.0  0.40316  0.28662  0.88260  1.0000
  C   C507      1.0  0.51818  0.10515  0.92784  1.0000
  C   C508      1.0  0.43850  0.32992  0.91901  1.0000
  C   C509      1.0  0.41935  0.32187  0.88700  1.0000
  C   C510      1.0  0.42481  0.26835  0.94173  1.0000
  C   C511      1.0  0.44139  0.30318  0.94611  1.0000
  C   C512      1.0  0.34812  0.22262  0.72901  1.0000
  C   C513      1.0  0.65956  0.36698  0.67995  1.0000
  H   H405      1.0  0.64885  0.37389  0.73646  1.0000
  H   H406      1.0  0.36648  0.38255  0.61606  1.0000
  H   H407      1.0  0.57532  0.29884  0.53822  1.0000
  C   C514      1.0  0.66946  0.48136  0.75836  1.0000
  C   C515      1.0  0.65114  0.48746  0.64660  1.0000
  H   H408      1.0  0.67504  0.43523  0.65307  1.0000
  H   H409      1.0  0.34638  0.06507  0.76147  1.0000
  C   C516      1.0  0.37815  0.02233  0.78438  1.0000
  H   H410      1.0  0.67335  0.24822  0.52630  1.0000
  C   C517      1.0  0.35679  0.03800  0.75757  1.0000
  Fe  Fe33      1.0  0.34611  0.15947  0.89222  1.0000
  P   P18       1.0  0.67522  0.19766  0.64560  1.0000
  C   C518      1.0  0.66565  0.30676  0.52107  1.0000
  C   C519      1.0  0.34880  0.01864  0.72555  1.0000
  H   H411      1.0  0.67539  0.27017  0.68186  1.0000
  C   C520      1.0  0.56676  0.01475  0.76469  1.0000
  H   H412      1.0  0.61791  0.47331  0.51994  1.0000
  H   H413      1.0  0.66765  0.16694  0.51633  1.0000
  H   H414      1.0  0.66460  0.47013  0.86353  1.0000
  C   C521      1.0  0.67214  0.49881  0.85837  1.0000
  Fe  Fe34      1.0  0.36619  0.60535  0.19427  1.0000
  S   S66       1.0  0.38632  0.65754  0.22156  1.0000
  S   S67       1.0  0.38509  0.54780  0.20886  1.0000
  Fe  Fe35      1.0  0.66904  0.86462  0.14625  1.0000
  C   C522      1.0  0.45527  0.70145  0.31043  1.0000
  Fe  Fe36      1.0  0.39006  0.68237  0.16623  1.0000
  S   S68       1.0  0.43626  0.71766  0.14412  1.0000
  S   S69       1.0  0.37437  0.62864  0.13863  1.0000
  C   C523      1.0  0.62396  0.78884  0.34581  1.0000
  S   S70       1.0  0.64179  0.87374  0.24562  1.0000
  H   H415      1.0  0.53170  0.85444  0.27283  1.0000
  C   C524      1.0  0.65788  0.64049  0.12768  1.0000
  H   H416      1.0  0.56777  0.75225  0.28162  1.0000
  Fe  Fe37      1.0  0.61400  0.83954  0.20230  1.0000
  S   S71       1.0  0.56692  0.80401  0.22289  1.0000
  H   H417      1.0  0.66701  0.68312  0.43222  1.0000
  S   S72       1.0  0.61642  0.88659  0.16236  1.0000
  C   C525      1.0  0.47200  0.74198  0.16673  1.0000
  C   C526      1.0  0.47636  0.74155  0.20413  1.0000
  C   C527      1.0  0.50568  0.76046  0.22066  1.0000
  C   C528      1.0  0.53064  0.78064  0.20023  1.0000
  C   C529      1.0  0.52599  0.78155  0.16290  1.0000
  C   C530      1.0  0.49695  0.76219  0.14630  1.0000
  H   H418      1.0  0.45739  0.72626  0.22024  1.0000
  H   H419      1.0  0.50906  0.75946  0.24949  1.0000
  H   H420      1.0  0.54477  0.79716  0.14684  1.0000
  H   H421      1.0  0.49374  0.76293  0.11737  1.0000
  H   H422      1.0  0.47456  0.75740  0.30388  1.0000
  H   H423      1.0  0.63903  0.54415  0.17090  1.0000
  H   H424      1.0  0.38918  0.75431  0.23154  1.0000
  C   C531      1.0  0.63470  0.63715  0.15648  1.0000
  S   S73       1.0  0.66463  0.81554  0.18410  1.0000
  C   C532      1.0  0.64445  0.57109  0.15896  1.0000
  H   H425      1.0  0.61038  0.59888  0.19428  1.0000
  H   H426      1.0  0.61290  0.79327  0.07010  1.0000
  C   C533      1.0  0.58870  0.76408  0.47090  1.0000
  C   C534      1.0  0.48622  0.86495  0.34951  1.0000
  S   S74       1.0  0.63724  0.97977  0.21587  1.0000
  C   C535      1.0  0.58191  0.75014  0.09638  1.0000
  C   C536      1.0  0.59950  0.72054  0.31859  1.0000
  C   C537      1.0  0.42552  0.67747  0.31180  1.0000
  H   H427      1.0  0.53797  0.88394  0.33265  1.0000
  C   C538      1.0  0.34824  0.83821  0.30470  1.0000
  H   H428      1.0  0.59011  0.69414  0.30790  1.0000
  C   C539      1.0  0.37420  0.81527  0.31927  1.0000
  H   H429      1.0  0.42858  0.64803  0.31562  1.0000
  C   C540      1.0  0.61346  0.71373  0.14115  1.0000
  H   H430      1.0  0.63260  0.81557  0.35633  1.0000
  H   H431      1.0  0.59461  0.77434  0.41469  1.0000
  C   C541      1.0  0.45121  0.73935  0.30483  1.0000
  C   C542      1.0  0.60495  0.75292  0.50309  1.0000
  C   C543      1.0  0.64738  0.00468  0.25618  1.0000
  H   H432      1.0  0.36856  0.67281  0.30839  1.0000
  H   H433      1.0  0.66870  0.73016  0.14916  1.0000
  C   C544      1.0  0.41726  0.75347  0.30049  1.0000
  C   C545      1.0  0.64335  0.75544  0.43945  1.0000
  C   C546      1.0  0.58682  0.75323  0.30383  1.0000
  C   C547      1.0  0.63741  0.75610  0.36037  1.0000
  C   C548      1.0  0.40273  0.81122  0.24597  1.0000
  C   C549      1.0  0.39169  0.69140  0.30784  1.0000
  H   H434      1.0  0.56125  0.77169  0.47055  1.0000
  C   C550      1.0  0.66409  0.67075  0.23153  1.0000
  H   H435      1.0  0.67286  0.96037  0.28419  1.0000
  H   H436      1.0  0.58947  0.81264  0.30541  1.0000
  C   C551      1.0  0.51387  0.86831  0.32539  1.0000
  H   H437      1.0  0.36111  0.73945  0.29856  1.0000
  C   C552      1.0  0.45125  0.82835  0.30613  1.0000
  C   C553      1.0  0.60778  0.76543  0.43921  1.0000
  H   H438      1.0  0.40826  0.88226  0.18534  1.0000
  C   C554      1.0  0.63764  0.73040  0.22437  1.0000
  P   P19       1.0  0.61442  0.67725  0.17463  1.0000
  H   H439      1.0  0.55747  0.75673  0.08233  1.0000
  H   H440      1.0  0.63394  0.69627  0.35803  1.0000
  C   C555      1.0  0.58206  0.72173  0.12209  1.0000
  C   C556      1.0  0.47921  0.83193  0.28208  1.0000
  P   P20       1.0  0.41132  0.80223  0.29313  1.0000
  H   H441      1.0  0.43396  0.84296  0.35902  1.0000
  C   C557      1.0  0.36898  0.52143  0.24579  1.0000
  C   C558      1.0  0.39302  0.78250  0.22218  1.0000
  H   H442      1.0  0.48147  0.69065  0.31363  1.0000
  C   C559      1.0  0.65957  0.74460  0.47208  1.0000
  C   C560      1.0  0.56986  0.66457  0.18753  1.0000
  C   C561      1.0  0.55593  0.67842  0.21905  1.0000
  C   C562      1.0  0.52103  0.66924  0.22811  1.0000
  C   C563      1.0  0.49957  0.64692  0.20544  1.0000
  C   C564      1.0  0.51319  0.63318  0.17397  1.0000
  C   C565      1.0  0.54825  0.64177  0.16509  1.0000
  C   C566      1.0  0.62809  0.60214  0.17199  1.0000
  Fe  Fe38      1.0  0.64804  0.91904  0.20476  1.0000
  H   H443      1.0  0.61948  0.74860  0.21069  1.0000
  H   H444      1.0  0.48893  0.87798  0.37557  1.0000
  C   C567      1.0  0.45500  0.84503  0.33998  1.0000
  P   P21       1.0  0.66810  0.75744  0.39844  1.0000
  H   H445      1.0  0.55742  0.70684  0.12735  1.0000
  C   C568      1.0  0.59909  0.78734  0.31734  1.0000
  C   C569      1.0  0.62460  0.72192  0.34682  1.0000
  C   C570      1.0  0.51035  0.85176  0.29171  1.0000
  H   H446      1.0  0.47697  0.81955  0.25572  1.0000
  H   H447      1.0  0.57152  0.69700  0.23621  1.0000
  H   H448      1.0  0.51009  0.68064  0.25197  1.0000
  H   H449      1.0  0.47211  0.64094  0.21179  1.0000
  H   H450      1.0  0.49621  0.61651  0.15610  1.0000
  H   H451      1.0  0.55816  0.63148  0.14021  1.0000
  H   H452      1.0  0.39279  0.83083  0.14351  1.0000
  C   C571      1.0  0.38755  0.72921  0.30214  1.0000
  H   H453      1.0  0.38277  0.76746  0.16698  1.0000
  C   C572      1.0  0.64066  0.69384  0.21290  1.0000
  C   C573      1.0  0.64426  0.76278  0.10817  1.0000
  C   C574      1.0  0.61299  0.77071  0.08946  1.0000
  C   C575      1.0  0.64443  0.73484  0.13421  1.0000
  H   H454      1.0  0.39083  0.78459  0.36654  1.0000
  H   H455      1.0  0.41506  0.86994  0.25033  1.0000
  C   C576      1.0  0.40756  0.84737  0.23247  1.0000
  C   C577      1.0  0.65840  0.74398  0.25327  1.0000
  C   C578      1.0  0.40367  0.85450  0.19567  1.0000
  H   H456      1.0  0.65651  0.77255  0.26139  1.0000
  C   C579      1.0  0.64035  0.74331  0.50366  1.0000
  C   C580      1.0  0.39477  0.82564  0.17212  1.0000
  C   C581      1.0  0.38913  0.78982  0.18541  1.0000
  C   C582      1.0  0.66504  0.98875  0.28558  1.0000
  H   H457      1.0  0.66353  0.66695  0.11504  1.0000
  C   C583      1.0  0.66767  0.57474  0.13049  1.0000
  H   H458      1.0  0.66695  0.64242  0.22358  1.0000
  C   C584      1.0  0.37120  0.80245  0.35481  1.0000
  C   C585      1.0  0.67436  0.60942  0.11489  1.0000
  H   H459      1.0  0.66827  0.77901  0.10307  1.0000
  H   H460      1.0  0.34931  0.84802  0.27725  1.0000
  C   C586      1.0  0.67240  0.00951  0.31701  1.0000
  C   C587      1.0  0.61633  0.51635  0.75871  1.0000
  C   C588      1.0  0.61351  0.68549  0.78221  1.0000
  Fe  Fe39      1.0  0.60793  0.67408  0.63870  1.0000
  S   S75       1.0  0.64632  0.72086  0.62769  1.0000
  S   S76       1.0  0.54823  0.67843  0.62945  1.0000
  C   C589      1.0  0.61376  0.83720  0.78163  1.0000
  C   C590      1.0  0.41142  0.86500  0.79656  1.0000
  S   S77       1.0  0.64191  0.63175  0.61316  1.0000
  S   S78       1.0  0.62948  0.66348  0.69458  1.0000
  Fe  Fe40      1.0  0.41499  0.84407  0.63938  1.0000
  S   S79       1.0  0.38860  0.89015  0.60906  1.0000
  S   S80       1.0  0.47388  0.83403  0.63494  1.0000
  H   H461      1.0  0.46263  0.70068  0.71708  1.0000
  C   C591      1.0  0.64860  0.52655  0.86523  1.0000
  C   C592      1.0  0.41382  0.70383  0.55933  1.0000
  C   C593      1.0  0.52498  0.86978  0.75077  1.0000
  S   S81       1.0  0.39192  0.85996  0.69184  1.0000
  H   H462      1.0  0.54337  0.78055  0.80343  1.0000
  C   C594      1.0  0.57693  0.00307  0.82810  1.0000
  H   H463      1.0  0.55288  0.88325  0.80087  1.0000
  H   H464      1.0  0.58673  0.89722  0.62995  1.0000
  C   C595      1.0  0.52754  0.72177  0.62970  1.0000
  C   C596      1.0  0.49037  0.72285  0.63036  1.0000
  C   C597      1.0  0.47334  0.75687  0.63202  1.0000
  C   C598      1.0  0.49337  0.79019  0.63235  1.0000
  C   C599      1.0  0.53035  0.78898  0.63067  1.0000
  C   C600      1.0  0.54739  0.75510  0.62980  1.0000
  H   H465      1.0  0.47476  0.69724  0.63042  1.0000
  H   H466      1.0  0.44485  0.75733  0.63330  1.0000
  H   H467      1.0  0.54597  0.81446  0.63004  1.0000
  H   H468      1.0  0.57589  0.75488  0.62914  1.0000
  C   C601      1.0  0.38295  0.96741  0.74687  1.0000
  H   H469      1.0  0.51682  0.93666  0.81386  1.0000
  H   H470      1.0  0.46826  0.95436  0.77173  1.0000
  H   H471      1.0  0.52718  0.69919  0.70774  1.0000
  H   H472      1.0  0.47343  0.81409  0.74785  1.0000
  C   C602      1.0  0.59239  0.78551  0.83361  1.0000
  C   C603      1.0  0.36934  0.90354  0.82499  1.0000
  C   C604      1.0  0.35985  0.73772  0.55455  1.0000
  H   H473      1.0  0.43604  0.75854  0.73671  1.0000
  C   C605      1.0  0.62778  0.82306  0.66585  1.0000
  H   H474      1.0  0.43848  0.85860  0.79112  1.0000
  H   H475      1.0  0.61670  0.56640  0.72632  1.0000
  H   H476      1.0  0.49127  0.86441  0.70307  1.0000
  H   H477      1.0  0.42594  0.91201  0.82956  1.0000
  C   C606      1.0  0.40433  0.89513  0.81812  1.0000
  C   C607      1.0  0.36194  0.62976  0.65696  1.0000
  C   C608      1.0  0.63158  0.54294  0.73528  1.0000
  H   H478      1.0  0.63917  0.59744  0.79520  1.0000
  H   H479      1.0  0.41167  0.76295  0.56441  1.0000
  C   C609      1.0  0.52230  0.78940  0.73249  1.0000
  H   H480      1.0  0.56497  0.75483  0.71714  1.0000
  C   C610      1.0  0.64208  0.70446  0.79899  1.0000
  C   C611      1.0  0.37166  0.66724  0.65371  1.0000
  H   H481      1.0  0.45568  0.91799  0.71645  1.0000
  C   C612      1.0  0.57133  0.86857  0.67832  1.0000
  H   H482      1.0  0.59081  0.63216  0.76749  1.0000
  C   C613      1.0  0.39132  0.98704  0.77878  1.0000
  H   H483      1.0  0.66312  0.84118  0.81200  1.0000
  C   C614      1.0  0.59263  0.87502  0.64859  1.0000
  H   H484      1.0  0.66568  0.88081  0.71270  1.0000
  H   H485      1.0  0.64949  0.80516  0.66102  1.0000
  C   C615      1.0  0.47702  0.91043  0.73481  1.0000
  P   P22       1.0  0.55080  0.82999  0.74082  1.0000
  H   H486      1.0  0.65285  0.73466  0.52869  1.0000
  C   C616      1.0  0.66583  0.53877  0.72306  1.0000
  H   H487      1.0  0.35898  0.72285  0.66739  1.0000
  C   C617      1.0  0.51564  0.72432  0.71689  1.0000
  H   H488      1.0  0.64418  0.79549  0.85803  1.0000
  S   S82       1.0  0.37200  0.80229  0.62552  1.0000
  H   H489      1.0  0.38875  0.81947  0.76556  1.0000
  H   H490      1.0  0.59300  0.70075  0.76848  1.0000
  C   C618      1.0  0.61229  0.64687  0.78167  1.0000
  C   C619      1.0  0.53703  0.75626  0.72188  1.0000
  H   H491      1.0  0.40782  0.97478  0.79941  1.0000
  C   C620      1.0  0.51149  0.92087  0.78961  1.0000
  C   C621      1.0  0.62614  0.80249  0.83610  1.0000
  H   H492      1.0  0.62252  0.85720  0.76174  1.0000
  H   H493      1.0  0.61312  0.79423  0.71379  1.0000
  C   C622      1.0  0.53191  0.89050  0.78209  1.0000
  C   C623      1.0  0.36170  0.98326  0.71995  1.0000
  C   C624      1.0  0.49731  0.88007  0.72727  1.0000
  Fe  Fe41      1.0  0.66651  0.62506  0.66881  1.0000
  H   H494      1.0  0.54940  0.88625  0.68189  1.0000
  C   C625      1.0  0.60672  0.81669  0.69570  1.0000
  C   C626      1.0  0.63971  0.62721  0.79777  1.0000
  C   C627      1.0  0.46433  0.75780  0.73297  1.0000
  C   C628      1.0  0.48576  0.78963  0.73867  1.0000
  C   C629      1.0  0.63679  0.82835  0.81016  1.0000
  H   H495      1.0  0.39294  0.94014  0.74305  1.0000
  H   H496      1.0  0.39519  0.67581  0.63934  1.0000
  Fe  Fe42      1.0  0.36142  0.90201  0.66072  1.0000
  C   C630      1.0  0.39656  0.73725  0.55992  1.0000
  C   C631      1.0  0.47927  0.72517  0.72206  1.0000
  H   H497      1.0  0.37801  0.60918  0.64507  1.0000
  C   C632      1.0  0.57812  0.83922  0.70220  1.0000
  C   C633      1.0  0.58001  0.81978  0.77857  1.0000
  C   C634      1.0  0.57939  0.99214  0.79239  1.0000
  C   C635      1.0  0.56935  0.79412  0.80499  1.0000
  C   C636      1.0  0.48412  0.93087  0.76595  1.0000
  C   C637      1.0  0.62075  0.85218  0.64228  1.0000
  H   H498      1.0  0.58694  0.98565  0.84960  1.0000
  H   H499      1.0  0.59117  0.96618  0.78618  1.0000
  H   H500      1.0  0.62085  0.53655  0.64301  1.0000
  H   H501      1.0  0.58420  0.76543  0.85375  1.0000
  H   H502      1.0  0.63688  0.85680  0.61895  1.0000
  H   H503      1.0  0.56868  0.00627  0.73700  1.0000
  H   H504      1.0  0.44231  0.70364  0.56352  1.0000
  C   C638      1.0  0.38351  0.84305  0.78211  1.0000
  C   C639      1.0  0.39440  0.67086  0.55278  1.0000
  H   H505      1.0  0.64400  0.73438  0.79783  1.0000
  Fe  Fe43      1.0  0.67009  0.70809  0.68193  1.0000
  H   H506      1.0  0.63976  0.58476  0.86411  1.0000
  H   H507      1.0  0.58973  0.51973  0.76776  1.0000
  C   C640      1.0  0.65820  0.56355  0.85832  1.0000
  H   H508      1.0  0.40794  0.64506  0.55161  1.0000
  H   H509      1.0  0.59015  0.75168  0.52766  1.0000
  H   H510      1.0  0.36444  0.92673  0.84208  1.0000
  C   C641      1.0  0.35765  0.67125  0.54732  1.0000
  Fe  Fe44      1.0  0.34686  0.82097  0.67583  1.0000
  C   C642      1.0  0.35123  0.69376  0.66938  1.0000
  S   S83       1.0  0.35081  0.96073  0.67867  1.0000
  H   H511      1.0  0.62280  0.51919  0.87563  1.0000
  C   C643      1.0  0.34855  0.85154  0.78870  1.0000
  H   H512      1.0  0.34700  0.76399  0.55460  1.0000
  C   C644      1.0  0.66901  0.68488  0.81604  1.0000
  C   C645      1.0  0.66792  0.64604  0.81589  1.0000
  S   S84       1.0  0.71005  0.17192  0.37464  1.0000
  H   H513      1.0  0.74490  0.25729  0.16624  1.0000
  S   S85       1.0  0.72524  0.21512  0.47424  1.0000
  H   H514      1.0  0.72579  0.13651  0.49389  1.0000
  H   H515      1.0  0.74348  0.10146  0.34434  1.0000
  Fe  Fe45      1.0  0.84258  0.30594  0.19030  1.0000
  S   S86       1.0  0.88345  0.35141  0.20033  1.0000
  S   S87       1.0  0.83254  0.26327  0.23390  1.0000
  Fe  Fe46      1.0  0.82744  0.33047  0.11263  1.0000
  S   S88       1.0  0.86733  0.37818  0.11681  1.0000
  S   S89       1.0  0.79133  0.30918  0.06643  1.0000
  Fe  Fe47      1.0  0.90289  0.33758  0.14550  1.0000
  S   S90       1.0  0.96233  0.33653  0.13526  1.0000
  Fe  Fe48      1.0  0.84526  0.38803  0.17166  1.0000
  S   S91       1.0  0.82616  0.44261  0.19324  1.0000
  S   S92       1.0  0.86458  0.28941  0.13764  1.0000
  S   S93       1.0  0.80284  0.34305  0.16516  1.0000
  H   H516      1.0  0.80056  0.38560  0.04010  1.0000
  H   H517      1.0  0.80185  0.15351  0.23648  1.0000
  C   C646      1.0  0.84595  0.46789  0.22968  1.0000
  C   C647      1.0  0.74107  0.15215  0.51389  1.0000
  H   H518      1.0  0.73249  0.26667  0.37499  1.0000
  C   C648      1.0  0.88053  0.46190  0.24197  1.0000
  C   C649      1.0  0.78175  0.37099  0.02249  1.0000
  H   H519      1.0  0.99966  0.21191  0.38193  1.0000
  H   H520      1.0  0.89537  0.44041  0.23003  1.0000
  C   C650      1.0  0.82713  0.49618  0.24534  1.0000
  C   C651      1.0  0.97582  0.26220  0.14752  1.0000
  C   C652      1.0  0.98979  0.29782  0.14077  1.0000
  H   H521      1.0  0.93544  0.13045  0.15810  1.0000
  C   C653      1.0  0.75621  0.11291  0.32075  1.0000
  H   H522      1.0  0.94750  0.25765  0.14938  1.0000
  C   C654      1.0  0.73707  0.11496  0.28825  1.0000
  C   C655      1.0  0.72391  0.25421  0.28522  1.0000
  C   C656      1.0  0.75126  0.23185  0.29717  1.0000
  C   C657      1.0  0.78460  0.23532  0.28152  1.0000
  C   C658      1.0  0.79073  0.26083  0.25368  1.0000
  C   C659      1.0  0.76354  0.28355  0.24214  1.0000
  C   C660      1.0  0.73019  0.28011  0.25774  1.0000
  H   H523      1.0  0.74683  0.21189  0.31840  1.0000
  H   H524      1.0  0.80574  0.21819  0.29100  1.0000
  H   H525      1.0  0.76802  0.30357  0.22103  1.0000
  H   H526      1.0  0.70922  0.29762  0.24847  1.0000
  C   C661      1.0  0.77246  0.33394  0.02961  1.0000
  H   H527      1.0  0.72634  0.05472  0.24552  1.0000
  C   C662      1.0  0.72860  0.08475  0.19486  1.0000
  C   C663      1.0  0.79147  0.12569  0.32289  1.0000
  C   C664      1.0  0.89630  0.48447  0.26908  1.0000
  C   C665      1.0  0.99850  0.23230  0.15154  1.0000
  C   C666      1.0  0.73756  0.20182  0.18702  1.0000
  C   C667      1.0  0.78877  0.14192  0.25967  1.0000
  C   C668      1.0  0.78962  0.49301  0.34215  1.0000
  C   C669      1.0  0.68330  0.14052  0.22258  1.0000
  C   C670      1.0  0.74539  0.19051  0.51021  1.0000
  H   H528      1.0  0.75099  0.47632  0.06492  1.0000
  C   C671      1.0  0.97151  0.31278  0.22645  1.0000
  H   H529      1.0  0.98734  0.20488  0.15609  1.0000
  H   H530      1.0  0.73536  0.28618  0.43864  1.0000
  H   H531      1.0  0.78739  0.12933  0.16462  1.0000
  C   C672      1.0  0.76140  0.33887  0.42721  1.0000
  C   C673      1.0  0.74596  0.30445  0.41803  1.0000
  C   C674      1.0  0.74441  0.29341  0.38220  1.0000
  C   C675      1.0  0.75816  0.31678  0.35556  1.0000
  C   C676      1.0  0.77395  0.35132  0.36446  1.0000
  C   C677      1.0  0.77543  0.36224  0.40059  1.0000
  P   P23       1.0  0.79241  0.38056  0.32943  1.0000
  C   C678      1.0  0.83383  0.36284  0.31504  1.0000
  C   C679      1.0  0.76151  0.38139  0.29169  1.0000
  C   C680      1.0  0.77363  0.38889  0.25704  1.0000
  C   C681      1.0  0.74961  0.39091  0.22799  1.0000
  C   C682      1.0  0.80777  0.14016  0.29234  1.0000
  C   C683      1.0  0.72666  0.05285  0.21659  1.0000
  C   C684      1.0  0.72498  0.37636  0.29689  1.0000
  C   C685      1.0  0.86071  0.38730  0.30284  1.0000
  C   C686      1.0  0.89295  0.37393  0.29213  1.0000
  C   C687      1.0  0.89842  0.33600  0.29282  1.0000
  C   C688      1.0  0.87158  0.31141  0.30407  1.0000
  C   C689      1.0  0.83942  0.32470  0.31513  1.0000
  C   C690      1.0  0.80105  0.42735  0.34498  1.0000
  C   C691      1.0  0.82986  0.43508  0.36865  1.0000
  C   C692      1.0  0.78093  0.45666  0.33179  1.0000
  H   H532      1.0  0.76278  0.34724  0.45506  1.0000
  H   H533      1.0  0.69609  0.18158  0.26322  1.0000
  H   H534      1.0  0.77556  0.49911  0.17566  1.0000
  H   H535      1.0  0.75651  0.30790  0.32790  1.0000
  H   H536      1.0  0.78732  0.38865  0.40840  1.0000
  H   H537      1.0  0.80158  0.39346  0.25233  1.0000
  H   H538      1.0  0.75920  0.39706  0.20137  1.0000
  C   C693      1.0  0.71342  0.38501  0.23319  1.0000
  H   H539      1.0  0.70971  0.10505  0.28728  1.0000
  H   H540      1.0  0.71486  0.37126  0.32343  1.0000
  H   H541      1.0  0.85673  0.41674  0.30108  1.0000
  H   H542      1.0  0.91332  0.39303  0.28242  1.0000
  H   H543      1.0  0.92300  0.32562  0.28358  1.0000
  H   H544      1.0  0.87508  0.28188  0.30296  1.0000
  H   H545      1.0  0.81894  0.30490  0.32282  1.0000
  H   H546      1.0  0.84622  0.41306  0.37852  1.0000
  H   H547      1.0  0.75913  0.45180  0.31286  1.0000
  H   H548      1.0  0.79333  0.24163  0.12647  1.0000
  H   H549      1.0  0.71676  0.20966  0.20444  1.0000
  H   H550      1.0  0.72610  0.10500  0.13993  1.0000
  H   H551      1.0  0.69054  0.46523  0.43395  1.0000
  H   H552      1.0  0.72140  0.04293  0.11299  1.0000
  C   C694      1.0  0.98183  0.25284  0.25360  1.0000
  C   C695      1.0  0.95970  0.27665  0.23435  1.0000
  P   P24       1.0  0.96673  0.20644  0.26539  1.0000
  C   C696      1.0  0.72650  0.08093  0.15732  1.0000
  C   C697      1.0  0.94174  0.20761  0.30600  1.0000
  C   C698      1.0  0.94160  0.23977  0.32683  1.0000
  C   C699      1.0  0.92084  0.24080  0.35730  1.0000
  C   C700      1.0  0.90001  0.20986  0.36712  1.0000
  C   C701      1.0  0.89995  0.17780  0.34649  1.0000
  C   C702      1.0  0.92063  0.17668  0.31597  1.0000
  H   H553      1.0  0.69502  0.38599  0.21046  1.0000
  C   C703      1.0  0.00501  0.17804  0.27060  1.0000
  C   C704      1.0  0.83852  0.47146  0.37877  1.0000
  H   H554      1.0  0.80598  0.12445  0.34830  1.0000
  H   H555      1.0  0.76304  0.45441  0.12721  1.0000
  C   C705      1.0  0.93737  0.18789  0.23034  1.0000
  C   C706      1.0  0.94915  0.16288  0.20501  1.0000
  C   C707      1.0  0.92604  0.14923  0.17791  1.0000
  C   C708      1.0  0.89101  0.16021  0.17599  1.0000
  C   C709      1.0  0.87899  0.18471  0.20129  1.0000
  C   C710      1.0  0.90198  0.19834  0.22844  1.0000
  S   S94       1.0  0.68197  0.25151  0.30467  1.0000
  H   H556      1.0  0.95692  0.26431  0.31934  1.0000
  H   H557      1.0  0.93359  0.26753  0.22482  1.0000
  H   H558      1.0  0.98837  0.15014  0.31937  1.0000
  H   H559      1.0  0.92039  0.26584  0.37303  1.0000
  H   H560      1.0  0.88363  0.21082  0.39054  1.0000
  H   H561      1.0  0.88356  0.15393  0.35398  1.0000
  H   H562      1.0  0.91985  0.15185  0.29987  1.0000
  C   C711      1.0  0.72337  0.01784  0.20106  1.0000
  H   H563      1.0  0.95488  0.33076  0.21070  1.0000
  H   H564      1.0  0.83498  0.15044  0.29396  1.0000
  C   C712      1.0  0.70109  0.37783  0.26766  1.0000
  H   H565      1.0  0.97618  0.15421  0.20555  1.0000
  H   H566      1.0  0.81470  0.17773  0.12589  1.0000
  H   H567      1.0  0.87328  0.14997  0.15474  1.0000
  H   H568      1.0  0.85195  0.19374  0.19965  1.0000
  H   H569      1.0  0.89217  0.21753  0.24763  1.0000
  C   C713      1.0  0.79308  0.18428  0.14291  1.0000
  C   C714      1.0  0.78113  0.22033  0.14323  1.0000
  C   C715      1.0  0.75358  0.22911  0.16546  1.0000
  Fe  Fe49      1.0  0.69116  0.19098  0.42799  1.0000
  C   C716      1.0  0.74872  0.16523  0.18618  1.0000
  C   C717      1.0  0.77728  0.15692  0.16461  1.0000
  P   P25       1.0  0.72888  0.13010  0.21501  1.0000
  C   C718      1.0  0.75325  0.12923  0.25736  1.0000
  C   C719      1.0  0.72343  0.04580  0.14190  1.0000
  C   C720      1.0  0.72176  0.01428  0.16377  1.0000
  H   H570      1.0  0.92320  0.47989  0.27812  1.0000
  C   C721      1.0  0.81844  0.50040  0.36553  1.0000
  H   H571      1.0  0.89627  0.28194  0.02452  1.0000
  H   H572      1.0  0.86136  0.47750  0.39620  1.0000
  C   C722      1.0  0.00526  0.32547  0.23753  1.0000
  H   H573      1.0  0.80033  0.50098  0.23628  1.0000
  C   C723      1.0  0.76276  0.48381  0.12132  1.0000
  C   C724      1.0  0.00863  0.15326  0.29956  1.0000
  C   C725      1.0  0.75619  0.49618  0.08625  1.0000
  C   C726      1.0  0.77005  0.50926  0.14875  1.0000
  H   H574      1.0  0.67779  0.31226  0.35176  1.0000
  Fe  Fe50      1.0  0.87498  0.12946  0.71686  1.0000
  S   S95       1.0  0.90285  0.18545  0.72214  1.0000
  S   S96       1.0  0.89093  0.08792  0.76053  1.0000
  Fe  Fe51      1.0  0.83433  0.15331  0.64882  1.0000
  S   S97       1.0  0.85878  0.21070  0.64888  1.0000
  S   S98       1.0  0.79458  0.12955  0.60727  1.0000
  Fe  Fe52      1.0  0.90998  0.18392  0.66283  1.0000
  S   S99       1.0  0.95927  0.20572  0.63476  1.0000
  Fe  Fe53      1.0  0.85029  0.20893  0.70826  1.0000
  S   S100      1.0  0.83884  0.26199  0.73656  1.0000
  S   S101      1.0  0.88656  0.12592  0.65798  1.0000
  S   S102      1.0  0.82133  0.15346  0.70778  1.0000
  C   C727      1.0  0.82052  0.37299  0.84441  1.0000
  S   S103      1.0  0.69345  0.38335  0.83164  1.0000
  C   C728      1.0  0.82663  0.21971  0.87004  1.0000
  C   C729      1.0  0.98033  0.30270  0.79878  1.0000
  S   S104      1.0  0.72472  0.39479  0.93121  1.0000
  H   H575      1.0  0.96991  0.39743  0.64882  1.0000
  C   C730      1.0  0.72776  0.09610  0.69681  1.0000
  C   C731      1.0  0.74254  0.37052  0.96889  1.0000
  C   C732      1.0  0.73331  0.33344  0.97597  1.0000
  C   C733      1.0  0.68466  0.50789  0.73485  1.0000
  H   H576      1.0  0.97150  0.14474  0.69816  1.0000
  H   H577      1.0  0.71468  0.31874  0.95825  1.0000
  C   C734      1.0  0.94120  0.31734  0.60921  1.0000
  C   C735      1.0  0.79649  0.26521  0.75393  1.0000
  C   C736      1.0  0.77104  0.23679  0.74874  1.0000
  C   C737      1.0  0.73663  0.24079  0.76071  1.0000
  C   C738      1.0  0.72787  0.27273  0.77885  1.0000
  C   C739      1.0  0.75386  0.30033  0.78596  1.0000
  C   C740      1.0  0.78807  0.29679  0.77301  1.0000
  H   H578      1.0  0.77778  0.21192  0.73513  1.0000
  H   H579      1.0  0.71673  0.21914  0.75588  1.0000
  H   H580      1.0  0.74745  0.32466  0.80072  1.0000
  H   H581      1.0  0.80796  0.31858  0.77760  1.0000
  C   C741      1.0  0.98785  0.23925  0.65590  1.0000
  H   H582      1.0  0.73895  0.34085  0.64911  1.0000
  H   H583      1.0  0.96922  0.22883  0.70923  1.0000
  C   C742      1.0  0.77660  0.15375  0.56987  1.0000
  H   H584      1.0  0.89342  0.40320  0.66842  1.0000
  C   C743      1.0  0.70786  0.12948  0.64383  1.0000
  H   H585      1.0  0.87632  0.22184  0.92694  1.0000
  C   C744      1.0  0.83078  0.29246  0.96130  1.0000
  H   H586      1.0  0.80842  0.30972  0.95578  1.0000
  C   C745      1.0  0.84190  0.02862  0.75318  1.0000
  H   H587      1.0  0.82125  0.17935  0.91295  1.0000
  H   H588      1.0  0.83114  0.04303  0.73006  1.0000
  H   H589      1.0  0.73763  0.07999  0.64259  1.0000
  H   H590      1.0  0.79656  0.20760  0.58597  1.0000
  C   C746      1.0  0.83823  0.15431  0.86457  1.0000
  H   H591      1.0  0.91186  0.23267  0.98239  1.0000
  C   C747      1.0  0.76679  0.24556  0.90622  1.0000
  C   C748      1.0  0.98387  0.43926  0.73944  1.0000
  H   H592      1.0  0.91481  0.27169  0.63594  1.0000
  C   C749      1.0  0.95790  0.36991  0.64650  1.0000
  C   C750      1.0  0.72501  0.09957  0.65952  1.0000
  Fe  Fe54      1.0  0.68298  0.37309  0.89050  1.0000
  C   C751      1.0  0.73983  0.27796  0.60085  1.0000
  C   C752      1.0  0.77051  0.27668  0.62251  1.0000
  C   C753      1.0  0.77183  0.25227  0.65166  1.0000
  C   C754      1.0  0.74302  0.22825  0.65849  1.0000
  C   C755      1.0  0.74822  0.31533  0.00614  1.0000
  H   H593      1.0  0.86802  0.29587  0.85680  1.0000
  H   H594      1.0  0.90654  0.03718  0.81786  1.0000
  H   H595      1.0  0.84961  0.19875  0.78482  1.0000
  H   H596      1.0  0.76875  0.38081  0.86532  1.0000
  H   H597      1.0  0.96835  0.36664  0.59006  1.0000
  H   H598      1.0  0.77439  0.41769  0.98696  1.0000
  C   C756      1.0  0.87070  0.04448  0.77260  1.0000
  H   H599      1.0  0.83118  0.25113  0.82048  1.0000
  H   H600      1.0  0.75092  0.24489  0.84996  1.0000
  C   C757      1.0  0.94928  0.28293  0.80755  1.0000
  H   H601      1.0  0.68817  0.22982  0.86119  1.0000
  C   C758      1.0  0.92646  0.29933  0.63881  1.0000
  H   H602      1.0  0.87247  0.35783  0.82882  1.0000
  H   H603      1.0  0.95972  0.44876  0.75044  1.0000
  C   C759      1.0  0.88911  0.24922  0.97650  1.0000
  H   H604      1.0  0.75229  0.33705  0.71438  1.0000
  C   C760      1.0  0.71890  0.34753  0.66791  1.0000
  H   H605      1.0  0.79342  0.29434  0.61666  1.0000
  H   H606      1.0  0.79546  0.25146  0.66870  1.0000
  H   H607      1.0  0.74511  0.20873  0.68046  1.0000
  C   C761      1.0  0.72658  0.34575  0.70472  1.0000
  H   H608      1.0  0.75273  0.10430  0.54648  1.0000
  C   C762      1.0  0.88432  0.02522  0.80259  1.0000
  H   H609      1.0  0.83957  0.12693  0.87640  1.0000
  C   C763      1.0  0.98493  0.40446  0.72311  1.0000
  C   C764      1.0  0.83880  0.26407  0.93770  1.0000
  H   H610      1.0  0.77333  0.24350  0.96427  1.0000
  H   H611      1.0  0.70716  0.35437  0.75765  1.0000
  H   H612      1.0  0.84018  0.43913  0.67645  1.0000
  H   H613      1.0  0.72315  0.48624  0.83867  1.0000
  C   C765      1.0  0.69585  0.15235  0.70298  1.0000
  C   C766      1.0  0.75638  0.13395  0.54374  1.0000
  C   C767      1.0  0.82808  0.18409  0.88519  1.0000
  C   C768      1.0  0.86632  0.43042  0.76407  1.0000
  C   C769      1.0  0.89642  0.40976  0.75976  1.0000
  C   C770      1.0  0.90644  0.39946  0.72532  1.0000
  C   C771      1.0  0.88609  0.41040  0.69528  1.0000
  P   P26       1.0  0.94603  0.37387  0.72003  1.0000
  C   C772      1.0  0.94748  0.33886  0.75488  1.0000
  H   H614      1.0  0.85896  0.43865  0.79065  1.0000
  C   C773      1.0  0.92796  0.31616  0.67246  1.0000
  C   C774      1.0  0.83387  0.22462  0.83350  1.0000
  H   H615      1.0  0.94088  0.30356  0.58349  1.0000
  H   H616      1.0  0.95005  0.26086  0.82735  1.0000
  C   C775      1.0  0.84570  0.31369  0.85756  1.0000
  C   C776      1.0  0.71220  0.22914  0.63681  1.0000
  H   H617      1.0  0.73909  0.29655  0.57798  1.0000
  H   H618      1.0  0.70780  0.13220  0.61495  1.0000
  C   C777      1.0  0.91730  0.29121  0.79028  1.0000
  C   C778      1.0  0.91629  0.31932  0.76439  1.0000
  H   H619      1.0  0.69914  0.17981  0.57388  1.0000
  H   H620      1.0  0.82261  0.45682  0.73744  1.0000
  C   C779      1.0  0.75517  0.24056  0.94147  1.0000
  C   C780      1.0  0.84640  0.15971  0.82851  1.0000
  C   C781      1.0  0.85585  0.43084  0.69972  1.0000
  H   H621      1.0  0.85422  0.13662  0.81246  1.0000
  C   C782      1.0  0.84399  0.19479  0.81297  1.0000
  H   H622      1.0  0.91212  0.40209  0.78322  1.0000
  C   C783      1.0  0.78112  0.19208  0.56604  1.0000
  H   H623      1.0  0.91690  0.30105  0.69490  1.0000
  H   H624      1.0  0.68020  0.35973  0.62684  1.0000
  C   C784      1.0  0.88048  0.27704  0.00018  1.0000
  C   C785      1.0  0.84594  0.44082  0.73408  1.0000
  C   C786      1.0  0.76692  0.38908  0.99227  1.0000
  P   P27       1.0  0.81235  0.25745  0.89701  1.0000
  C   C787      1.0  0.74245  0.24113  0.87736  1.0000
  H   H625      1.0  0.74214  0.07354  0.70880  1.0000
  H   H626      1.0  0.89332  0.27531  0.79627  1.0000
  H   H627      1.0  0.89126  0.32497  0.75099  1.0000
  H   H628      1.0  0.97571  0.09426  0.74331  1.0000
  H   H629      1.0  0.76321  0.31880  0.89178  1.0000
  H   H630      1.0  0.82272  0.40054  0.83306  1.0000
  H   H631      1.0  0.71114  0.50435  0.72551  1.0000
  C   C788      1.0  0.71052  0.25472  0.60831  1.0000
  C   C789      1.0  0.94402  0.35153  0.67669  1.0000
  C   C790      1.0  0.84846  0.34897  0.84209  1.0000
  C   C791      1.0  0.86856  0.24291  0.94520  1.0000
  C   C792      1.0  0.78993  0.36179  0.86228  1.0000
  C   C793      1.0  0.78685  0.32633  0.87722  1.0000
  C   C794      1.0  0.81446  0.30167  0.87429  1.0000
  C   C795      1.0  0.76547  0.21034  0.53642  1.0000
  H   H632      1.0  0.68422  0.45771  0.76699  1.0000
  C   C796      1.0  0.95678  0.35271  0.61300  1.0000
  C   C797      1.0  0.98789  0.24437  0.69305  1.0000
  C   C798      1.0  0.70516  0.50794  0.84426  1.0000
  H   H633      1.0  0.68534  0.31416  0.54158  1.0000
  H   H634      1.0  0.71613  0.12026  0.74749  1.0000
  H   H635      1.0  0.00415  0.34444  0.76524  1.0000
  H   H636      1.0  0.76905  0.23998  0.53375  1.0000
  C   C799      1.0  0.70118  0.35545  0.72912  1.0000
  C   C800      1.0  0.97955  0.33037  0.77235  1.0000
  C   C801      1.0  0.71311  0.12244  0.71855  1.0000
  H   H637      1.0  0.74089  0.28670  0.01142  1.0000
  S   S105      1.0  0.68389  0.27750  0.79102  1.0000
  H   H638      1.0  0.68598  0.17310  0.72043  1.0000
  C   C802      1.0  0.71947  0.23201  0.94767  1.0000
  H   H639      1.0  0.00521  0.29612  0.81187  1.0000
  C   C803      1.0  0.69284  0.15607  0.66539  1.0000
  C   C804      1.0  0.69531  0.22805  0.91879  1.0000
  C   C805      1.0  0.70687  0.23238  0.88364  1.0000
  C   C806      1.0  0.85151  0.29879  0.99241  1.0000
  C   C807      1.0  0.99700  0.13823  0.71013  1.0000
  H   H640      1.0  0.71048  0.22892  0.97494  1.0000
  H   H641      1.0  0.68692  0.25617  0.59145  1.0000
  H   H642      1.0  0.84500  0.32053  0.01068  1.0000
  C   C808      1.0  0.68555  0.35815  0.65548  1.0000
  C   C809      1.0  0.99946  0.10977  0.73549  1.0000
  C   C810      1.0  0.70971  0.65474  0.40990  1.0000
  S   S106      1.0  0.73338  0.83872  0.26669  1.0000
  S   S107      1.0  0.70057  0.90059  0.18554  1.0000
  Fe  Fe55      1.0  0.87804  0.59587  0.33757  1.0000
  S   S108      1.0  0.89159  0.61637  0.39338  1.0000
  S   S109      1.0  0.89953  0.54216  0.31688  1.0000
  Fe  Fe56      1.0  0.83445  0.66279  0.32044  1.0000
  S   S110      1.0  0.84382  0.68851  0.37476  1.0000
  S   S111      1.0  0.79960  0.68068  0.27370  1.0000
  Fe  Fe57      1.0  0.90075  0.67266  0.36787  1.0000
  S   S112      1.0  0.94761  0.70952  0.38869  1.0000
  Fe  Fe58      1.0  0.83432  0.63095  0.39656  1.0000
  S   S113      1.0  0.80037  0.61005  0.44304  1.0000
  S   S114      1.0  0.89162  0.65087  0.31197  1.0000
  S   S115      1.0  0.82055  0.60641  0.34241  1.0000
  C   C811      1.0  0.98145  0.73642  0.36698  1.0000
  C   C812      1.0  0.72667  0.84816  0.36419  1.0000
  H   H643      1.0  0.76563  0.68924  0.34711  1.0000
  C   C813      1.0  0.98507  0.73693  0.32969  1.0000
  H   H644      1.0  0.71822  0.98709  0.15191  1.0000
  H   H645      1.0  0.68705  0.73703  0.47325  1.0000
  H   H646      1.0  0.96665  0.72082  0.31292  1.0000
  C   C814      1.0  0.77649  0.63552  0.47447  1.0000
  H   H647      1.0  0.83076  0.63104  0.21668  1.0000
  H   H648      1.0  0.73424  0.86049  0.33879  1.0000
  C   C815      1.0  0.73681  0.86569  0.39624  1.0000
  H   H649      1.0  0.89315  0.62728  0.23664  1.0000
  C   C816      1.0  0.77454  0.67403  0.47269  1.0000
  H   H650      1.0  0.77470  0.51566  0.33125  1.0000
  C   C817      1.0  0.75834  0.61618  0.50173  1.0000
  H   H651      1.0  0.78816  0.68928  0.45179  1.0000
  C   C818      1.0  0.74426  0.68835  0.36590  1.0000
  C   C819      1.0  0.98196  0.89110  0.27268  1.0000
  C   C820      1.0  0.00579  0.75764  0.38823  1.0000
  C   C821      1.0  0.75241  0.79516  0.26778  1.0000
  C   C822      1.0  0.74821  0.77080  0.23901  1.0000
  C   C823      1.0  0.76343  0.73603  0.24109  1.0000
  C   C824      1.0  0.78272  0.72535  0.27183  1.0000
  C   C825      1.0  0.78752  0.75001  0.30035  1.0000
  C   C826      1.0  0.77234  0.78481  0.29827  1.0000
  H   H652      1.0  0.73312  0.77867  0.21528  1.0000
  H   H653      1.0  0.76003  0.71717  0.21898  1.0000
  H   H654      1.0  0.80281  0.74236  0.32401  1.0000
  H   H655      1.0  0.77576  0.80368  0.32048  1.0000
  H   H656      1.0  0.75084  0.88507  0.10057  1.0000
  H   H657      1.0  0.72058  0.99343  0.21798  1.0000
  H   H658      1.0  0.89995  0.52320  0.18356  1.0000
  C   C827      1.0  0.71681  0.86037  0.05958  1.0000
  H   H659      1.0  0.92770  0.57326  0.22092  1.0000
  C   C828      1.0  0.88892  0.71682  0.24615  1.0000
  C   C829      1.0  0.92089  0.71405  0.22866  1.0000
  C   C830      1.0  0.94593  0.74336  0.23005  1.0000
  C   C831      1.0  0.93881  0.77563  0.24850  1.0000
  C   C832      1.0  0.90674  0.77854  0.26632  1.0000
  C   C833      1.0  0.88213  0.74861  0.26545  1.0000
  P   P28       1.0  0.89615  0.82092  0.28832  1.0000
  C   C834      1.0  0.86488  0.84650  0.26119  1.0000
  C   C835      1.0  0.87642  0.80983  0.33096  1.0000
  C   C836      1.0  0.84681  0.82849  0.34239  1.0000
  C   C837      1.0  0.83197  0.81992  0.37557  1.0000
  C   C838      1.0  0.84686  0.79312  0.39785  1.0000
  C   C839      1.0  0.87639  0.77467  0.38679  1.0000
  C   C840      1.0  0.89063  0.78234  0.35318  1.0000
  C   C841      1.0  0.86236  0.88477  0.26609  1.0000
  C   C842      1.0  0.83638  0.90431  0.24740  1.0000
  C   C843      1.0  0.81258  0.88580  0.22388  1.0000
  C   C844      1.0  0.81490  0.84782  0.21882  1.0000
  C   C845      1.0  0.84082  0.82817  0.23743  1.0000
  C   C846      1.0  0.93701  0.84782  0.29549  1.0000
  C   C847      1.0  0.94909  0.87238  0.26867  1.0000
  C   C848      1.0  0.68187  0.72101  0.27138  1.0000
  C   C849      1.0  0.95869  0.84196  0.32608  1.0000
  H   H660      1.0  0.86932  0.69427  0.24492  1.0000
  H   H661      1.0  0.92626  0.68921  0.21406  1.0000
  H   H662      1.0  0.97084  0.74120  0.21669  1.0000
  H   H663      1.0  0.95856  0.79799  0.24888  1.0000
  H   H664      1.0  0.85741  0.75007  0.27917  1.0000
  H   H665      1.0  0.83464  0.84930  0.32569  1.0000
  H   H666      1.0  0.80883  0.83397  0.38392  1.0000
  H   H667      1.0  0.83546  0.78642  0.42357  1.0000
  H   H668      1.0  0.88807  0.75394  0.40411  1.0000
  H   H669      1.0  0.91297  0.76704  0.34471  1.0000
  H   H670      1.0  0.87984  0.89933  0.28510  1.0000
  H   H671      1.0  0.83414  0.93367  0.25168  1.0000
  H   H672      1.0  0.79179  0.90066  0.21010  1.0000
  H   H673      1.0  0.79578  0.83339  0.20130  1.0000
  H   H674      1.0  0.84115  0.79864  0.23374  1.0000
  H   H675      1.0  0.93357  0.87635  0.24419  1.0000
  C   C850      1.0  0.71481  0.84903  0.02345  1.0000
  H   H676      1.0  0.95105  0.82229  0.34665  1.0000
  C   C851      1.0  0.76005  0.69863  0.13971  1.0000
  C   C852      1.0  0.70648  0.81502  0.36472  1.0000
  C   C853      1.0  0.70654  0.81700  0.42971  1.0000
  C   C854      1.0  0.84313  0.51916  0.27197  1.0000
  H   H677      1.0  0.69235  0.61229  0.09279  1.0000
  H   H678      1.0  0.75514  0.72686  0.13152  1.0000
  H   H679      1.0  0.72350  0.62870  0.18915  1.0000
  H   H680      1.0  0.69603  0.55110  0.29798  1.0000
  H   H681      1.0  0.80978  0.69719  0.11305  1.0000
  H   H682      1.0  0.80253  0.89334  0.06095  1.0000
  C   C855      1.0  0.74878  0.87613  0.07295  1.0000
  H   H683      1.0  0.83806  0.52584  0.16362  1.0000
  C   C856      1.0  0.72695  0.84999  0.42900  1.0000
  H   H684      1.0  0.82181  0.63339  0.13272  1.0000
  C   C857      1.0  0.99156  0.86066  0.32991  1.0000
  C   C858      1.0  0.00324  0.88514  0.30325  1.0000
  C   C859      1.0  0.77808  0.88081  0.05036  1.0000
  H   H685      1.0  0.70497  0.62999  0.42589  1.0000
  H   H686      1.0  0.69901  0.80204  0.33939  1.0000
  C   C860      1.0  0.73739  0.65621  0.38584  1.0000
  C   C861      1.0  0.72384  0.54856  0.21189  1.0000
  H   H687      1.0  0.78989  0.60007  0.25354  1.0000
  H   H688      1.0  0.75218  0.89154  0.39559  1.0000
  H   H689      1.0  0.75187  0.58866  0.30493  1.0000
  H   H690      1.0  0.69840  0.73187  0.29331  1.0000
  C   C862      1.0  0.77127  0.54738  0.14136  1.0000
  C   C863      1.0  0.76469  0.55963  0.10599  1.0000
  P   P29       1.0  0.78254  0.57976  0.17701  1.0000
  C   C864      1.0  0.75595  0.56913  0.21576  1.0000
  C   C865      1.0  0.82917  0.57844  0.18906  1.0000
  C   C866      1.0  0.84947  0.54865  0.17902  1.0000
  C   C867      1.0  0.88496  0.54705  0.19019  1.0000
  C   C868      1.0  0.90059  0.57524  0.21118  1.0000
  C   C869      1.0  0.72386  0.71933  0.37042  1.0000
  C   C870      1.0  0.84552  0.60735  0.20909  1.0000
  C   C871      1.0  0.76579  0.58349  0.24963  1.0000
  C   C872      1.0  0.74416  0.57708  0.27905  1.0000
  C   C873      1.0  0.71262  0.55612  0.27506  1.0000
  C   C874      1.0  0.88100  0.60556  0.22026  1.0000
  C   C875      1.0  0.87792  0.51357  0.28385  1.0000
  C   C876      1.0  0.77351  0.62620  0.16234  1.0000
  C   C877      1.0  0.74248  0.64306  0.17235  1.0000
  C   C878      1.0  0.73589  0.67913  0.16112  1.0000
  C   C879      1.0  0.79090  0.68196  0.12944  1.0000
  C   C880      1.0  0.79767  0.64588  0.14072  1.0000
  H   H691      1.0  0.71258  0.69238  0.17005  1.0000
  H   H692      1.0  0.73482  0.86363  0.45387  1.0000
  H   H693      1.0  0.76576  0.58875  0.09928  1.0000
  H   H694      1.0  0.82867  0.54137  0.28312  1.0000
  C   C881      1.0  0.68481  0.68445  0.26049  1.0000
  C   C882      1.0  0.75472  0.69282  0.49792  1.0000
  H   H695      1.0  0.99132  0.90969  0.25178  1.0000
  H   H696      1.0  0.72980  0.74392  0.35473  1.0000
  H   H697      1.0  0.75383  0.63258  0.38306  1.0000
  H   H698      1.0  0.82577  0.52862  0.37288  1.0000
  H   H699      1.0  0.99956  0.61804  0.36024  1.0000
  C   C883      1.0  0.69576  0.79937  0.39754  1.0000
  H   H700      1.0  0.00326  0.75754  0.41709  1.0000
  C   C884      1.0  0.68876  0.68537  0.41398  1.0000
  H   H701      1.0  0.75345  0.72257  0.49628  1.0000
  C   C885      1.0  0.75702  0.53407  0.07862  1.0000
  H   H702      1.0  0.75237  0.54356  0.05130  1.0000
  C   C886      1.0  0.70246  0.54186  0.24148  1.0000
  H   H703      1.0  0.00854  0.85532  0.35314  1.0000
  H   H704      1.0  0.71508  0.53785  0.18604  1.0000
  H   H705      1.0  0.75966  0.58642  0.50337  1.0000
  Fe  Fe59      1.0  0.69223  0.85312  0.22424  1.0000
  H   H706      1.0  0.70375  0.66704  0.27412  1.0000
  C   C887      1.0  0.69602  0.71820  0.39467  1.0000
  H   H707      1.0  0.68037  0.55069  0.12039  1.0000
  H   H708      1.0  0.69911  0.80565  0.45544  1.0000
  H   H709      1.0  0.68586  0.99677  0.33962  1.0000
  C   C888      1.0  0.77605  0.86965  0.01417  1.0000
  S   S116      1.0  0.67850  0.85456  0.08642  1.0000
  H   H710      1.0  0.67794  0.52568  0.23834  1.0000
  Fe  Fe60      1.0  0.83499  0.89027  0.85090  1.0000
  S   S117      1.0  0.86939  0.89615  0.90089  1.0000
  S   S118      1.0  0.82111  0.93087  0.80533  1.0000
  Fe  Fe61      1.0  0.81919  0.80823  0.86633  1.0000
  S   S119      1.0  0.85263  0.80795  0.91733  1.0000
  S   S120      1.0  0.79561  0.75416  0.84445  1.0000
  Fe  Fe62      1.0  0.82687  0.86174  0.92897  1.0000
  S   S121      1.0  0.81388  0.87714  0.98690  1.0000
  Fe  Fe63      1.0  0.89245  0.84171  0.88612  1.0000
  S   S122      1.0  0.95286  0.83686  0.88664  1.0000
  S   S123      1.0  0.79070  0.85956  0.87974  1.0000
  S   S124      1.0  0.86060  0.83827  0.83436  1.0000
  S   S125      1.0  0.70914  0.66958  0.66008  1.0000
  H   H711      1.0  0.88160  0.74559  0.86112  1.0000
  H   H712      1.0  0.72510  0.61971  0.54797  1.0000
  C   C889      1.0  0.98732  0.73077  0.89231  1.0000
  C   C890      1.0  0.76371  0.75572  0.80907  1.0000
  C   C891      1.0  0.75642  0.72400  0.78833  1.0000
  C   C892      1.0  0.73120  0.72431  0.75997  1.0000
  C   C893      1.0  0.71274  0.75628  0.75254  1.0000
  C   C894      1.0  0.71972  0.78786  0.77344  1.0000
  C   C895      1.0  0.74540  0.78778  0.80140  1.0000
  H   H713      1.0  0.77097  0.69939  0.79366  1.0000
  H   H714      1.0  0.72600  0.69987  0.74393  1.0000
  H   H715      1.0  0.70529  0.81250  0.76788  1.0000
  H   H716      1.0  0.75084  0.81239  0.81715  1.0000
  C   C896      1.0  0.76836  0.83134  0.57816  1.0000
  C   C897      1.0  0.88779  0.70101  0.82414  1.0000
  H   H717      1.0  0.00162  0.78833  0.69616  1.0000
  C   C898      1.0  0.86939  0.99064  0.81319  1.0000
  C   C899      1.0  0.00228  0.77931  0.77095  1.0000
  H   H718      1.0  0.68372  0.90679  0.77228  1.0000
  H   H719      1.0  0.69112  0.70032  0.82821  1.0000
  H   H720      1.0  0.74209  0.84486  0.97321  1.0000
  H   H721      1.0  0.74887  0.68687  0.85297  1.0000
  H   H722      1.0  0.91971  0.78973  0.82794  1.0000
  C   C900      1.0  0.96531  0.76143  0.89276  1.0000
  C   C901      1.0  0.97929  0.79705  0.88611  1.0000
  P   P30       1.0  0.70410  0.62100  0.83587  1.0000
  H   H723      1.0  0.70482  0.61940  0.75730  1.0000
  H   H724      1.0  0.93766  0.75755  0.89884  1.0000
  H   H725      1.0  0.81560  0.62424  0.73596  1.0000
  C   C902      1.0  0.73871  0.63498  0.52709  1.0000
  C   C903      1.0  0.91466  0.76230  0.81724  1.0000
  C   C904      1.0  0.84073  0.97469  0.79369  1.0000
  C   C905      1.0  0.91252  0.84570  0.75362  1.0000
  C   C906      1.0  0.94752  0.77715  0.71206  1.0000
  H   H726      1.0  0.74524  0.69221  0.96742  1.0000
  H   H727      1.0  0.93619  0.70654  0.74857  1.0000
  C   C907      1.0  0.73955  0.67507  0.87783  1.0000
  C   C908      1.0  0.73764  0.67831  0.94258  1.0000
  C   C909      1.0  0.91999  0.90085  0.78978  1.0000
  H   H728      1.0  0.79576  0.91798  0.69814  1.0000
  H   H729      1.0  0.75290  0.62048  0.71436  1.0000
  H   H730      1.0  0.89690  0.83003  0.73407  1.0000
  H   H731      1.0  0.68938  0.60371  0.91203  1.0000
  C   C910      1.0  0.73751  0.89023  0.76904  1.0000
  C   C911      1.0  0.76224  0.87282  0.74842  1.0000
  C   C912      1.0  0.75249  0.85794  0.71470  1.0000
  C   C913      1.0  0.71735  0.86118  0.70202  1.0000
  P   P31       1.0  0.78542  0.83709  0.68746  1.0000
  C   C914      1.0  0.82304  0.86891  0.68300  1.0000
  C   C915      1.0  0.80186  0.79605  0.70965  1.0000
  C   C916      1.0  0.82032  0.79936  0.74273  1.0000
  C   C917      1.0  0.83321  0.76818  0.76022  1.0000
  C   C918      1.0  0.82822  0.73333  0.74483  1.0000
  C   C919      1.0  0.81100  0.72974  0.71141  1.0000
  C   C920      1.0  0.79819  0.76092  0.69370  1.0000
  C   C921      1.0  0.85541  0.85569  0.67194  1.0000
  C   C922      1.0  0.80248  0.62439  0.79195  1.0000
  C   C923      1.0  0.82041  0.90679  0.68996  1.0000
  C   C924      1.0  0.76712  0.82563  0.64327  1.0000
  C   C925      1.0  0.78125  0.84209  0.61221  1.0000
  H   H732      1.0  0.98324  0.84000  0.81180  1.0000
  C   C926      1.0  0.71606  0.64615  0.94304  1.0000
  H   H733      1.0  0.88003  0.97637  0.83647  1.0000
  C   C927      1.0  0.73914  0.79918  0.63957  1.0000
  C   C928      1.0  0.71479  0.54487  0.83708  1.0000
  H   H734      1.0  0.70873  0.85071  0.67613  1.0000
  H   H735      1.0  0.74570  0.90183  0.79485  1.0000
  H   H736      1.0  0.78917  0.87216  0.75865  1.0000
  C   C929      1.0  0.93366  0.76501  0.63851  1.0000
  H   H737      1.0  0.82487  0.82589  0.75537  1.0000
  H   H738      1.0  0.84600  0.77093  0.78642  1.0000
  H   H739      1.0  0.83698  0.70913  0.75924  1.0000
  H   H740      1.0  0.80681  0.70268  0.69953  1.0000
  H   H741      1.0  0.78548  0.75694  0.66774  1.0000
  H   H742      1.0  0.85789  0.82666  0.66612  1.0000
  C   C930      1.0  0.77519  0.62343  0.81660  1.0000
  C   C931      1.0  0.69263  0.87859  0.72275  1.0000
  H   H743      1.0  0.80241  0.86295  0.61402  1.0000
  H   H744      1.0  0.73184  0.79502  0.54853  1.0000
  C   C932      1.0  0.90127  0.88053  0.76339  1.0000
  H   H745      1.0  0.91059  0.92728  0.79809  1.0000
  H   H746      1.0  0.72773  0.78613  0.66308  1.0000
  C   C933      1.0  0.79452  0.62369  0.75509  1.0000
  C   C934      1.0  0.74937  0.69273  0.90997  1.0000
  H   H747      1.0  0.80486  0.98191  0.74846  1.0000
  H   H748      1.0  0.76602  0.71780  0.90945  1.0000
  S   S126      1.0  0.68582  0.57025  0.69197  1.0000
  H   H749      1.0  0.97615  0.70339  0.89756  1.0000
  H   H750      1.0  0.90987  0.86943  0.66029  1.0000
  H   H751      1.0  0.89971  0.66182  0.78342  1.0000
  C   C935      1.0  0.70617  0.62843  0.91086  1.0000
  H   H752      1.0  0.87974  0.75328  0.65345  1.0000
  C   C936      1.0  0.71802  0.64265  0.87788  1.0000
  H   H753      1.0  0.78185  0.62347  0.84503  1.0000
  P   P32       1.0  0.95597  0.78484  0.75954  1.0000
  H   H754      1.0  0.87721  0.89133  0.75168  1.0000
  C   C937      1.0  0.96112  0.85145  0.79701  1.0000
  C   C938      1.0  0.92918  0.75203  0.78474  1.0000
  C   C939      1.0  0.73195  0.62118  0.76742  1.0000
  H   H755      1.0  0.92838  0.76012  0.61016  1.0000
  C   C940      1.0  0.75928  0.62180  0.74288  1.0000
  C   C941      1.0  0.73968  0.62251  0.80446  1.0000
  C   C942      1.0  0.88485  0.87986  0.66845  1.0000
  C   C943      1.0  0.94985  0.88628  0.80661  1.0000
  H   H756      1.0  0.90505  0.93611  0.67380  1.0000
  C   C944      1.0  0.73682  0.67347  0.52536  1.0000
  S   S127      1.0  0.71229  0.69868  0.55643  1.0000
  H   H757      1.0  0.96339  0.90118  0.82837  1.0000
  C   C945      1.0  0.70271  0.89312  0.75625  1.0000
  H   H758      1.0  0.70688  0.63503  0.96834  1.0000
  C   C946      1.0  0.90630  0.76116  0.66286  1.0000
  C   C947      1.0  0.88216  0.91740  0.67599  1.0000
  H   H759      1.0  0.89177  0.76408  0.71788  1.0000
  C   C948      1.0  0.84997  0.93083  0.68671  1.0000
  C   C949      1.0  0.92400  0.71546  0.77284  1.0000
  C   C950      1.0  0.94277  0.83097  0.77015  1.0000
  C   C951      1.0  0.89348  0.73709  0.83648  1.0000
  C   C952      1.0  0.74419  0.85351  0.00091  1.0000
  C   C953      1.0  0.91320  0.76720  0.69942  1.0000
  C   C954      1.0  0.72655  0.78835  0.60552  1.0000
  C   C955      1.0  0.96791  0.77490  0.65077  1.0000
  C   C956      1.0  0.90342  0.69004  0.79254  1.0000
  H   H760      1.0  0.87156  0.68162  0.83939  1.0000
  C   C957      1.0  0.97487  0.78095  0.68738  1.0000
  H   H761      1.0  0.84800  0.95991  0.69289  1.0000
  H   H762      1.0  0.82979  0.62559  0.80148  1.0000
  H   H763      1.0  0.74049  0.55118  0.82609  1.0000
  C   C958      1.0  0.74127  0.80420  0.57483  1.0000
  C   C959      1.0  0.82709  0.99392  0.76367  1.0000
  H   H764      1.0  0.77970  0.84371  0.55432  1.0000
  H   H765      1.0  0.69027  0.83686  0.01273  1.0000
  H   H766      1.0  0.70591  0.76697  0.60283  1.0000
  C   C960      1.0  0.69136  0.57303  0.84405  1.0000
  Fe  Fe64      1.0  0.68239  0.67850  0.60615  1.0000
  S   S128      1.0  0.68053  0.75777  0.71763  1.0000
  H   H767      1.0  0.98918  0.77769  0.63190  1.0000
  H   H768      1.0  0.99497  0.72528  0.79612  1.0000
