data_image0
_chemical_formula_structural       HCFeS2FeS2FePFeS3FeS2FeS2FeSFeS3C4H2C6H4C6H6C2H2C2H2C2HC3H2CHC6PC18H18C2HCH2C3HPCHC2HC3H3C3HC2HCHC2HCH2C5HC4HCH5CHC3H5C2H6C2HCH2CHC2HCHC9H4CH4C9H2CHSFeS2HCHCHS2Fe2S2FeSFeHS2H3CH4C6H7CHC2H2CH4C3H4CHCH2C3HC2HCPCHC2HC2HC10H2C2HC2HC2H4CHC2H3C3HC6PC4HCHC5HCH3CH13C2HCSC6PC10HC9H2CH7SCHC2HCHC2HSFeCHC2HCH2PH2FeS2FeS2FeSFeS3FeS2FeS2FeSFeS5CHCHC7H4C6H4CHC2HC3HC4HCHC4H4CHCHC7PC18H20CHCH2CHC7HC4HCH2CHCH5CHCH2CHCHC2SC5H3CH2CHCH2CH2CPCHPCH3C7PC3H2FeHC3HCH2CHCH3SH2CH2C6HC3HCHC3H6CFeH2CH2CFeS2FeS2FeSFeS3FeS2FeS2FeSFeS2H2C7H4C6H4C2HC5H2C2PH2C3H2C6PC9H3C4HCH2C2H8CH2CHCH2C7H5CH2C2HC7PC13H14CH2C2HPC7H2C4H5C5H3CHCHCHCH2C2HCH2C3H6PH2CH2C3H2C2HCH4C4HC9HCHSHC2HC2H6CSCHC2H2CHSHSCFeS2HFeSCFeSHFeSFeSCHC2HCHCH2C2HCHCH2CHC7H4C2H2CH3CH3C2H2C3HCHC4H2CHC2HC5H3CPHCSCHCH3C3HC3HCHCHCHC2PC7H2C2HC4HS2H3CH3C4H5C2H2C2HFeH3FeSHC5FeS2FeS2FeSFeS3FeS2FeS2FeSFeS3C2S2C4HC2HC6H5C6H4C4H6C4H3C2HC6PC18H19C5HC2H2PHCH2CFeHC5HC4H4C3HCH2C2H2CH3CH2CHC4H3C4H2CH3CH2PHCHC9H3C2HC3PC4H2C12H13SH4CH2C2PHC7HC2HCHCHC2HC2H2C3HFeS2FeS2FeSFeCS2FeS2FeS2FeSFeS3CH2C2H4C7H4C2H2C6H5CHCH2CHC3H2C2HC3HC6PC2H4C5HCH5SHC2H4C5PC18H4CH11C4H5C3H2C2H2C2HC4H3CHC7H2C2HCH2PH3CHCHC7H2CHC3HC2HC2H2C3HPC2H2C2HCH2CHC5HCHC2PC2HC3H5C3HC3HC3HC2HPC3H2CHCHCHCPH3C3H3CH2C2H4C2H3C2FeS2H2C2S2FeSCFeSFeSHSHC6H4CH4CHSC2H2C2SC2H3C3HCHCH2FeH2C13PC4H2C8H7CH7CHCHCH3CH2C2H2PH3C2H2SHCH2CHC7HCHCHSCFeSHFeS2FeSFeS3FeS2FeS2FeSFeS5CHC4SH5CHC6H5C6H5C3HC8PC11H11CHCHC6PC18H19C3HFeC2H2C3HC2H2C5HCH2CHCHC2HCHCHC4HSH2CH5CHCH5C3HC2H3C2HC5H3CHCFeHCH4CPC3HCHC2HC3HC2HCHCHC3PHCH3C3HCPCHCH2C3SCHC2FeC2H3C2H4C5HCHCH2C2HFeS2FeS2FeCFeS3FeS2FeS2FeSFeS3CHC4H2C3H2C6H4C3HC4H2C6H4C6HCH2CHC2HC4HC6PC3H2C2SPH3C7H4C3H11C2H4PCHC2HC10HSC2HC3H3CH4C6PC18H22C2H3CHC2HCH2C2HCHC2PH5CHC2HC3H2C4H2CH6C2H2CHCH3SC5HCHFeSHFeSCFeSHSFeS2C2H3S2HCHCH2CH2FeCHCHC6H4C3H2SH3CH2C3H2C2HPC3H2CH4CHCH3C2H3C5HCHCH2CHC4H2C2H2CSC4HC4H2CHC7PC18PH7CH8CHCFeCSC3HC2H4CHFeH3C3FeS2FeS2FeSFeS3FeS2FeS2FeSFeS5C3H4C2H2SCHC2HCHC6H4C6H5C3HC6PC18H19C6H6C2HC6H2CHC4HCHPC2H4CH3CHC4HC2HC4H2C3HCHC2HCHFeCHCHC2H4C2HCH2CHC2PHCH2CH2CHC5H2C3H
_chemical_formula_sum              "H1152 C1440 Fe96 S192 P48"
_cell_length_a       48.6953
_cell_length_b       48.6825
_cell_length_c       49.4252
_cell_angle_alpha    86.0534
_cell_angle_beta     86.3677
_cell_angle_gamma    85.9341

_space_group_name_H-M_alt    "P 1"
_space_group_IT_number       1

loop_
  _space_group_symop_operation_xyz
  'x, y, z'

loop_
  _atom_site_type_symbol
  _atom_site_label
  _atom_site_symmetry_multiplicity
  _atom_site_fract_x
  _atom_site_fract_y
  _atom_site_fract_z
  _atom_site_occupancy
  H   H1        1.0  0.99693  0.27038  0.15520  1.0000
  C   C1        1.0  0.22219  0.31017  0.27653  1.0000
  Fe  Fe1       1.0  0.07658  0.31015  0.24510  1.0000
  S   S1        1.0  0.09020  0.32827  0.28220  1.0000
  S   S2        1.0  0.03346  0.29312  0.24933  1.0000
  Fe  Fe2       1.0  0.13534  0.31405  0.21677  1.0000
  S   S3        1.0  0.15138  0.33333  0.25222  1.0000
  S   S4        1.0  0.16215  0.30093  0.17924  1.0000
  Fe  Fe3       1.0  0.12890  0.30047  0.27757  1.0000
  P   P1        1.0  0.26063  0.23692  0.30402  1.0000
  Fe  Fe4       1.0  0.11092  0.35944  0.25317  1.0000
  S   S5        1.0  0.09874  0.40441  0.26338  1.0000
  S   S6        1.0  0.11443  0.28040  0.24217  1.0000
  S   S7        1.0  0.09584  0.34203  0.21594  1.0000
  Fe  Fe5       1.0  0.31645  0.23852  0.15083  1.0000
  S   S8        1.0  0.29401  0.21038  0.12750  1.0000
  S   S9        1.0  0.29347  0.27530  0.17080  1.0000
  Fe  Fe6       1.0  0.37147  0.20202  0.14526  1.0000
  S   S10       1.0  0.35105  0.17125  0.12232  1.0000
  S   S11       1.0  0.41635  0.18792  0.15405  1.0000
  Fe  Fe7       1.0  0.33202  0.20812  0.09837  1.0000
  S   S12       1.0  0.33714  0.21832  0.05179  1.0000
  Fe  Fe8       1.0  0.31531  0.17648  0.15362  1.0000
  S   S13       1.0  0.28846  0.14438  0.17601  1.0000
  S   S14       1.0  0.35347  0.23881  0.12063  1.0000
  S   S15       1.0  0.33672  0.20477  0.17769  1.0000
  C   C2        1.0  0.11212  0.43741  0.25494  1.0000
  C   C3        1.0  0.33539  0.24150  0.24184  1.0000
  C   C4        1.0  0.46833  0.18248  0.05611  1.0000
  C   C5        1.0  0.13575  0.44098  0.23776  1.0000
  H   H2        1.0  0.47154  0.16915  0.01490  1.0000
  H   H3        1.0  0.14680  0.42321  0.22927  1.0000
  C   C6        1.0  0.19869  0.29389  0.17746  1.0000
  C   C7        1.0  0.21077  0.27480  0.15931  1.0000
  C   C8        1.0  0.23957  0.26853  0.15742  1.0000
  C   C9        1.0  0.25688  0.28199  0.17297  1.0000
  C   C10       1.0  0.24488  0.30156  0.19067  1.0000
  C   C11       1.0  0.21598  0.30731  0.19309  1.0000
  H   H4        1.0  0.19781  0.26448  0.14687  1.0000
  H   H5        1.0  0.24836  0.25335  0.14387  1.0000
  H   H6        1.0  0.25801  0.31224  0.20269  1.0000
  H   H7        1.0  0.20711  0.32239  0.20678  1.0000
  C   C12       1.0  0.28694  0.12113  0.26859  1.0000
  C   C13       1.0  0.26570  0.11435  0.25290  1.0000
  C   C14       1.0  0.26643  0.12168  0.22471  1.0000
  C   C15       1.0  0.28808  0.13626  0.21182  1.0000
  C   C16       1.0  0.30908  0.14340  0.22756  1.0000
  C   C17       1.0  0.30858  0.13575  0.25569  1.0000
  H   H8        1.0  0.24902  0.10291  0.26234  1.0000
  H   H9        1.0  0.25027  0.11575  0.21275  1.0000
  H   H10       1.0  0.32616  0.15408  0.21789  1.0000
  H   H11       1.0  0.32523  0.14095  0.26747  1.0000
  H   H12       1.0  0.25630  0.25548  0.09441  1.0000
  H   H13       1.0  0.02363  0.26581  0.19666  1.0000
  C   C18       1.0  0.45914  0.24140  0.01428  1.0000
  C   C19       1.0  0.23858  0.28542  0.27791  1.0000
  H   H14       1.0  0.40709  0.19565  0.09200  1.0000
  H   H15       1.0  0.04080  0.38997  0.29082  1.0000
  C   C20       1.0  0.33071  0.20764  0.01887  1.0000
  C   C21       1.0  0.32041  0.18217  0.01506  1.0000
  H   H16       1.0  0.38900  0.18357  0.04887  1.0000
  H   H17       1.0  0.31703  0.16774  0.03230  1.0000
  C   C22       1.0  0.44841  0.20376  0.15079  1.0000
  C   C23       1.0  0.44999  0.23235  0.14723  1.0000
  H   H18       1.0  0.43126  0.24562  0.14614  1.0000
  C   C24       1.0  0.97708  0.29630  0.26022  1.0000
  C   C25       1.0  0.99310  0.32702  0.22307  1.0000
  C   C26       1.0  0.99918  0.30746  0.24434  1.0000
  H   H19       1.0  0.33478  0.28426  0.25043  1.0000
  H   H20       1.0  0.00975  0.33562  0.21046  1.0000
  C   C27       1.0  0.19814  0.19646  0.27627  1.0000
  H   H21       1.0  0.33106  0.19833  0.23764  1.0000
  C   C28       1.0  0.21210  0.18060  0.11734  1.0000
  C   C29       1.0  0.20130  0.15768  0.10746  1.0000
  C   C30       1.0  0.18180  0.14307  0.12345  1.0000
  C   C31       1.0  0.17341  0.15115  0.14949  1.0000
  C   C32       1.0  0.18475  0.17372  0.15977  1.0000
  C   C33       1.0  0.20356  0.18890  0.14319  1.0000
  P   P2        1.0  0.17377  0.18430  0.19320  1.0000
  C   C34       1.0  0.20103  0.20280  0.20512  1.0000
  C   C35       1.0  0.14160  0.20469  0.18908  1.0000
  C   C36       1.0  0.14173  0.23191  0.17776  1.0000
  C   C37       1.0  0.11696  0.24789  0.17473  1.0000
  C   C38       1.0  0.09184  0.23664  0.18240  1.0000
  C   C39       1.0  0.09141  0.20910  0.19232  1.0000
  C   C40       1.0  0.11617  0.19303  0.19525  1.0000
  C   C41       1.0  0.22828  0.19110  0.20333  1.0000
  C   C42       1.0  0.24999  0.20568  0.21083  1.0000
  C   C43       1.0  0.24466  0.23186  0.22054  1.0000
  C   C44       1.0  0.21752  0.24322  0.22329  1.0000
  C   C45       1.0  0.19573  0.22875  0.21576  1.0000
  C   C46       1.0  0.17048  0.15466  0.21699  1.0000
  C   C47       1.0  0.15211  0.15601  0.24004  1.0000
  C   C48       1.0  0.14982  0.13304  0.25849  1.0000
  C   C49       1.0  0.16669  0.10900  0.25469  1.0000
  C   C50       1.0  0.18575  0.10787  0.23237  1.0000
  C   C51       1.0  0.18764  0.13057  0.21357  1.0000
  H   H22       1.0  0.22727  0.19195  0.10515  1.0000
  H   H23       1.0  0.17341  0.12531  0.11577  1.0000
  H   H24       1.0  0.15831  0.13966  0.16170  1.0000
  H   H25       1.0  0.21201  0.20696  0.15024  1.0000
  H   H26       1.0  0.16097  0.24100  0.17163  1.0000
  H   H27       1.0  0.11733  0.26923  0.16690  1.0000
  H   H28       1.0  0.07276  0.24932  0.18062  1.0000
  H   H29       1.0  0.07188  0.20028  0.19790  1.0000
  H   H30       1.0  0.11530  0.17157  0.20230  1.0000
  H   H31       1.0  0.23296  0.17098  0.19545  1.0000
  H   H32       1.0  0.27102  0.19684  0.20861  1.0000
  H   H33       1.0  0.26164  0.24347  0.22550  1.0000
  H   H34       1.0  0.21323  0.26339  0.23109  1.0000
  H   H35       1.0  0.17496  0.23803  0.21837  1.0000
  H   H36       1.0  0.13998  0.17496  0.24415  1.0000
  H   H37       1.0  0.19944  0.08954  0.22989  1.0000
  H   H38       1.0  0.20290  0.12946  0.19667  1.0000
  H   H39       1.0  0.18195  0.30686  0.09459  1.0000
  C   C52       1.0  0.42939  0.17550  0.02936  1.0000
  C   C53       1.0  0.41108  0.18318  0.05087  1.0000
  H   H40       1.0  0.41885  0.20517  0.21567  1.0000
  C   C54       1.0  0.09812  0.46094  0.26570  1.0000
  H   H41       1.0  0.12021  0.18225  0.30023  1.0000
  H   H42       1.0  0.44143  0.24074  0.23844  1.0000
  C   C55       1.0  0.20664  0.27926  0.06905  1.0000
  C   C56       1.0  0.24156  0.15881  0.03454  1.0000
  C   C57       1.0  0.23811  0.25075  0.00456  1.0000
  H   H43       1.0  0.22001  0.32182  0.25719  1.0000
  P   P3        1.0  0.24197  0.24240  0.04032  1.0000
  C   C58       1.0  0.02115  0.39922  0.28429  1.0000
  H   H44       1.0  0.11821  0.23325  0.29159  1.0000
  C   C59       1.0  0.26002  0.14820  0.05379  1.0000
  C   C60       1.0  0.31058  0.28649  0.04252  1.0000
  H   H45       1.0  0.28003  0.20822  0.07449  1.0000
  C   C61       1.0  0.45389  0.17578  0.21746  1.0000
  C   C62       1.0  0.23615  0.18736  0.03039  1.0000
  C   C63       1.0  0.29217  0.27872  0.08882  1.0000
  H   H46       1.0  0.28930  0.26932  0.01178  1.0000
  H   H47       1.0  0.32623  0.29456  0.02821  1.0000
  H   H48       1.0  0.04314  0.38774  0.18101  1.0000
  C   C64       1.0  0.42126  0.19015  0.07509  1.0000
  C   C65       1.0  0.44969  0.18961  0.07776  1.0000
  C   C66       1.0  0.19239  0.23248  0.07034  1.0000
  H   H49       1.0  0.29163  0.19531  0.27047  1.0000
  C   C67       1.0  0.26852  0.19469  0.06390  1.0000
  C   C68       1.0  0.24959  0.20554  0.04515  1.0000
  H   H50       1.0  0.13590  0.13432  0.27644  1.0000
  C   C69       1.0  0.31193  0.28977  0.07028  1.0000
  H   H51       1.0  0.22072  0.29484  0.06198  1.0000
  C   C70       1.0  0.27330  0.16616  0.06865  1.0000
  C   C71       1.0  0.27121  0.26417  0.07967  1.0000
  H   H52       1.0  0.28806  0.15806  0.08323  1.0000
  C   C72       1.0  0.20672  0.16882  0.28177  1.0000
  H   H53       1.0  0.17869  0.20185  0.26720  1.0000
  H   H54       1.0  0.23162  0.14491  0.02265  1.0000
  C   C73       1.0  0.26971  0.26068  0.05182  1.0000
  C   C74       1.0  0.32330  0.21648  0.24792  1.0000
  C   C75       1.0  0.24097  0.26986  0.30279  1.0000
  C   C76       1.0  0.98839  0.26021  0.17370  1.0000
  C   C77       1.0  0.18465  0.28620  0.08747  1.0000
  H   H55       1.0  0.43182  0.25599  0.04706  1.0000
  C   C78       1.0  0.99066  0.41271  0.24807  1.0000
  C   C79       1.0  0.05930  0.42110  0.20002  1.0000
  C   C80       1.0  0.31464  0.17515  0.98882  1.0000
  C   C81       1.0  0.04046  0.40946  0.18483  1.0000
  H   H56       1.0  0.19455  0.33828  0.29867  1.0000
  C   C82       1.0  0.17035  0.23953  0.08870  1.0000
  H   H57       1.0  0.19422  0.15264  0.27702  1.0000
  H   H58       1.0  0.24897  0.27828  0.25944  1.0000
  H   H59       1.0  0.07999  0.45844  0.27915  1.0000
  H   H60       1.0  0.00299  0.41654  0.16381  1.0000
  H   H61       1.0  0.44399  0.16057  0.20708  1.0000
  C   C83       1.0  0.32551  0.26481  0.25534  1.0000
  H   H62       1.0  0.98696  0.41340  0.22669  1.0000
  C   C84       1.0  0.33621  0.22545  0.99571  1.0000
  C   C85       1.0  0.00117  0.40946  0.30324  1.0000
  C   C86       1.0  0.01792  0.42572  0.17514  1.0000
  H   H63       1.0  0.20651  0.23850  0.27984  1.0000
  H   H64       1.0  0.06997  0.45700  0.21826  1.0000
  H   H65       1.0  0.29328  0.28114  0.11038  1.0000
  H   H66       1.0  0.42145  0.16982  0.01072  1.0000
  H   H67       1.0  0.15645  0.22408  0.09658  1.0000
  C   C87       1.0  0.01575  0.40055  0.25682  1.0000
  C   C88       1.0  0.30082  0.21487  0.26684  1.0000
  H   H68       1.0  0.00434  0.24264  0.23887  1.0000
  H   H69       1.0  0.19507  0.21153  0.06422  1.0000
  H   H70       1.0  0.34420  0.24521  0.99823  1.0000
  H   H71       1.0  0.07652  0.40844  0.20814  1.0000
  H   H72       1.0  0.99675  0.46556  0.17273  1.0000
  H   H73       1.0  0.38967  0.25521  0.02153  1.0000
  C   C89       1.0  0.43963  0.20102  0.22232  1.0000
  C   C90       1.0  0.45243  0.22105  0.23500  1.0000
  H   H74       1.0  0.29611  0.28146  0.28502  1.0000
  C   C91       1.0  0.16664  0.26630  0.09747  1.0000
  H   H75       1.0  0.20808  0.15121  0.08746  1.0000
  H   H76       1.0  0.15006  0.27163  0.11229  1.0000
  C   C92       1.0  0.21116  0.25212  0.06091  1.0000
  H   H77       1.0  0.35223  0.24285  0.22648  1.0000
  C   C93       1.0  0.43341  0.24947  0.02645  1.0000
  C   C94       1.0  0.40968  0.24907  0.01205  1.0000
  H   H78       1.0  0.27179  0.22207  0.99191  1.0000
  C   C95       1.0  0.28956  0.27202  0.03328  1.0000
  H   H79       1.0  0.16560  0.09154  0.26945  1.0000
  C   C96       1.0  0.21415  0.21723  0.28341  1.0000
  C   C97       1.0  0.03369  0.46583  0.19505  1.0000
  C   C98       1.0  0.99257  0.24444  0.22084  1.0000
  C   C99       1.0  0.00357  0.25742  0.19691  1.0000
  C   C100      1.0  0.21795  0.27075  0.99555  1.0000
  C   C101      1.0  0.45789  0.17513  0.03191  1.0000
  C   C102      1.0  0.23113  0.16191  0.29448  1.0000
  C   C103      1.0  0.29044  0.23830  0.28025  1.0000
  C   C104      1.0  0.30339  0.26316  0.27474  1.0000
  H   H80       1.0  0.03111  0.39185  0.24246  1.0000
  H   H81       1.0  0.32849  0.30051  0.07750  1.0000
  H   H82       1.0  0.20419  0.28153  0.00993  1.0000
  H   H83       1.0  0.23728  0.14050  0.29915  1.0000
  C   C105      1.0  0.01452  0.45374  0.18021  1.0000
  H   H84       1.0  0.30622  0.15555  0.98638  1.0000
  H   H85       1.0  0.22168  0.19525  0.01550  1.0000
  H   H86       1.0  0.45713  0.19418  0.09699  1.0000
  H   H87       1.0  0.26439  0.12611  0.05692  1.0000
  C   C106      1.0  0.24752  0.18248  0.30118  1.0000
  C   C107      1.0  0.97588  0.42125  0.29466  1.0000
  C   C108      1.0  0.05573  0.44896  0.20543  1.0000
  C   C109      1.0  0.25586  0.23733  0.98538  1.0000
  C   C110      1.0  0.46110  0.23194  0.98809  1.0000
  C   C111      1.0  0.41170  0.24062  0.98547  1.0000
  C   C112      1.0  0.47309  0.18690  0.15225  1.0000
  C   C113      1.0  0.23934  0.21039  0.29531  1.0000
  C   C114      1.0  0.13307  0.22310  0.30497  1.0000
  H   H88       1.0  0.98145  0.28114  0.27670  1.0000
  H   H89       1.0  0.01993  0.46543  0.25013  1.0000
  C   C115      1.0  0.20795  0.31953  0.29991  1.0000
  H   H90       1.0  0.47211  0.16478  0.15510  1.0000
  S   S16       1.0  0.28772  0.11115  0.30405  1.0000
  Fe  Fe9       1.0  0.24113  0.10790  0.59432  1.0000
  S   S17       1.0  0.20430  0.08469  0.60962  1.0000
  S   S18       1.0  0.25136  0.12399  0.55022  1.0000
  H   H91       1.0  0.32579  0.03477  0.34354  1.0000
  C   C116      1.0  0.06044  0.18083  0.37003  1.0000
  H   H92       1.0  0.26399  0.18340  0.54168  1.0000
  C   C117      1.0  0.22641  0.18874  0.52080  1.0000
  H   H93       1.0  0.33789  0.03428  0.39162  1.0000
  S   S19       1.0  0.27085  0.08305  0.62095  1.0000
  S   S20       1.0  0.23352  0.13999  0.62518  1.0000
  Fe  Fe10      1.0  0.25042  0.09751  0.33097  1.0000
  Fe  Fe11      1.0  0.22728  0.08893  0.39073  1.0000
  S   S21       1.0  0.18636  0.08000  0.37583  1.0000
  S   S22       1.0  0.22797  0.07672  0.43659  1.0000
  Fe  Fe12      1.0  0.21022  0.05243  0.34664  1.0000
  S   S23       1.0  0.19237  0.00984  0.34836  1.0000
  Fe  Fe13      1.0  0.19121  0.11525  0.34462  1.0000
  H   H94       1.0  0.26575  0.01783  0.45297  1.0000
  S   S24       1.0  0.25104  0.06086  0.36188  1.0000
  S   S25       1.0  0.23038  0.12673  0.36139  1.0000
  H   H95       1.0  0.26659  0.17647  0.31085  1.0000
  H   H96       1.0  0.19831  0.14007  0.51363  1.0000
  H   H97       1.0  0.31203  0.24314  0.33067  1.0000
  C   C118      1.0  0.23009  0.97122  0.32484  1.0000
  H   H98       1.0  0.12722  0.00777  0.36325  1.0000
  H   H99       1.0  0.20922  0.00766  0.47954  1.0000
  H   H100      1.0  0.24915  0.19878  0.62589  1.0000
  H   H101      1.0  0.00010  0.03766  0.45436  1.0000
  C   C119      1.0  0.24629  0.10937  0.51892  1.0000
  C   C120      1.0  0.25517  0.12331  0.49431  1.0000
  C   C121      1.0  0.24999  0.11360  0.46896  1.0000
  C   C122      1.0  0.23572  0.08982  0.46784  1.0000
  C   C123      1.0  0.22720  0.07563  0.49241  1.0000
  C   C124      1.0  0.23239  0.08532  0.51777  1.0000
  H   H102      1.0  0.26612  0.14179  0.49485  1.0000
  H   H103      1.0  0.25704  0.12453  0.45029  1.0000
  H   H104      1.0  0.21634  0.05707  0.49187  1.0000
  H   H105      1.0  0.22548  0.07428  0.53644  1.0000
  H   H106      1.0  0.32693  0.22853  0.37651  1.0000
  H   H107      1.0  0.24043  0.98855  0.31514  1.0000
  H   H108      1.0  0.23493  0.01779  0.41013  1.0000
  C   C125      1.0  0.08859  0.17365  0.37162  1.0000
  H   H109      1.0  0.04861  0.06286  0.38257  1.0000
  C   C126      1.0  0.13091  0.04300  0.33496  1.0000
  C   C127      1.0  0.17391  0.18270  0.45997  1.0000
  H   H110      1.0  0.03481  0.12104  0.39659  1.0000
  H   H111      1.0  0.05360  0.20106  0.36139  1.0000
  C   C128      1.0  0.14284  0.28394  0.50565  1.0000
  H   H112      1.0  0.21477  0.17882  0.53757  1.0000
  H   H113      1.0  0.13546  0.20643  0.45240  1.0000
  H   H114      1.0  0.00942  0.03848  0.40437  1.0000
  H   H115      1.0  0.01935  0.16740  0.37792  1.0000
  C   C129      1.0  0.28020  0.23201  0.57036  1.0000
  C   C130      1.0  0.25796  0.21381  0.47804  1.0000
  C   C131      1.0  0.17818  0.14445  0.52346  1.0000
  H   H116      1.0  0.20986  0.15411  0.46214  1.0000
  H   H117      1.0  0.17992  0.10627  0.54824  1.0000
  H   H118      1.0  0.15893  0.22357  0.54152  1.0000
  H   H119      1.0  0.14045  0.27120  0.54833  1.0000
  C   C132      1.0  0.16762  0.12507  0.54282  1.0000
  H   H120      1.0  0.20455  0.13531  0.41798  1.0000
  C   C133      1.0  0.15042  0.27597  0.47943  1.0000
  H   H121      1.0  0.31383  0.00509  0.42694  1.0000
  H   H122      1.0  0.10537  0.15821  0.55824  1.0000
  C   C134      1.0  0.16316  0.16952  0.51731  1.0000
  C   C135      1.0  0.25443  0.19170  0.52335  1.0000
  C   C136      1.0  0.12574  0.15444  0.54851  1.0000
  H   H123      1.0  0.15941  0.02109  0.48734  1.0000
  C   C137      1.0  0.30706  0.19018  0.58442  1.0000
  C   C138      1.0  0.21401  0.19790  0.49667  1.0000
  H   H124      1.0  0.27024  0.22339  0.46143  1.0000
  C   C139      1.0  0.16282  0.22937  0.49763  1.0000
  P   P4        1.0  0.17772  0.19485  0.49310  1.0000
  C   C140      1.0  0.16071  0.24888  0.47543  1.0000
  H   H125      1.0  0.14156  0.03109  0.31923  1.0000
  C   C141      1.0  0.14150  0.13017  0.55556  1.0000
  C   C142      1.0  0.20686  0.97593  0.34245  1.0000
  H   H126      1.0  0.13493  0.30496  0.50875  1.0000
  C   C143      1.0  0.15085  0.23887  0.31761  1.0000
  C   C144      1.0  0.16808  0.16139  0.40944  1.0000
  H   H127      1.0  0.18354  0.23733  0.34519  1.0000
  C   C145      1.0  0.26420  0.20316  0.60928  1.0000
  C   C146      1.0  0.20806  0.28732  0.63194  1.0000
  C   C147      1.0  0.28029  0.98966  0.37195  1.0000
  C   C148      1.0  0.30635  0.22474  0.37118  1.0000
  C   C149      1.0  0.28854  0.21117  0.39010  1.0000
  C   C150      1.0  0.26206  0.20614  0.38315  1.0000
  C   C151      1.0  0.25347  0.21445  0.35721  1.0000
  C   C152      1.0  0.27149  0.22750  0.33786  1.0000
  C   C153      1.0  0.29785  0.23297  0.34516  1.0000
  C   C154      1.0  0.29457  0.00565  0.35192  1.0000
  H   H128      1.0  0.00527  0.40797  0.32460  1.0000
  H   H129      1.0  0.22735  0.26748  0.34542  1.0000
  C   C155      1.0  0.22911  0.26713  0.62547  1.0000
  C   C156      1.0  0.27176  0.00076  0.46715  1.0000
  H   H130      1.0  0.13356  0.11532  0.57095  1.0000
  C   C157      1.0  0.22147  0.00128  0.41576  1.0000
  C   C158      1.0  0.19294  0.00711  0.41608  1.0000
  H   H131      1.0  0.13164  0.18898  0.40711  1.0000
  C   C159      1.0  0.19545  0.99293  0.48932  1.0000
  C   C160      1.0  0.21021  0.30420  0.32472  1.0000
  H   H132      1.0  0.29538  0.20429  0.41003  1.0000
  H   H133      1.0  0.24831  0.19536  0.39766  1.0000
  H   H134      1.0  0.23295  0.21021  0.35206  1.0000
  H   H135      1.0  0.14847  0.29086  0.46219  1.0000
  C   C161      1.0  0.28740  0.18489  0.60559  1.0000
  H   H136      1.0  0.18671  0.18614  0.35259  1.0000
  C   C162      1.0  0.23233  0.97438  0.42245  1.0000
  C   C163      1.0  0.30371  0.21397  0.56709  1.0000
  H   H137      1.0  0.19146  0.29271  0.61873  1.0000
  H   H138      1.0  0.27171  0.02690  0.50065  1.0000
  H   H139      1.0  0.16727  0.24339  0.45505  1.0000
  C   C164      1.0  0.18996  0.15150  0.42511  1.0000
  C   C165      1.0  0.04118  0.16181  0.37926  1.0000
  C   C166      1.0  0.15599  0.23781  0.52397  1.0000
  H   H140      1.0  0.29208  0.20590  0.50391  1.0000
  C   C167      1.0  0.21722  0.28181  0.51785  1.0000
  C   C168      1.0  0.22411  0.30906  0.51906  1.0000
  C   C169      1.0  0.23243  0.31805  0.54334  1.0000
  C   C170      1.0  0.23370  0.29987  0.56649  1.0000
  C   C171      1.0  0.22616  0.27265  0.56557  1.0000
  C   C172      1.0  0.21832  0.26365  0.54099  1.0000
  P   P5        1.0  0.22860  0.24849  0.59481  1.0000
  C   C173      1.0  0.19871  0.22798  0.59520  1.0000
  C   C174      1.0  0.25998  0.22642  0.59120  1.0000
  C   C175      1.0  0.14868  0.18144  0.41925  1.0000
  C   C176      1.0  0.17155  0.19629  0.33958  1.0000
  H   H141      1.0  0.12383  0.19257  0.52403  1.0000
  C   C177      1.0  0.31520  0.02188  0.35904  1.0000
  H   H142      1.0  0.29009  0.16646  0.61914  1.0000
  C   C178      1.0  0.17188  0.23993  0.60031  1.0000
  C   C179      1.0  0.14906  0.22389  0.60138  1.0000
  C   C180      1.0  0.15265  0.19588  0.59670  1.0000
  C   C181      1.0  0.17896  0.18409  0.59015  1.0000
  C   C182      1.0  0.20181  0.20005  0.58915  1.0000
  H   H143      1.0  0.10355  0.18819  0.36394  1.0000
  C   C183      1.0  0.27491  0.00598  0.49422  1.0000
  H   H144      1.0  0.32488  0.17579  0.58153  1.0000
  H   H145      1.0  0.31914  0.21814  0.55085  1.0000
  H   H146      1.0  0.19830  0.31102  0.34256  1.0000
  C   C184      1.0  0.13642  0.17400  0.52931  1.0000
  H   H147      1.0  0.21100  0.27472  0.49900  1.0000
  H   H148      1.0  0.22315  0.32320  0.50116  1.0000
  H   H149      1.0  0.23796  0.33914  0.54423  1.0000
  H   H150      1.0  0.24059  0.30713  0.58498  1.0000
  H   H151      1.0  0.21314  0.24255  0.53970  1.0000
  H   H152      1.0  0.27781  0.25003  0.55643  1.0000
  H   H153      1.0  0.15302  0.99066  0.42245  1.0000
  H   H154      1.0  0.22071  0.21820  0.45664  1.0000
  H   H155      1.0  0.16825  0.26132  0.60445  1.0000
  H   H156      1.0  0.12874  0.23292  0.60720  1.0000
  H   H157      1.0  0.13522  0.18310  0.59905  1.0000
  H   H158      1.0  0.18181  0.16222  0.58694  1.0000
  H   H159      1.0  0.22179  0.19009  0.58401  1.0000
  C   C185      1.0  0.16977  0.22531  0.33528  1.0000
  C   C186      1.0  0.30791  0.00536  0.40620  1.0000
  H   H160      1.0  0.28924  0.00587  0.33093  1.0000
  C   C187      1.0  0.32188  0.02171  0.38616  1.0000
  S   S26       1.0  0.15434  0.14406  0.33236  1.0000
  C   C188      1.0  0.04493  0.06251  0.40445  1.0000
  C   C189      1.0  0.01738  0.04832  0.44486  1.0000
  C   C190      1.0  0.03435  0.06170  0.46076  1.0000
  C   C191      1.0  0.05667  0.07546  0.44857  1.0000
  C   C192      1.0  0.06229  0.07570  0.42032  1.0000
  C   C193      1.0  0.12279  0.02984  0.35989  1.0000
  P   P6        1.0  0.09054  0.09397  0.40413  1.0000
  C   C194      1.0  0.02265  0.04876  0.41672  1.0000
  C   C195      1.0  0.11594  0.09718  0.42876  1.0000
  C   C196      1.0  0.11346  0.11958  0.44547  1.0000
  C   C197      1.0  0.13252  0.12173  0.46513  1.0000
  C   C198      1.0  0.15425  0.10165  0.46821  1.0000
  C   C199      1.0  0.15672  0.07925  0.45186  1.0000
  C   C200      1.0  0.13772  0.07698  0.43223  1.0000
  C   C201      1.0  0.07839  0.12811  0.39140  1.0000
  C   C202      1.0  0.27024  0.20415  0.50200  1.0000
  C   C203      1.0  0.12617  0.07153  0.33067  1.0000
  H   H161      1.0  0.26420  0.97737  0.36618  1.0000
  C   C204      1.0  0.22660  0.27941  0.32619  1.0000
  C   C205      1.0  0.10575  0.07406  0.37669  1.0000
  C   C206      1.0  0.09751  0.14750  0.38248  1.0000
  C   C207      1.0  0.22832  0.98170  0.63924  1.0000
  C   C208      1.0  0.14962  0.98125  0.50581  1.0000
  C   C209      1.0  0.19290  0.16215  0.45020  1.0000
  C   C210      1.0  0.11010  0.04524  0.38064  1.0000
  C   C211      1.0  0.05008  0.13550  0.38986  1.0000
  C   C212      1.0  0.22993  0.21074  0.47537  1.0000
  H   H162      1.0  0.03017  0.06145  0.48258  1.0000
  H   H163      1.0  0.06944  0.08578  0.46126  1.0000
  C   C213      1.0  0.11346  0.08698  0.35133  1.0000
  H   H164      1.0  0.09674  0.13533  0.44339  1.0000
  H   H165      1.0  0.13063  0.13908  0.47786  1.0000
  H   H166      1.0  0.16939  0.10348  0.48304  1.0000
  H   H167      1.0  0.17371  0.06380  0.45408  1.0000
  H   H168      1.0  0.14047  0.05958  0.41971  1.0000
  H   H169      1.0  0.11941  0.14202  0.38311  1.0000
  H   H170      1.0  0.11014  0.10898  0.34732  1.0000
  S   S27       1.0  0.14983  0.27543  0.31244  1.0000
  C   C214      1.0  0.15378  0.18055  0.32687  1.0000
  H   H171      1.0  0.33581  0.20210  0.63109  1.0000
  C   C215      1.0  0.17507  0.98620  0.42301  1.0000
  C   C216      1.0  0.16737  0.00044  0.49357  1.0000
  H   H172      1.0  0.18482  0.02773  0.41009  1.0000
  C   C217      1.0  0.15118  0.19163  0.44474  1.0000
  H   H173      1.0  0.10428  0.03471  0.39994  1.0000
  C   C218      1.0  0.14581  0.26491  0.52793  1.0000
  C   C219      1.0  0.28673  0.98950  0.39923  1.0000
  H   H174      1.0  0.16609  0.15328  0.38982  1.0000
  S   S28       1.0  0.21108  0.08702  0.31369  1.0000
  Fe  Fe14      1.0  0.23364  0.06052  0.63762  1.0000
  C   C220      1.0  0.27590  0.97375  0.45859  1.0000
  H   H175      1.0  0.28419  0.98831  0.53407  1.0000
  C   C221      1.0  0.28192  0.98425  0.51304  1.0000
  C   C222      1.0  0.20163  0.98050  0.63056  1.0000
  H   H176      1.0  0.12784  0.98706  0.50912  1.0000
  C   C223      1.0  0.13427  0.19416  0.30991  1.0000
  H   H177      1.0  0.18932  0.99944  0.62608  1.0000
  H   H178      1.0  0.26834  0.24789  0.63812  1.0000
  P   P7        1.0  0.26903  0.96726  0.42418  1.0000
  H   H179      1.0  0.36795  0.23679  0.64130  1.0000
  H   H180      1.0  0.13291  0.08183  0.31154  1.0000
  Fe  Fe15      1.0  0.11478  0.35037  0.72622  1.0000
  S   S29       1.0  0.09981  0.33428  0.76797  1.0000
  S   S30       1.0  0.10863  0.39604  0.71123  1.0000
  Fe  Fe16      1.0  0.12724  0.29137  0.70750  1.0000
  S   S31       1.0  0.11276  0.27206  0.74783  1.0000
  S   S32       1.0  0.14751  0.26740  0.67249  1.0000
  Fe  Fe17      1.0  0.07690  0.30423  0.74682  1.0000
  S   S33       1.0  0.03374  0.29263  0.76390  1.0000
  Fe  Fe18      1.0  0.13684  0.30358  0.76562  1.0000
  S   S34       1.0  0.16104  0.28717  0.80230  1.0000
  S   S35       1.0  0.08992  0.32158  0.70498  1.0000
  S   S36       1.0  0.15330  0.32155  0.72515  1.0000
  Fe  Fe19      1.0  0.37014  0.20627  0.84538  1.0000
  S   S37       1.0  0.34956  0.16807  0.86233  1.0000
  S   S38       1.0  0.41747  0.19801  0.84008  1.0000
  Fe  Fe20      1.0  0.31303  0.23767  0.83934  1.0000
  S   S39       1.0  0.29018  0.20155  0.85680  1.0000
  S   S40       1.0  0.29060  0.27697  0.82109  1.0000
  Fe  Fe21      1.0  0.32241  0.19664  0.88826  1.0000
  S   S41       1.0  0.31163  0.18282  0.93317  1.0000
  Fe  Fe22      1.0  0.31951  0.17657  0.82933  1.0000
  S   S42       1.0  0.30246  0.14384  0.80444  1.0000
  S   S43       1.0  0.34374  0.23461  0.87244  1.0000
  S   S44       1.0  0.34148  0.21279  0.81105  1.0000
  S   S45       1.0  0.22458  0.08915  0.67198  1.0000
  S   S46       1.0  0.29065  0.13532  0.67626  1.0000
  C   C224      1.0  0.02265  0.43699  0.81054  1.0000
  H   H181      1.0  0.35534  0.20848  0.72926  1.0000
  C   C225      1.0  0.28852  0.24633  0.74725  1.0000
  H   H182      1.0  0.33538  0.23214  0.95183  1.0000
  C   C226      1.0  0.26253  0.26035  0.74445  1.0000
  C   C227      1.0  0.29929  0.14216  0.76865  1.0000
  C   C228      1.0  0.31649  0.15585  0.74916  1.0000
  C   C229      1.0  0.31362  0.15342  0.72113  1.0000
  C   C230      1.0  0.29362  0.13719  0.71204  1.0000
  C   C231      1.0  0.27661  0.12327  0.73152  1.0000
  C   C232      1.0  0.27958  0.12562  0.75956  1.0000
  H   H183      1.0  0.33253  0.16764  0.75572  1.0000
  H   H184      1.0  0.32730  0.16386  0.70640  1.0000
  H   H185      1.0  0.26134  0.11044  0.72501  1.0000
  H   H186      1.0  0.26666  0.11430  0.77432  1.0000
  C   C233      1.0  0.19719  0.28489  0.80672  1.0000
  C   C234      1.0  0.20808  0.26422  0.82507  1.0000
  C   C235      1.0  0.23655  0.26132  0.82937  1.0000
  C   C236      1.0  0.25450  0.27970  0.81598  1.0000
  C   C237      1.0  0.24343  0.30112  0.79839  1.0000
  C   C238      1.0  0.21504  0.30347  0.79344  1.0000
  H   H187      1.0  0.19435  0.25024  0.83587  1.0000
  H   H188      1.0  0.24453  0.24500  0.84324  1.0000
  H   H189      1.0  0.25688  0.31584  0.78836  1.0000
  H   H190      1.0  0.20691  0.31985  0.77968  1.0000
  C   C239      1.0  0.34540  0.24744  0.67848  1.0000
  H   H191      1.0  0.20004  0.29254  0.96072  1.0000
  C   C240      1.0  0.98858  0.24584  0.71022  1.0000
  C   C241      1.0  0.15075  0.23085  0.67177  1.0000
  H   H192      1.0  0.26868  0.19251  0.79017  1.0000
  C   C242      1.0  0.30009  0.35315  0.71691  1.0000
  C   C243      1.0  0.26703  0.21140  0.77730  1.0000
  C   C244      1.0  0.00292  0.35305  0.81389  1.0000
  H   H193      1.0  0.43798  0.32018  0.91147  1.0000
  C   C245      1.0  0.12256  0.42674  0.72048  1.0000
  C   C246      1.0  0.14510  0.42623  0.73674  1.0000
  C   C247      1.0  0.00256  0.45467  0.79795  1.0000
  C   C248      1.0  0.45956  0.11591  0.75342  1.0000
  H   H194      1.0  0.15455  0.40664  0.74424  1.0000
  C   C249      1.0  0.33113  0.21813  0.96931  1.0000
  H   H195      1.0  0.43262  0.25593  0.83195  1.0000
  C   C250      1.0  0.25341  0.24364  0.95760  1.0000
  C   C251      1.0  0.99660  0.32006  0.72877  1.0000
  C   C252      1.0  0.00032  0.30308  0.75240  1.0000
  C   C253      1.0  0.46825  0.16119  0.78284  1.0000
  H   H196      1.0  0.11297  0.17408  0.67631  1.0000
  H   H197      1.0  0.39278  0.27227  0.78952  1.0000
  H   H198      1.0  0.01444  0.32724  0.71691  1.0000
  H   H199      1.0  0.37301  0.13263  0.92151  1.0000
  C   C254      1.0  0.31272  0.29593  0.72346  1.0000
  H   H200      1.0  0.28708  0.21761  0.70415  1.0000
  C   C255      1.0  0.23327  0.26351  0.94872  1.0000
  H   H201      1.0  0.39040  0.27203  0.86455  1.0000
  C   C256      1.0  0.43722  0.13004  0.76676  1.0000
  C   C257      1.0  0.16465  0.08343  0.77048  1.0000
  C   C258      1.0  0.16407  0.07882  0.74292  1.0000
  C   C259      1.0  0.16542  0.10095  0.72344  1.0000
  C   C260      1.0  0.16789  0.12762  0.73141  1.0000
  C   C261      1.0  0.16944  0.13228  0.75898  1.0000
  C   C262      1.0  0.16698  0.11013  0.77854  1.0000
  P   P8        1.0  0.17230  0.16677  0.76923  1.0000
  C   C263      1.0  0.19198  0.16634  0.79904  1.0000
  C   C264      1.0  0.19249  0.18566  0.74343  1.0000
  C   C265      1.0  0.21603  0.17256  0.73081  1.0000
  C   C266      1.0  0.23204  0.18699  0.71098  1.0000
  C   C267      1.0  0.22488  0.21467  0.70387  1.0000
  C   C268      1.0  0.20171  0.22802  0.71661  1.0000
  C   C269      1.0  0.18572  0.21369  0.73659  1.0000
  C   C270      1.0  0.18749  0.18732  0.81729  1.0000
  C   C271      1.0  0.20395  0.18748  0.83949  1.0000
  C   C272      1.0  0.22538  0.16720  0.84323  1.0000
  C   C273      1.0  0.23043  0.14675  0.82475  1.0000
  C   C274      1.0  0.21397  0.14641  0.80264  1.0000
  C   C275      1.0  0.13747  0.18191  0.77323  1.0000
  C   C276      1.0  0.12355  0.19170  0.75012  1.0000
  C   C277      1.0  0.09674  0.20393  0.75276  1.0000
  C   C278      1.0  0.08350  0.20616  0.77850  1.0000
  C   C279      1.0  0.09677  0.19534  0.80156  1.0000
  C   C280      1.0  0.12353  0.18288  0.79893  1.0000
  H   H202      1.0  0.16338  0.06629  0.78558  1.0000
  H   H203      1.0  0.16250  0.05813  0.73659  1.0000
  H   H204      1.0  0.16465  0.09748  0.70207  1.0000
  H   H205      1.0  0.16876  0.14449  0.71595  1.0000
  H   H206      1.0  0.16713  0.11343  0.79997  1.0000
  H   H207      1.0  0.22199  0.15112  0.73617  1.0000
  H   H208      1.0  0.24987  0.17658  0.70100  1.0000
  H   H209      1.0  0.23702  0.22560  0.68822  1.0000
  H   H210      1.0  0.19592  0.24944  0.71083  1.0000
  H   H211      1.0  0.16822  0.22462  0.74661  1.0000
  H   H212      1.0  0.17197  0.20409  0.81394  1.0000
  H   H213      1.0  0.20056  0.20368  0.85353  1.0000
  H   H214      1.0  0.23850  0.16762  0.86010  1.0000
  H   H215      1.0  0.24761  0.13151  0.82721  1.0000
  H   H216      1.0  0.21887  0.13091  0.78808  1.0000
  H   H217      1.0  0.13361  0.19021  0.73007  1.0000
  H   H218      1.0  0.08650  0.21222  0.73484  1.0000
  H   H219      1.0  0.06304  0.21640  0.78055  1.0000
  H   H220      1.0  0.08640  0.19685  0.82149  1.0000
  H   H221      1.0  0.13326  0.17419  0.81695  1.0000
  C   C281      1.0  0.29818  0.33965  0.74275  1.0000
  H   H222      1.0  0.06372  0.39103  0.75129  1.0000
  C   C282      1.0  0.97680  0.29369  0.76737  1.0000
  H   H223      1.0  0.99068  0.44757  0.78248  1.0000
  H   H224      1.0  0.45613  0.09826  0.74215  1.0000
  C   C283      1.0  0.40366  0.27341  0.88113  1.0000
  H   H225      1.0  0.22964  0.30648  0.69161  1.0000
  C   C284      1.0  0.42229  0.17891  0.91020  1.0000
  C   C285      1.0  0.98237  0.22058  0.75381  1.0000
  C   C286      1.0  0.43834  0.27678  0.92350  1.0000
  C   C287      1.0  0.44902  0.21447  0.84141  1.0000
  C   C288      1.0  0.36352  0.22293  0.74186  1.0000
  C   C289      1.0  0.40604  0.15738  0.90556  1.0000
  C   C290      1.0  0.44160  0.15265  0.78150  1.0000
  H   H226      1.0  0.00818  0.44861  0.72234  1.0000
  C   C291      1.0  0.03792  0.44714  0.83045  1.0000
  C   C292      1.0  0.42901  0.25109  0.91833  1.0000
  C   C293      1.0  0.38792  0.21515  0.75473  1.0000
  C   C294      1.0  0.34957  0.24882  0.74575  1.0000
  H   H227      1.0  0.19334  0.23046  0.65734  1.0000
  C   C295      1.0  0.12816  0.21468  0.67732  1.0000
  H   H228      1.0  0.42437  0.16334  0.79229  1.0000
  H   H229      1.0  0.29509  0.37520  0.71443  1.0000
  C   C296      1.0  0.41849  0.19251  0.93444  1.0000
  H   H230      1.0  0.31008  0.21018  0.76555  1.0000
  C   C297      1.0  0.41314  0.29883  0.88633  1.0000
  H   H231      1.0  0.97698  0.40106  0.77527  1.0000
  H   H232      1.0  0.40711  0.31716  0.87385  1.0000
  H   H233      1.0  0.35009  0.28641  0.76687  1.0000
  H   H234      1.0  0.40845  0.14784  0.88629  1.0000
  H   H235      1.0  0.22331  0.21801  0.78556  1.0000
  C   C298      1.0  0.39885  0.18335  0.95450  1.0000
  H   H236      1.0  0.26845  0.27295  0.67945  1.0000
  C   C299      1.0  0.39858  0.23303  0.77172  1.0000
  H   H237      1.0  0.43748  0.18539  0.89457  1.0000
  H   H238      1.0  0.12922  0.41377  0.79209  1.0000
  C   C300      1.0  0.38486  0.25874  0.77579  1.0000
  H   H239      1.0  0.31984  0.29845  0.67959  1.0000
  C   C301      1.0  0.30428  0.22288  0.69028  1.0000
  H   H240      1.0  0.99025  0.21328  0.77321  1.0000
  C   C302      1.0  0.32241  0.24251  0.69631  1.0000
  C   C303      1.0  0.13074  0.18624  0.67273  1.0000
  S   S47       1.0  0.24328  0.01352  0.64350  1.0000
  C   C304      1.0  0.30812  0.33813  0.69428  1.0000
  C   C305      1.0  0.29051  0.22163  0.76354  1.0000
  C   C306      1.0  0.45091  0.24293  0.83635  1.0000
  C   C307      1.0  0.31431  0.30961  0.69748  1.0000
  C   C308      1.0  0.30437  0.31119  0.74600  1.0000
  H   H241      1.0  0.97931  0.42106  0.65344  1.0000
  H   H242      1.0  0.36016  0.26175  0.68331  1.0000
  H   H243      1.0  0.01898  0.24129  0.74029  1.0000
  C   C309      1.0  0.99245  0.38863  0.84572  1.0000
  H   H244      1.0  0.10845  0.22428  0.68412  1.0000
  H   H245      1.0  0.39818  0.19495  0.75210  1.0000
  C   C310      1.0  0.34995  0.23326  0.65477  1.0000
  H   H246      1.0  0.00337  0.38405  0.69338  1.0000
  C   C311      1.0  0.36047  0.26664  0.76290  1.0000
  H   H247      1.0  0.41702  0.22665  0.78238  1.0000
  H   H248      1.0  0.21922  0.26123  0.75659  1.0000
  C   C312      1.0  0.24140  0.22564  0.77465  1.0000
  H   H249      1.0  0.26015  0.27931  0.73187  1.0000
  H   H250      1.0  0.19839  0.18034  0.65140  1.0000
  C   C313      1.0  0.47332  0.19795  0.84646  1.0000
  P   P9        1.0  0.43975  0.22070  0.93910  1.0000
  C   C314      1.0  0.30894  0.20872  0.66663  1.0000
  H   H251      1.0  0.05218  0.38340  0.70496  1.0000
  P   P10       1.0  0.31848  0.25883  0.72817  1.0000
  C   C315      1.0  0.23916  0.25008  0.75827  1.0000
  H   H252      1.0  0.41654  0.12332  0.76592  1.0000
  H   H253      1.0  0.30217  0.30094  0.76614  1.0000
  H   H254      1.0  0.45191  0.27843  0.93977  1.0000
  C   C316      1.0  0.15602  0.17359  0.66307  1.0000
  C   C317      1.0  0.09978  0.36081  0.82895  1.0000
  C   C318      1.0  0.12035  0.37734  0.81745  1.0000
  C   C319      1.0  0.11326  0.40100  0.80107  1.0000
  C   C320      1.0  0.08565  0.40802  0.79593  1.0000
  C   C321      1.0  0.06482  0.39144  0.80728  1.0000
  C   C322      1.0  0.07210  0.36779  0.82393  1.0000
  P   P11       1.0  0.02911  0.40162  0.80145  1.0000
  C   C323      1.0  0.02124  0.39767  0.76670  1.0000
  C   C324      1.0  0.00666  0.37957  0.82201  1.0000
  C   C325      1.0  0.31997  0.19298  0.96568  1.0000
  H   H255      1.0  0.40416  0.23017  0.89224  1.0000
  H   H256      1.0  0.29532  0.19300  0.66262  1.0000
  Fe  Fe23      1.0  0.25975  0.11297  0.65356  1.0000
  H   H257      1.0  0.26728  0.23311  0.94298  1.0000
  C   C326      1.0  0.04226  0.39229  0.74666  1.0000
  C   C327      1.0  0.03576  0.38781  0.72024  1.0000
  C   C328      1.0  0.00826  0.38829  0.71369  1.0000
  H   H258      1.0  0.36742  0.15481  0.96521  1.0000
  C   C329      1.0  0.99358  0.39791  0.75997  1.0000
  H   H259      1.0  0.05578  0.44949  0.73585  1.0000
  H   H260      1.0  0.29160  0.35112  0.76034  1.0000
  C   C330      1.0  0.38291  0.16150  0.94994  1.0000
  H   H261      1.0  0.01392  0.34547  0.79578  1.0000
  C   C331      1.0  0.41162  0.24958  0.89695  1.0000
  H   H262      1.0  0.23149  0.26843  0.92713  1.0000
  H   H263      1.0  0.10545  0.34212  0.84112  1.0000
  H   H264      1.0  0.14183  0.37152  0.82084  1.0000
  S   S48       1.0  0.15795  0.13833  0.65524  1.0000
  H   H265      1.0  0.47211  0.17599  0.85064  1.0000
  H   H266      1.0  0.05666  0.35443  0.83279  1.0000
  C   C332      1.0  0.21556  0.27706  0.96768  1.0000
  H   H267      1.0  0.30930  0.34861  0.67422  1.0000
  H   H268      1.0  0.17361  0.45049  0.75498  1.0000
  C   C333      1.0  0.17878  0.18961  0.65861  1.0000
  C   C334      1.0  0.99866  0.23623  0.73521  1.0000
  C   C335      1.0  0.15588  0.45116  0.74277  1.0000
  C   C336      1.0  0.17592  0.21812  0.66222  1.0000
  C   C337      1.0  0.43049  0.30051  0.90752  1.0000
  C   C338      1.0  0.11087  0.45249  0.71056  1.0000
  H   H269      1.0  0.09373  0.45317  0.69760  1.0000
  C   C339      1.0  0.98716  0.39328  0.73357  1.0000
  C   C340      1.0  0.43728  0.23108  0.97363  1.0000
  C   C341      1.0  0.22982  0.29586  0.67300  1.0000
  H   H270      1.0  0.05339  0.43394  0.84073  1.0000
  C   C342      1.0  0.38619  0.14881  0.92536  1.0000
  H   H271      1.0  0.99517  0.40886  0.85254  1.0000
  C   C343      1.0  0.25123  0.26251  0.64264  1.0000
  C   C344      1.0  0.33179  0.21380  0.64893  1.0000
  C   C345      1.0  0.25156  0.27687  0.66619  1.0000
  H   H272      1.0  0.08061  0.42633  0.78296  1.0000
  H   H273      1.0  0.00118  0.25824  0.69599  1.0000
  H   H274      1.0  0.97939  0.28027  0.78551  1.0000
  H   H275      1.0  0.47043  0.16750  0.94758  1.0000
  H   H276      1.0  0.39324  0.24132  0.97421  1.0000
  H   H277      1.0  0.39539  0.19286  0.97357  1.0000
  C   C346      1.0  0.98503  0.33596  0.82911  1.0000
  Fe  Fe24      1.0  0.19881  0.11543  0.64239  1.0000
  H   H278      1.0  0.98238  0.31552  0.82264  1.0000
  H   H279      1.0  0.19118  0.31583  0.66112  1.0000
  C   C347      1.0  0.20820  0.30120  0.65578  1.0000
  H   H280      1.0  0.99026  0.46152  0.67724  1.0000
  H   H281      1.0  0.47125  0.17862  0.79458  1.0000
  C   C348      1.0  0.97457  0.37141  0.86095  1.0000
  Fe  Fe25      1.0  0.31170  0.68675  0.13145  1.0000
  S   S49       1.0  0.29925  0.73134  0.12108  1.0000
  S   S50       1.0  0.28208  0.65256  0.14278  1.0000
  Fe  Fe26      1.0  0.37411  0.69745  0.12541  1.0000
  S   S51       1.0  0.36484  0.74252  0.11522  1.0000
  S   S52       1.0  0.41806  0.67728  0.12342  1.0000
  Fe  Fe27      1.0  0.33182  0.73987  0.14942  1.0000
  S   S53       1.0  0.32369  0.77356  0.17960  1.0000
  Fe  Fe28      1.0  0.33354  0.72913  0.08790  1.0000
  S   S54       1.0  0.33246  0.74960  0.04463  1.0000
  S   S55       1.0  0.34287  0.69534  0.16125  1.0000
  S   S56       1.0  0.34419  0.68405  0.09670  1.0000
  Fe  Fe29      1.0  0.07597  0.60997  0.23897  1.0000
  S   S57       1.0  0.10009  0.58759  0.27240  1.0000
  S   S58       1.0  0.02957  0.60750  0.25099  1.0000
  Fe  Fe30      1.0  0.13062  0.62514  0.20677  1.0000
  S   S59       1.0  0.15657  0.60306  0.23829  1.0000
  S   S60       1.0  0.15168  0.64951  0.17052  1.0000
  Fe  Fe31      1.0  0.12717  0.56896  0.23898  1.0000
  S   S61       1.0  0.14486  0.52418  0.23471  1.0000
  Fe  Fe32      1.0  0.12667  0.62399  0.26831  1.0000
  S   S62       1.0  0.10248  0.59007  0.20552  1.0000
  S   S63       1.0  0.10141  0.64737  0.23693  1.0000
  H   H282      1.0  0.34676  0.64182  0.21273  1.0000
  H   H283      1.0  0.01224  0.62473  0.19598  1.0000
  C   C349      1.0  0.13256  0.70040  0.29133  1.0000
  C   C350      1.0  0.31563  0.76932  0.21534  1.0000
  C   C351      1.0  0.32586  0.74640  0.23128  1.0000
  C   C352      1.0  0.32021  0.74470  0.25975  1.0000
  C   C353      1.0  0.30362  0.76548  0.27262  1.0000
  C   C354      1.0  0.29329  0.78829  0.25662  1.0000
  C   C355      1.0  0.29959  0.79035  0.22830  1.0000
  H   H284      1.0  0.33816  0.73004  0.22169  1.0000
  H   H285      1.0  0.32843  0.72701  0.27183  1.0000
  H   H286      1.0  0.28080  0.80463  0.26610  1.0000
  H   H287      1.0  0.29179  0.80832  0.21633  1.0000
  C   C356      1.0  0.24606  0.65374  0.15258  1.0000
  C   C357      1.0  0.23536  0.63108  0.16798  1.0000
  C   C358      1.0  0.20677  0.63006  0.17455  1.0000
  C   C359      1.0  0.18825  0.65131  0.16501  1.0000
  C   C360      1.0  0.19895  0.67400  0.14960  1.0000
  C   C361      1.0  0.22767  0.67552  0.14394  1.0000
  H   H288      1.0  0.24927  0.61399  0.17466  1.0000
  H   H289      1.0  0.19900  0.61233  0.18621  1.0000
  H   H290      1.0  0.18495  0.69038  0.14168  1.0000
  H   H291      1.0  0.23549  0.69310  0.13218  1.0000
  C   C362      1.0  0.10743  0.48762  0.25939  1.0000
  C   C363      1.0  0.13128  0.49116  0.24253  1.0000
  H   H292      1.0  0.09651  0.50538  0.26799  1.0000
  C   C364      1.0  0.33085  0.74932  0.98888  1.0000
  C   C365      1.0  0.41022  0.81959  0.13667  1.0000
  C   C366      1.0  0.32948  0.70458  0.01305  1.0000
  C   C367      1.0  0.33102  0.73312  0.01364  1.0000
  C   C368      1.0  0.02775  0.48827  0.28404  1.0000
  H   H293      1.0  0.32935  0.69181  0.03185  1.0000
  H   H294      1.0  0.33170  0.77145  0.98905  1.0000
  C   C369      1.0  0.44771  0.72237  0.13233  1.0000
  C   C370      1.0  0.44861  0.69458  0.12658  1.0000
  P   P12       1.0  0.24784  0.64623  0.28090  1.0000
  H   H295      1.0  0.42806  0.73412  0.13414  1.0000
  H   H296      1.0  0.15264  0.68073  0.08367  1.0000
  C   C371      1.0  0.40517  0.75590  0.26312  1.0000
  C   C372      1.0  0.99704  0.61100  0.23605  1.0000
  C   C373      1.0  0.99414  0.62014  0.20887  1.0000
  H   H297      1.0  0.42492  0.65315  0.19049  1.0000
  H   H298      1.0  0.12887  0.51597  0.17673  1.0000
  C   C374      1.0  0.24818  0.73994  0.07513  1.0000
  C   C375      1.0  0.25819  0.75903  0.05522  1.0000
  C   C376      1.0  0.26343  0.75158  0.02853  1.0000
  C   C377      1.0  0.25890  0.72496  0.02169  1.0000
  C   C378      1.0  0.24885  0.70552  0.04154  1.0000
  C   C379      1.0  0.24390  0.71320  0.06843  1.0000
  P   P13       1.0  0.24353  0.67060  0.03343  1.0000
  C   C380      1.0  0.23422  0.67017  0.99847  1.0000
  C   C381      1.0  0.27479  0.64930  0.03928  1.0000
  C   C382      1.0  0.28522  0.63001  0.02067  1.0000
  C   C383      1.0  0.30846  0.61248  0.02629  1.0000
  C   C384      1.0  0.32100  0.61350  0.05083  1.0000
  C   C385      1.0  0.31032  0.63209  0.06972  1.0000
  C   C386      1.0  0.28756  0.65017  0.06387  1.0000
  C   C387      1.0  0.40814  0.77384  0.23975  1.0000
  C   C388      1.0  0.40333  0.69071  0.20312  1.0000
  H   H299      1.0  0.26389  0.71983  0.00102  1.0000
  H   H300      1.0  0.18987  0.73251  0.26238  1.0000
  H   H301      1.0  0.12530  0.74429  0.28230  1.0000
  C   C389      1.0  0.21611  0.65866  0.05685  1.0000
  C   C390      1.0  0.19163  0.67540  0.06068  1.0000
  C   C391      1.0  0.02607  0.48487  0.25634  1.0000
  C   C392      1.0  0.42245  0.77722  0.01118  1.0000
  H   H302      1.0  0.37146  0.56921  0.99136  1.0000
  C   C393      1.0  0.21974  0.63385  0.07293  1.0000
  H   H303      1.0  0.24446  0.74563  0.09592  1.0000
  H   H304      1.0  0.26272  0.77935  0.06054  1.0000
  C   C394      1.0  0.98819  0.67706  0.28026  1.0000
  C   C395      1.0  0.46809  0.77165  0.22309  1.0000
  H   H305      1.0  0.23698  0.69847  0.08434  1.0000
  H   H306      1.0  0.27528  0.62801  0.00203  1.0000
  H   H307      1.0  0.31641  0.59776  0.01180  1.0000
  H   H308      1.0  0.33870  0.59962  0.05547  1.0000
  H   H309      1.0  0.31940  0.63228  0.08917  1.0000
  H   H310      1.0  0.27949  0.66419  0.07901  1.0000
  H   H311      1.0  0.25829  0.54458  0.27546  1.0000
  H   H312      1.0  0.38797  0.76582  0.17748  1.0000
  C   C396      1.0  0.20890  0.60748  0.29346  1.0000
  H   H313      1.0  0.35555  0.82150  0.25493  1.0000
  H   H314      1.0  0.19181  0.66025  0.00820  1.0000
  C   C397      1.0  0.44962  0.77596  0.00018  1.0000
  H   H315      1.0  0.20267  0.60755  0.10575  1.0000
  C   C398      1.0  0.30266  0.64001  0.21501  1.0000
  H   H316      1.0  0.26550  0.72941  0.25960  1.0000
  H   H317      1.0  0.23846  0.62062  0.07084  1.0000
  C   C399      1.0  0.19441  0.71129  0.25734  1.0000
  C   C400      1.0  0.17857  0.69977  0.23912  1.0000
  C   C401      1.0  0.18438  0.67245  0.23276  1.0000
  C   C402      1.0  0.20595  0.65651  0.24468  1.0000
  C   C403      1.0  0.22123  0.66754  0.26401  1.0000
  C   C404      1.0  0.21527  0.69516  0.27016  1.0000
  C   C405      1.0  0.03553  0.51319  0.29265  1.0000
  H   H318      1.0  0.20999  0.63534  0.23938  1.0000
  H   H319      1.0  0.27207  0.76614  0.01330  1.0000
  H   H320      1.0  0.23207  0.76544  0.24319  1.0000
  H   H321      1.0  0.37438  0.61899  0.99825  1.0000
  H   H322      1.0  0.17172  0.66340  0.21908  1.0000
  C   C406      1.0  0.43164  0.72928  0.20727  1.0000
  H   H323      1.0  0.00580  0.50923  0.14830  1.0000
  H   H324      1.0  0.98406  0.53377  0.22966  1.0000
  C   C407      1.0  0.44160  0.80771  0.17243  1.0000
  C   C408      1.0  0.46120  0.71362  0.04747  1.0000
  H   H325      1.0  0.11726  0.69489  0.27809  1.0000
  C   C409      1.0  0.43237  0.71480  0.04849  1.0000
  C   C410      1.0  0.12879  0.77679  0.17784  1.0000
  C   C411      1.0  0.12606  0.74879  0.17491  1.0000
  C   C412      1.0  0.14921  0.73018  0.17582  1.0000
  C   C413      1.0  0.17510  0.73944  0.17983  1.0000
  C   C414      1.0  0.17793  0.76746  0.18331  1.0000
  C   C415      1.0  0.15463  0.78614  0.18190  1.0000
  P   P14       1.0  0.21111  0.77990  0.18871  1.0000
  C   C416      1.0  0.20647  0.80623  0.21301  1.0000
  C   C417      1.0  0.23418  0.75226  0.20191  1.0000
  C   C418      1.0  0.24103  0.75074  0.22915  1.0000
  C   C419      1.0  0.26021  0.73027  0.23862  1.0000
  C   C420      1.0  0.27308  0.71150  0.22101  1.0000
  C   C421      1.0  0.26617  0.71259  0.19398  1.0000
  C   C422      1.0  0.24682  0.73292  0.18440  1.0000
  C   C423      1.0  0.22718  0.79328  0.15706  1.0000
  C   C424      1.0  0.21171  0.80086  0.13437  1.0000
  C   C425      1.0  0.22481  0.81078  0.10995  1.0000
  C   C426      1.0  0.25335  0.81310  0.10806  1.0000
  C   C427      1.0  0.26883  0.80540  0.13052  1.0000
  C   C428      1.0  0.25579  0.79564  0.15491  1.0000
  H   H326      1.0  0.11083  0.79123  0.17717  1.0000
  H   H327      1.0  0.10603  0.74140  0.17206  1.0000
  H   H328      1.0  0.14701  0.70842  0.17382  1.0000
  H   H329      1.0  0.19258  0.72449  0.18080  1.0000
  H   H330      1.0  0.15641  0.80791  0.18420  1.0000
  H   H331      1.0  0.28895  0.69666  0.22819  1.0000
  H   H332      1.0  0.27619  0.69798  0.18034  1.0000
  H   H333      1.0  0.24214  0.73386  0.16323  1.0000
  H   H334      1.0  0.17478  0.78562  0.23794  1.0000
  H   H335      1.0  0.18965  0.79913  0.13542  1.0000
  H   H336      1.0  0.21283  0.81666  0.09248  1.0000
  H   H337      1.0  0.26354  0.82083  0.08922  1.0000
  H   H338      1.0  0.29102  0.80685  0.12917  1.0000
  H   H339      1.0  0.26806  0.78990  0.17219  1.0000
  C   C429      1.0  0.21684  0.55847  0.28824  1.0000
  H   H340      1.0  0.30179  0.63685  0.19362  1.0000
  H   H341      1.0  0.19488  0.62492  0.29813  1.0000
  C   C430      1.0  0.27836  0.64148  0.23165  1.0000
  C   C431      1.0  0.32925  0.64625  0.25354  1.0000
  H   H342      1.0  0.16919  0.82071  0.27176  1.0000
  P   P15       1.0  0.03032  0.50236  0.20119  1.0000
  C   C432      1.0  0.03266  0.50629  0.23701  1.0000
  C   C433      1.0  0.05849  0.51966  0.18306  1.0000
  C   C434      1.0  0.05343  0.54362  0.16599  1.0000
  C   C435      1.0  0.07531  0.55665  0.15199  1.0000
  C   C436      1.0  0.10246  0.54631  0.15532  1.0000
  C   C437      1.0  0.10777  0.52322  0.17300  1.0000
  C   C438      1.0  0.08596  0.51005  0.18687  1.0000
  H   H343      1.0  0.23867  0.83122  0.19452  1.0000
  H   H344      1.0  0.37989  0.77366  0.00368  1.0000
  C   C439      1.0  0.18702  0.80345  0.23512  1.0000
  C   C440      1.0  0.04156  0.53475  0.27356  1.0000
  C   C441      1.0  0.04027  0.53133  0.24583  1.0000
  C   C442      1.0  0.25397  0.67513  0.97702  1.0000
  H   H345      1.0  0.39628  0.71016  0.02661  1.0000
  H   H346      1.0  0.45969  0.81236  0.18237  1.0000
  H   H347      1.0  0.16128  0.71177  0.23059  1.0000
  H   H348      1.0  0.18861  0.69484  0.04885  1.0000
  H   H349      1.0  0.02997  0.65921  0.27660  1.0000
  C   C443      1.0  0.41867  0.70894  0.02580  1.0000
  C   C444      1.0  0.43385  0.70135  0.00222  1.0000
  C   C445      1.0  0.38471  0.76181  0.28345  1.0000
  C   C446      1.0  0.37032  0.61241  0.97845  1.0000
  C   C447      1.0  0.45525  0.71211  0.20079  1.0000
  H   H350      1.0  0.03279  0.55286  0.16383  1.0000
  H   H351      1.0  0.07128  0.57524  0.13914  1.0000
  H   H352      1.0  0.11947  0.55684  0.14512  1.0000
  C   C448      1.0  0.32752  0.69256  0.98810  1.0000
  H   H353      1.0  0.15972  0.63726  0.11220  1.0000
  C   C449      1.0  0.18378  0.82332  0.25440  1.0000
  H   H354      1.0  0.42062  0.71991  0.06710  1.0000
  C   C450      1.0  0.22299  0.82889  0.21084  1.0000
  H   H355      1.0  0.04514  0.54831  0.23137  1.0000
  C   C451      1.0  0.27930  0.64557  0.25943  1.0000
  H   H356      1.0  0.16382  0.47001  0.21877  1.0000
  H   H357      1.0  0.45529  0.78039  0.26466  1.0000
  C   C452      1.0  0.99151  0.51906  0.16296  1.0000
  C   C453      1.0  0.40138  0.78169  0.16970  1.0000
  H   H358      1.0  0.40424  0.83254  0.11902  1.0000
  C   C454      1.0  0.99783  0.51870  0.19036  1.0000
  H   H359      1.0  0.41813  0.78050  0.03256  1.0000
  H   H360      1.0  0.23292  0.86581  0.22889  1.0000
  C   C455      1.0  0.21979  0.84864  0.23028  1.0000
  C   C456      1.0  0.30503  0.64726  0.27039  1.0000
  C   C457      1.0  0.20012  0.84594  0.25197  1.0000
  H   H361      1.0  0.47105  0.75608  0.14176  1.0000
  H   H362      1.0  0.34898  0.64800  0.26202  1.0000
  H   H363      1.0  0.04757  0.55413  0.28016  1.0000
  H   H364      1.0  0.19815  0.86092  0.26739  1.0000
  H   H365      1.0  0.32581  0.67053  0.98810  1.0000
  H   H366      1.0  0.38713  0.73090  0.21358  1.0000
  P   P16       1.0  0.43398  0.76534  0.21314  1.0000
  H   H367      1.0  0.09093  0.49294  0.20110  1.0000
  H   H368      1.0  0.22617  0.70447  0.28510  1.0000
  C   C458      1.0  0.40086  0.77340  0.99483  1.0000
  H   H369      1.0  0.27491  0.67877  0.98108  1.0000
  H   H370      1.0  0.25893  0.63948  0.22271  1.0000
  C   C459      1.0  0.32805  0.64271  0.22584  1.0000
  C   C460      1.0  0.19940  0.62619  0.09273  1.0000
  C   C461      1.0  0.46273  0.69957  0.00133  1.0000
  H   H371      1.0  0.27586  0.59104  0.27303  1.0000
  H   H372      1.0  0.35080  0.78985  0.29608  1.0000
  C   C462      1.0  0.17125  0.66754  0.08036  1.0000
  C   C463      1.0  0.42550  0.78599  0.18256  1.0000
  H   H373      1.0  0.39184  0.81188  0.21925  1.0000
  C   C464      1.0  0.14761  0.67960  0.30616  1.0000
  H   H374      1.0  0.37466  0.79552  0.13776  1.0000
  H   H375      1.0  0.41851  0.73722  0.26545  1.0000
  H   H376      1.0  0.20899  0.53813  0.28866  1.0000
  H   H377      1.0  0.30657  0.64909  0.29191  1.0000
  C   C465      1.0  0.40567  0.71820  0.20864  1.0000
  C   C466      1.0  0.39032  0.79776  0.23709  1.0000
  C   C467      1.0  0.13708  0.72844  0.29385  1.0000
  C   C468      1.0  0.39370  0.79857  0.14703  1.0000
  H   H378      1.0  0.46641  0.77822  0.01309  1.0000
  C   C469      1.0  0.01644  0.67600  0.28421  1.0000
  C   C470      1.0  0.17517  0.64299  0.09641  1.0000
  C   C471      1.0  0.23651  0.61153  0.28541  1.0000
  C   C472      1.0  0.25444  0.58859  0.27933  1.0000
  C   C473      1.0  0.42685  0.67406  0.19600  1.0000
  C   C474      1.0  0.20742  0.66472  0.99230  1.0000
  C   C475      1.0  0.36706  0.78560  0.28060  1.0000
  C   C476      1.0  0.43415  0.82416  0.14937  1.0000
  C   C477      1.0  0.24458  0.56216  0.28071  1.0000
  H   H379      1.0  0.38322  0.68252  0.20370  1.0000
  C   C478      1.0  0.36978  0.80347  0.25739  1.0000
  H   H380      1.0  0.42315  0.69656  0.98472  1.0000
  S   S64       1.0  0.23048  0.81069  0.30530  1.0000
  H   H381      1.0  0.44680  0.84069  0.14154  1.0000
  C   C479      1.0  0.97952  0.53279  0.20863  1.0000
  C   C480      1.0  0.45280  0.68470  0.19507  1.0000
  H   H382      1.0  0.17746  0.57847  0.30039  1.0000
  C   C481      1.0  0.19907  0.58112  0.29483  1.0000
  C   C482      1.0  0.02736  0.69670  0.29761  1.0000
  H   H383      1.0  0.98030  0.66115  0.26916  1.0000
  H   H384      1.0  0.27673  0.69321  0.29672  1.0000
  H   H385      1.0  0.97512  0.59831  0.27361  1.0000
  H   H386      1.0  0.02349  0.47137  0.29879  1.0000
  H   H387      1.0  0.38209  0.74774  0.30123  1.0000
  H   H388      1.0  0.47110  0.71756  0.06563  1.0000
  C   C483      1.0  0.14532  0.46763  0.23179  1.0000
  S   S65       1.0  0.14151  0.64402  0.30488  1.0000
  C   C484      1.0  0.47232  0.77841  0.24965  1.0000
  H   H389      1.0  0.47098  0.67201  0.18887  1.0000
  C   C485      1.0  0.98174  0.71985  0.30287  1.0000
  C   C486      1.0  0.47221  0.73473  0.13684  1.0000
  H   H390      1.0  0.25699  0.94071  0.30478  1.0000
  H   H391      1.0  0.04933  0.69582  0.30051  1.0000
  C   C487      1.0  0.01005  0.71871  0.30679  1.0000
  H   H392      1.0  0.29023  0.76340  0.54315  1.0000
  S   S66       1.0  0.23387  0.77551  0.62468  1.0000
  H   H393      1.0  0.01873  0.73504  0.31664  1.0000
  S   S67       1.0  0.25300  0.83891  0.62049  1.0000
  C   C488      1.0  0.23103  0.64566  0.57410  1.0000
  Fe  Fe33      1.0  0.23388  0.81139  0.59290  1.0000
  S   S68       1.0  0.25360  0.81146  0.54922  1.0000
  S   S69       1.0  0.19038  0.82637  0.60470  1.0000
  H   H394      1.0  0.19902  0.73479  0.42496  1.0000
  Fe  Fe34      1.0  0.22947  0.84294  0.33615  1.0000
  S   S70       1.0  0.26202  0.81954  0.36087  1.0000
  C   C489      1.0  0.17219  0.71528  0.32558  1.0000
  Fe  Fe35      1.0  0.19821  0.78963  0.33217  1.0000
  S   S71       1.0  0.22856  0.76396  0.35703  1.0000
  H   H395      1.0  0.32132  0.74239  0.50753  1.0000
  Fe  Fe36      1.0  0.22637  0.79973  0.38442  1.0000
  S   S72       1.0  0.21327  0.79544  0.43028  1.0000
  Fe  Fe37      1.0  0.26085  0.78641  0.33086  1.0000
  S   S73       1.0  0.19388  0.82450  0.36050  1.0000
  C   C490      1.0  0.20398  0.72453  0.46752  1.0000
  H   H396      1.0  0.13395  0.79202  0.57122  1.0000
  C   C491      1.0  0.18146  0.65408  0.57896  1.0000
  C   C492      1.0  0.19063  0.95469  0.62824  1.0000
  H   H397      1.0  0.22620  0.63128  0.33683  1.0000
  C   C493      1.0  0.27324  0.89420  0.38710  1.0000
  H   H398      1.0  0.16181  0.64926  0.58911  1.0000
  C   C494      1.0  0.06396  0.67549  0.63487  1.0000
  H   H399      1.0  0.18766  0.72074  0.33865  1.0000
  H   H400      1.0  0.33336  0.88411  0.41885  1.0000
  C   C495      1.0  0.22575  0.92111  0.33062  1.0000
  C   C496      1.0  0.20294  0.92577  0.34882  1.0000
  H   H401      1.0  0.12283  0.85239  0.58441  1.0000
  C   C497      1.0  0.16718  0.68727  0.32355  1.0000
  H   H402      1.0  0.19216  0.90844  0.35791  1.0000
  C   C498      1.0  0.18279  0.67586  0.55902  1.0000
  H   H403      1.0  0.26125  0.88451  0.37311  1.0000
  H   H404      1.0  0.27912  0.71421  0.34027  1.0000
  C   C499      1.0  0.30502  0.92007  0.42169  1.0000
  H   H405      1.0  0.14583  0.94003  0.52325  1.0000
  C   C500      1.0  0.19890  0.70568  0.48982  1.0000
  C   C501      1.0  0.24157  0.80853  0.51614  1.0000
  C   C502      1.0  0.26071  0.80882  0.49350  1.0000
  C   C503      1.0  0.25250  0.80538  0.46706  1.0000
  C   C504      1.0  0.22489  0.80167  0.46283  1.0000
  C   C505      1.0  0.20570  0.80175  0.48543  1.0000
  C   C506      1.0  0.21392  0.80516  0.51186  1.0000
  H   H406      1.0  0.28218  0.81132  0.49651  1.0000
  H   H407      1.0  0.26758  0.80523  0.45004  1.0000
  H   H408      1.0  0.18429  0.79902  0.48243  1.0000
  H   H409      1.0  0.19895  0.80495  0.52898  1.0000
  C   C507      1.0  0.24514  0.72253  0.51799  1.0000
  C   C508      1.0  0.26307  0.71036  0.49810  1.0000
  H   H410      1.0  0.24204  0.75147  0.54970  1.0000
  H   H411      1.0  0.20313  0.73324  0.57709  1.0000
  C   C509      1.0  0.25524  0.74147  0.53439  1.0000
  H   H412      1.0  0.17220  0.89759  0.47509  1.0000
  H   H413      1.0  0.16610  0.65888  0.45743  1.0000
  H   H414      1.0  0.17535  0.95637  0.36797  1.0000
  C   C510      1.0  0.29044  0.71748  0.49434  1.0000
  H   H415      1.0  0.16996  0.76701  0.59807  1.0000
  H   H416      1.0  0.16487  0.75044  0.50073  1.0000
  H   H417      1.0  0.25244  0.67230  0.54495  1.0000
  C   C511      1.0  0.25846  0.70289  0.60835  1.0000
  C   C512      1.0  0.14745  0.77278  0.53413  1.0000
  H   H418      1.0  0.21439  0.74309  0.46997  1.0000
  H   H419      1.0  0.20449  0.62265  0.60256  1.0000
  C   C513      1.0  0.15709  0.73609  0.31077  1.0000
  C   C514      1.0  0.29789  0.88103  0.39566  1.0000
  C   C515      1.0  0.31387  0.89403  0.41282  1.0000
  H   H420      1.0  0.18114  0.66700  0.50279  1.0000
  C   C516      1.0  0.14868  0.77748  0.56160  1.0000
  H   H421      1.0  0.17193  0.94332  0.43595  1.0000
  C   C517      1.0  0.25324  0.94003  0.57428  1.0000
  C   C518      1.0  0.30704  0.69668  0.61641  1.0000
  C   C519      1.0  0.26803  0.69576  0.33950  1.0000
  C   C520      1.0  0.18822  0.94705  0.51003  1.0000
  H   H422      1.0  0.31818  0.93033  0.43409  1.0000
  H   H423      1.0  0.17875  0.67142  0.33529  1.0000
  C   C521      1.0  0.20180  0.87812  0.44723  1.0000
  H   H424      1.0  0.25520  0.95871  0.58459  1.0000
  C   C522      1.0  0.25435  0.68467  0.36298  1.0000
  C   C523      1.0  0.25200  0.69145  0.63450  1.0000
  H   H425      1.0  0.17299  0.92156  0.57255  1.0000
  C   C524      1.0  0.26426  0.92012  0.39604  1.0000
  C   C525      1.0  0.27968  0.93294  0.41409  1.0000
  C   C526      1.0  0.19345  0.95302  0.35448  1.0000
  C   C527      1.0  0.20578  0.96631  0.49741  1.0000
  C   C528      1.0  0.15995  0.95459  0.51393  1.0000
  H   H426      1.0  0.29060  0.94039  0.51958  1.0000
  H   H427      1.0  0.22863  0.65286  0.37998  1.0000
  H   H428      1.0  0.16394  0.68769  0.55383  1.0000
  C   C529      1.0  0.18794  0.74433  0.56475  1.0000
  P   P17       1.0  0.20996  0.71267  0.52276  1.0000
  H   H429      1.0  0.30399  0.70842  0.47864  1.0000
  C   C530      1.0  0.28595  0.70575  0.59939  1.0000
  S   S74       1.0  0.29680  0.76235  0.30863  1.0000
  C   C531      1.0  0.23245  0.66734  0.55403  1.0000
  H   H430      1.0  0.25592  0.69544  0.48535  1.0000
  C   C532      1.0  0.23958  0.66124  0.36186  1.0000
  H   H431      1.0  0.18653  0.87340  0.43350  1.0000
  H   H432      1.0  0.23557  0.85893  0.42356  1.0000
  H   H433      1.0  0.24560  0.93029  0.38827  1.0000
  C   C533      1.0  0.28566  0.95727  0.50482  1.0000
  C   C534      1.0  0.30024  0.73653  0.51062  1.0000
  C   C535      1.0  0.18687  0.73932  0.53721  1.0000
  H   H434      1.0  0.08823  0.63886  0.62334  1.0000
  C   C536      1.0  0.22952  0.87007  0.44151  1.0000
  C   C537      1.0  0.16643  0.75376  0.52196  1.0000
  C   C538      1.0  0.20558  0.63908  0.58660  1.0000
  H   H435      1.0  0.13866  0.89557  0.60025  1.0000
  C   C539      1.0  0.18169  0.69618  0.43828  1.0000
  H   H436      1.0  0.28432  0.93082  0.47217  1.0000
  C   C540      1.0  0.24932  0.87577  0.45923  1.0000
  H   H437      1.0  0.25489  0.69453  0.38193  1.0000
  C   C541      1.0  0.19380  0.89160  0.47086  1.0000
  H   H438      1.0  0.24214  0.70973  0.59514  1.0000
  C   C542      1.0  0.21343  0.89647  0.48933  1.0000
  C   C543      1.0  0.24138  0.88901  0.48301  1.0000
  P   P18       1.0  0.20224  0.91284  0.52029  1.0000
  C   C544      1.0  0.17672  0.67719  0.46031  1.0000
  C   C545      1.0  0.17696  0.89342  0.54016  1.0000
  C   C546      1.0  0.16594  0.90305  0.56496  1.0000
  C   C547      1.0  0.14632  0.88839  0.58070  1.0000
  C   C548      1.0  0.13762  0.86397  0.57187  1.0000
  C   C549      1.0  0.14894  0.85392  0.54749  1.0000
  C   C550      1.0  0.16885  0.86831  0.53189  1.0000
  H   H439      1.0  0.30481  0.86101  0.38846  1.0000
  H   H440      1.0  0.29094  0.71497  0.57929  1.0000
  C   C551      1.0  0.28271  0.74834  0.53072  1.0000
  C   C552      1.0  0.22970  0.91484  0.54285  1.0000
  H   H441      1.0  0.06202  0.68387  0.61416  1.0000
  C   C553      1.0  0.21427  0.95374  0.43054  1.0000
  C   C554      1.0  0.27004  0.91634  0.58080  1.0000
  C   C555      1.0  0.26655  0.89185  0.56864  1.0000
  C   C556      1.0  0.24614  0.89095  0.55014  1.0000
  H   H442      1.0  0.27076  0.86922  0.45484  1.0000
  S   S75       1.0  0.23749  0.88747  0.32076  1.0000
  S   S76       1.0  0.16275  0.77178  0.31214  1.0000
  H   H443      1.0  0.17487  0.69269  0.41840  1.0000
  H   H444      1.0  0.25711  0.89294  0.49642  1.0000
  H   H445      1.0  0.22227  0.93316  0.43677  1.0000
  C   C557      1.0  0.19533  0.71983  0.44192  1.0000
  H   H446      1.0  0.32838  0.69878  0.60943  1.0000
  H   H447      1.0  0.14283  0.83466  0.54091  1.0000
  H   H448      1.0  0.17817  0.85933  0.51384  1.0000
  C   C558      1.0  0.20831  0.68274  0.54646  1.0000
  C   C559      1.0  0.16901  0.76335  0.57681  1.0000
  C   C560      1.0  0.18526  0.68190  0.48603  1.0000
  C   C561      1.0  0.23832  0.64898  0.33722  1.0000
  H   H449      1.0  0.13178  0.78383  0.52223  1.0000
  H   H450      1.0  0.28511  0.91674  0.59598  1.0000
  H   H451      1.0  0.27906  0.87324  0.57418  1.0000
  H   H452      1.0  0.24284  0.87144  0.54193  1.0000
  H   H453      1.0  0.24974  0.63417  0.58027  1.0000
  C   C562      1.0  0.23306  0.93931  0.55548  1.0000
  C   C563      1.0  0.25186  0.66009  0.31343  1.0000
  H   H454      1.0  0.18747  0.72292  0.62622  1.0000
  H   H455      1.0  0.21960  0.95762  0.55171  1.0000
  C   C564      1.0  0.23937  0.94402  0.31893  1.0000
  C   C565      1.0  0.28245  0.95196  0.47776  1.0000
  H   H456      1.0  0.22749  0.96070  0.49394  1.0000
  Fe  Fe38      1.0  0.19167  0.79263  0.63854  1.0000
  H   H457      1.0  0.16981  0.95407  0.62202  1.0000
  H   H458      1.0  0.03718  0.51576  0.31407  1.0000
  H   H459      1.0  0.18589  0.67188  0.63126  1.0000
  Fe  Fe39      1.0  0.20942  0.85302  0.63317  1.0000
  S   S77       1.0  0.19060  0.89779  0.63229  1.0000
  H   H460      1.0  0.23066  0.68917  0.64112  1.0000
  C   C566      1.0  0.26677  0.68362  0.31483  1.0000
  C   C567      1.0  0.18573  0.95953  0.43041  1.0000
  C   C568      1.0  0.20615  0.92970  0.63430  1.0000
  C   C569      1.0  0.07858  0.65012  0.63998  1.0000
  C   C570      1.0  0.17404  0.71351  0.64189  1.0000
  Fe  Fe40      1.0  0.15067  0.60629  0.76548  1.0000
  S   S78       1.0  0.17307  0.58718  0.72974  1.0000
  S   S79       1.0  0.17008  0.62910  0.79781  1.0000
  Fe  Fe41      1.0  0.09315  0.59362  0.74607  1.0000
  S   S80       1.0  0.11250  0.57435  0.70858  1.0000
  S   S81       1.0  0.04783  0.59184  0.76231  1.0000
  Fe  Fe42      1.0  0.14343  0.55312  0.73648  1.0000
  S   S82       1.0  0.15954  0.50759  0.74014  1.0000
  Fe  Fe43      1.0  0.14022  0.61029  0.70537  1.0000
  S   S83       1.0  0.15422  0.63527  0.66664  1.0000
  S   S84       1.0  0.12320  0.57099  0.77413  1.0000
  S   S85       1.0  0.11887  0.63074  0.74087  1.0000
  Fe  Fe44      1.0  0.32644  0.70609  0.88709  1.0000
  S   S86       1.0  0.35067  0.67309  0.86396  1.0000
  S   S87       1.0  0.32291  0.69246  0.93275  1.0000
  Fe  Fe45      1.0  0.31366  0.73952  0.83291  1.0000
  S   S88       1.0  0.33750  0.70846  0.80797  1.0000
  S   S89       1.0  0.29040  0.77605  0.81074  1.0000
  Fe  Fe46      1.0  0.31588  0.67709  0.83547  1.0000
  S   S90       1.0  0.29777  0.64131  0.81628  1.0000
  Fe  Fe47      1.0  0.36985  0.70781  0.83887  1.0000
  S   S91       1.0  0.41449  0.71364  0.82235  1.0000
  S   S92       1.0  0.29068  0.70804  0.85973  1.0000
  S   S93       1.0  0.34692  0.74092  0.86286  1.0000
  C   C571      1.0  0.99817  0.48213  0.80479  1.0000
  C   C572      1.0  0.32717  0.70878  0.96335  1.0000
  S   S94       1.0  0.28251  0.78604  0.68109  1.0000
  S   S95       1.0  0.20663  0.82059  0.66813  1.0000
  C   C573      1.0  0.36856  0.58444  0.97456  1.0000
  C   C574      1.0  0.40634  0.76862  0.96735  1.0000
  C   C575      1.0  0.40359  0.68736  0.91843  1.0000
  C   C576      1.0  0.04701  0.73568  0.70354  1.0000
  H   H461      1.0  0.46664  0.73203  0.80041  1.0000
  C   C577      1.0  0.23074  0.62577  0.67596  1.0000
  C   C578      1.0  0.23408  0.68396  0.70204  1.0000
  H   H462      1.0  0.32872  0.75009  0.94512  1.0000
  C   C579      1.0  0.28865  0.77945  0.77458  1.0000
  C   C580      1.0  0.30809  0.76563  0.75734  1.0000
  C   C581      1.0  0.30615  0.76862  0.72891  1.0000
  C   C582      1.0  0.28447  0.78491  0.71713  1.0000
  C   C583      1.0  0.26517  0.79911  0.73426  1.0000
  C   C584      1.0  0.26749  0.79666  0.76277  1.0000
  H   H463      1.0  0.32486  0.75289  0.76588  1.0000
  H   H464      1.0  0.32150  0.75810  0.71587  1.0000
  H   H465      1.0  0.24853  0.81198  0.72556  1.0000
  H   H466      1.0  0.25256  0.80782  0.77574  1.0000
  H   H467      1.0  0.11230  0.49700  0.70893  1.0000
  C   C585      1.0  0.26216  0.63870  0.81082  1.0000
  C   C586      1.0  0.24114  0.65227  0.82652  1.0000
  C   C587      1.0  0.21322  0.64917  0.82214  1.0000
  C   C588      1.0  0.20578  0.63244  0.80204  1.0000
  C   C589      1.0  0.22675  0.61868  0.78642  1.0000
  C   C590      1.0  0.25473  0.62163  0.79097  1.0000
  H   H468      1.0  0.24640  0.66489  0.84235  1.0000
  H   H469      1.0  0.19730  0.65966  0.83459  1.0000
  H   H470      1.0  0.22140  0.60551  0.77106  1.0000
  H   H471      1.0  0.27071  0.61055  0.77908  1.0000
  C   C591      1.0  0.15581  0.67180  0.66502  1.0000
  C   C592      1.0  0.13959  0.68845  0.68265  1.0000
  C   C593      1.0  0.14024  0.71744  0.67951  1.0000
  C   C594      1.0  0.05100  0.49165  0.74680  1.0000
  H   H472      1.0  0.21477  0.67072  0.92312  1.0000
  H   H473      1.0  0.09856  0.66278  0.80575  1.0000
  H   H474      1.0  0.12625  0.67904  0.69841  1.0000
  H   H475      1.0  0.12791  0.73009  0.69339  1.0000
  H   H476      1.0  0.33037  0.48786  0.91126  1.0000
  H   H477      1.0  0.30291  0.71014  0.69304  1.0000
  C   C595      1.0  0.32870  0.69357  0.72471  1.0000
  C   C596      1.0  0.99114  0.59125  0.76403  1.0000
  C   C597      1.0  0.01510  0.59709  0.74773  1.0000
  C   C598      1.0  0.01221  0.60757  0.72092  1.0000
  H   H478      1.0  0.98375  0.62148  0.69031  1.0000
  H   H479      1.0  0.99310  0.58315  0.78480  1.0000
  H   H480      1.0  0.03033  0.61202  0.70804  1.0000
  C   C599      1.0  0.45479  0.68710  0.85474  1.0000
  C   C600      1.0  0.44884  0.70553  0.83260  1.0000
  H   H481      1.0  0.43807  0.67791  0.86664  1.0000
  C   C601      1.0  0.25144  0.73068  0.74910  1.0000
  C   C602      1.0  0.26517  0.71325  0.76812  1.0000
  C   C603      1.0  0.25482  0.71117  0.79500  1.0000
  C   C604      1.0  0.23021  0.72576  0.80287  1.0000
  C   C605      1.0  0.21624  0.74345  0.78387  1.0000
  C   C606      1.0  0.22734  0.74612  0.75700  1.0000
  P   P19       1.0  0.18529  0.76354  0.79454  1.0000
  C   C607      1.0  0.16358  0.74165  0.81620  1.0000
  C   C608      1.0  0.19405  0.79258  0.81245  1.0000
  C   C609      1.0  0.21907  0.79192  0.82514  1.0000
  C   C610      1.0  0.22642  0.81496  0.83770  1.0000
  C   C611      1.0  0.20863  0.83874  0.83812  1.0000
  C   C612      1.0  0.18337  0.83943  0.82606  1.0000
  C   C613      1.0  0.17607  0.81645  0.81328  1.0000
  C   C614      1.0  0.16317  0.71349  0.81167  1.0000
  C   C615      1.0  0.14584  0.69668  0.82801  1.0000
  C   C616      1.0  0.12875  0.70777  0.84885  1.0000
  C   C617      1.0  0.12896  0.73577  0.85342  1.0000
  C   C618      1.0  0.14628  0.75268  0.83715  1.0000
  C   C619      1.0  0.16682  0.77670  0.76528  1.0000
  C   C620      1.0  0.17597  0.79969  0.74940  1.0000
  C   C621      1.0  0.16188  0.81007  0.72673  1.0000
  C   C622      1.0  0.13898  0.79724  0.71933  1.0000
  C   C623      1.0  0.12958  0.77451  0.73512  1.0000
  C   C624      1.0  0.14329  0.76437  0.75816  1.0000
  H   H482      1.0  0.26009  0.73307  0.72843  1.0000
  H   H483      1.0  0.28430  0.70200  0.76239  1.0000
  H   H484      1.0  0.26633  0.69853  0.80970  1.0000
  H   H485      1.0  0.22254  0.72376  0.82390  1.0000
  H   H486      1.0  0.21786  0.76032  0.74204  1.0000
  H   H487      1.0  0.23341  0.77397  0.82488  1.0000
  H   H488      1.0  0.24631  0.81441  0.84653  1.0000
  H   H489      1.0  0.21459  0.85669  0.84756  1.0000
  H   H490      1.0  0.16965  0.85795  0.82624  1.0000
  H   H491      1.0  0.15657  0.81746  0.80375  1.0000
  H   H492      1.0  0.17622  0.70441  0.79557  1.0000
  H   H493      1.0  0.14579  0.67494  0.82457  1.0000
  H   H494      1.0  0.11573  0.74437  0.86961  1.0000
  H   H495      1.0  0.14611  0.77431  0.84097  1.0000
  H   H496      1.0  0.19422  0.80943  0.75436  1.0000
  H   H497      1.0  0.16897  0.82790  0.71466  1.0000
  H   H498      1.0  0.12876  0.80476  0.70114  1.0000
  H   H499      1.0  0.11180  0.76465  0.72932  1.0000
  H   H500      1.0  0.13570  0.74675  0.77005  1.0000
  C   C625      1.0  0.04183  0.46778  0.73717  1.0000
  C   C626      1.0  0.01393  0.49221  0.82407  1.0000
  C   C627      1.0  0.41764  0.77887  0.89789  1.0000
  C   C628      1.0  0.41638  0.77012  0.87155  1.0000
  C   C629      1.0  0.29158  0.66938  0.70845  1.0000
  H   H501      1.0  0.42861  0.75196  0.86517  1.0000
  C   C630      1.0  0.27940  0.61210  0.67832  1.0000
  C   C631      1.0  0.38998  0.50926  0.87972  1.0000
  H   H502      1.0  0.09309  0.77657  0.66848  1.0000
  H   H503      1.0  0.35012  0.67287  0.75795  1.0000
  P   P20       1.0  0.26443  0.66768  0.68549  1.0000
  H   H504      1.0  0.08362  0.72776  0.67724  1.0000
  C   C632      1.0  0.39920  0.78465  0.85315  1.0000
  H   H505      1.0  0.42113  0.64576  0.92508  1.0000
  H   H506      1.0  0.34085  0.71146  0.72373  1.0000
  C   C633      1.0  0.22012  0.66954  0.72371  1.0000
  Fe  Fe48      1.0  0.24887  0.80455  0.65348  1.0000
  H   H507      1.0  0.99272  0.53620  0.69199  1.0000
  C   C634      1.0  0.05785  0.79150  0.69332  1.0000
  C   C635      1.0  0.14413  0.47693  0.73294  1.0000
  C   C636      1.0  0.00598  0.51499  0.74083  1.0000
  C   C637      1.0  0.24694  0.67550  0.95002  1.0000
  C   C638      1.0  0.24392  0.95670  0.64500  1.0000
  H   H508      1.0  0.26456  0.95729  0.65176  1.0000
  C   C639      1.0  0.08088  0.63920  0.66667  1.0000
  C   C640      1.0  0.45107  0.67563  0.92878  1.0000
  C   C641      1.0  0.43479  0.72372  0.92112  1.0000
  C   C642      1.0  0.12138  0.47743  0.71694  1.0000
  H   H509      1.0  0.03228  0.65563  0.75421  1.0000
  H   H510      1.0  0.17979  0.66069  0.96059  1.0000
  H   H511      1.0  0.07103  0.64487  0.70882  1.0000
  H   H512      1.0  0.01100  0.51369  0.82880  1.0000
  C   C643      1.0  0.33393  0.67183  0.74404  1.0000
  C   C644      1.0  0.99170  0.69975  0.74303  1.0000
  C   C645      1.0  0.25765  0.63253  0.68021  1.0000
  H   H513      1.0  0.07204  0.49193  0.75277  1.0000
  C   C646      1.0  0.98973  0.68485  0.69746  1.0000
  H   H514      1.0  0.28347  0.63075  0.73102  1.0000
  H   H515      1.0  0.18493  0.66971  0.75232  1.0000
  C   C647      1.0  0.06980  0.74328  0.68651  1.0000
  C   C648      1.0  0.15722  0.73018  0.65898  1.0000
  H   H516      1.0  0.04018  0.53371  0.75621  1.0000
  H   H517      1.0  0.24272  0.55705  0.66794  1.0000
  C   C649      1.0  0.30730  0.69261  0.70724  1.0000
  H   H518      1.0  0.06210  0.81302  0.68941  1.0000
  H   H519      1.0  0.11542  0.69460  0.86149  1.0000
  H   H520      1.0  0.01202  0.75117  0.72868  1.0000
  C   C650      1.0  0.01480  0.46752  0.72916  1.0000
  H   H521      1.0  0.19263  0.74340  0.70000  1.0000
  H   H522      1.0  0.16685  0.71654  0.73648  1.0000
  C   C651      1.0  0.00493  0.69466  0.71758  1.0000
  H   H523      1.0  0.39812  0.77743  0.83297  1.0000
  C   C652      1.0  0.40200  0.80280  0.90537  1.0000
  C   C653      1.0  0.38464  0.81720  0.88695  1.0000
  C   C654      1.0  0.38315  0.80805  0.86089  1.0000
  C   C655      1.0  0.27299  0.68316  0.65206  1.0000
  H   H524      1.0  0.26236  0.67990  0.93375  1.0000
  H   H525      1.0  0.05673  0.64032  0.79513  1.0000
  H   H526      1.0  0.09155  0.71687  0.73397  1.0000
  C   C656      1.0  0.07523  0.77103  0.68147  1.0000
  C   C657      1.0  0.03305  0.51520  0.74869  1.0000
  C   C658      1.0  0.22432  0.71089  0.69388  1.0000
  C   C659      1.0  0.18582  0.70770  0.72725  1.0000
  H   H527      1.0  0.39153  0.73040  0.91268  1.0000
  H   H528      1.0  0.38325  0.68127  0.91482  1.0000
  C   C660      1.0  0.02963  0.75638  0.71537  1.0000
  H   H529      1.0  0.40325  0.81047  0.92525  1.0000
  H   H530      1.0  0.37235  0.83550  0.89279  1.0000
  H   H531      1.0  0.36957  0.81904  0.84664  1.0000
  C   C661      1.0  0.98570  0.61287  0.71090  1.0000
  H   H532      1.0  0.04606  0.48255  0.85185  1.0000
  H   H533      1.0  0.11594  0.70081  0.77496  1.0000
  P   P21       1.0  0.44048  0.75995  0.92087  1.0000
  H   H534      1.0  0.22766  0.64901  0.73084  1.0000
  C   C662      1.0  0.29635  0.64808  0.72858  1.0000
  H   H535      1.0  0.29077  0.56907  0.67320  1.0000
  C   C663      1.0  0.40844  0.71536  0.91700  1.0000
  C   C664      1.0  0.27402  0.58492  0.67399  1.0000
  C   C665      1.0  0.34549  0.50181  0.90268  1.0000
  C   C666      1.0  0.42487  0.66746  0.92429  1.0000
  C   C667      1.0  0.31762  0.64922  0.74610  1.0000
  C   C668      1.0  0.20019  0.72264  0.70644  1.0000
  C   C669      1.0  0.99675  0.49130  0.73045  1.0000
  C   C670      1.0  0.03502  0.78419  0.71020  1.0000
  C   C671      1.0  0.03371  0.47468  0.83699  1.0000
  H   H536      1.0  0.32108  0.63283  0.76174  1.0000
  H   H537      1.0  0.23534  0.72303  0.67812  1.0000
  H   H538      1.0  0.00299  0.70715  0.75894  1.0000
  C   C672      1.0  0.22019  0.67040  0.94409  1.0000
  C   C673      1.0  0.17307  0.68454  0.64474  1.0000
  H   H539      1.0  0.02152  0.80009  0.71936  1.0000
  C   C674      1.0  0.38452  0.53781  0.88049  1.0000
  C   C675      1.0  0.35932  0.54857  0.89215  1.0000
  C   C676      1.0  0.33996  0.53034  0.90351  1.0000
  P   P22       1.0  0.35217  0.58536  0.89389  1.0000
  C   C677      1.0  0.31639  0.59389  0.88695  1.0000
  C   C678      1.0  0.35929  0.59569  0.92711  1.0000
  C   C679      1.0  0.36133  0.62370  0.93122  1.0000
  C   C680      1.0  0.36670  0.63200  0.95677  1.0000
  H   H540      1.0  0.97762  0.57604  0.66215  1.0000
  H   H541      1.0  0.43733  0.62923  0.85954  1.0000
  C   C681      1.0  0.36303  0.57606  0.94902  1.0000
  C   C682      1.0  0.30369  0.57900  0.86837  1.0000
  C   C683      1.0  0.27599  0.58516  0.86306  1.0000
  C   C684      1.0  0.26076  0.60630  0.87610  1.0000
  C   C685      1.0  0.27331  0.62158  0.89418  1.0000
  C   C686      1.0  0.30099  0.61547  0.89963  1.0000
  C   C687      1.0  0.37390  0.60303  0.86828  1.0000
  C   C688      1.0  0.40038  0.60966  0.87430  1.0000
  C   C689      1.0  0.41701  0.62394  0.85480  1.0000
  C   C690      1.0  0.40731  0.63187  0.82922  1.0000
  C   C691      1.0  0.38131  0.62469  0.82282  1.0000
  C   C692      1.0  0.36474  0.61012  0.84216  1.0000
  H   H542      1.0  0.39996  0.55132  0.87185  1.0000
  H   H543      1.0  0.32055  0.53820  0.91296  1.0000
  H   H544      1.0  0.35834  0.63922  0.91473  1.0000
  H   H545      1.0  0.36780  0.65375  0.95976  1.0000
  H   H546      1.0  0.99233  0.53344  0.74271  1.0000
  H   H547      1.0  0.31730  0.67765  0.65514  1.0000
  H   H548      1.0  0.36177  0.55430  0.94655  1.0000
  H   H549      1.0  0.31530  0.56297  0.85753  1.0000
  H   H550      1.0  0.26649  0.57412  0.84820  1.0000
  H   H551      1.0  0.23945  0.61135  0.87151  1.0000
  H   H552      1.0  0.26172  0.63855  0.90357  1.0000
  H   H553      1.0  0.31017  0.62793  0.91342  1.0000
  H   H554      1.0  0.40818  0.60392  0.89407  1.0000
  S   S96       1.0  0.15577  0.76688  0.65478  1.0000
  H   H555      1.0  0.41982  0.64391  0.81451  1.0000
  H   H556      1.0  0.37360  0.63113  0.80311  1.0000
  H   H557      1.0  0.34451  0.60530  0.83682  1.0000
  H   H558      1.0  0.21369  0.64133  0.67626  1.0000
  C   C693      1.0  0.19592  0.68128  0.73607  1.0000
  H   H559      1.0  0.09228  0.61956  0.67055  1.0000
  H   H560      1.0  0.20445  0.59353  0.66910  1.0000
  C   C694      1.0  0.05534  0.67983  0.68346  1.0000
  C   C695      1.0  0.06912  0.65384  0.68835  1.0000
  P   P23       1.0  0.04132  0.69959  0.71138  1.0000
  H   H561      1.0  0.99930  0.68030  0.67781  1.0000
  C   C696      1.0  0.05928  0.68835  0.74156  1.0000
  C   C697      1.0  0.04990  0.66647  0.75893  1.0000
  C   C698      1.0  0.06373  0.65771  0.78226  1.0000
  C   C699      1.0  0.08728  0.67039  0.78825  1.0000
  C   C700      1.0  0.09708  0.69181  0.77082  1.0000
  C   C701      1.0  0.08320  0.70076  0.74752  1.0000
  C   C702      1.0  0.24701  0.57815  0.67089  1.0000
  H   H562      1.0  0.30044  0.61711  0.68045  1.0000
  C   C703      1.0  0.45518  0.77121  0.97272  1.0000
  C   C704      1.0  0.43353  0.76805  0.95592  1.0000
  H   H563      1.0  0.38937  0.76502  0.95513  1.0000
  C   C705      1.0  0.22544  0.59864  0.67162  1.0000
  H   H564      1.0  0.40938  0.50108  0.87051  1.0000
  C   C706      1.0  0.37047  0.49127  0.89074  1.0000
  H   H565      1.0  0.04095  0.70989  0.65224  1.0000
  C   C707      1.0  0.45599  0.70367  0.92731  1.0000
  C   C708      1.0  0.32913  0.73726  0.96388  1.0000
  H   H566      1.0  0.98299  0.49587  0.79470  1.0000
  C   C709      1.0  0.23301  0.93091  0.64248  1.0000
  C   C710      1.0  0.05218  0.69022  0.65651  1.0000
  H   H567      1.0  0.24521  0.91198  0.64732  1.0000
  H   H568      1.0  0.37471  0.46916  0.89005  1.0000
  C   C711      1.0  0.47091  0.71767  0.81756  1.0000
  C   C712      1.0  0.30063  0.68508  0.64253  1.0000
  C   C713      1.0  0.20049  0.66485  0.96521  1.0000
  H   H569      1.0  0.46771  0.66025  0.93299  1.0000
  Fe  Fe49      1.0  0.86433  0.32125  0.23685  1.0000
  S   S97       1.0  0.84461  0.33155  0.27773  1.0000
  S   S98       1.0  0.90894  0.33061  0.22235  1.0000
  Fe  Fe50      1.0  0.80705  0.31198  0.21507  1.0000
  S   S99       1.0  0.78470  0.32355  0.25395  1.0000
  S   S100      1.0  0.78485  0.29773  0.17950  1.0000
  Fe  Fe51      1.0  0.81358  0.35793  0.25387  1.0000
  S   S101      1.0  0.79791  0.40110  0.26627  1.0000
  Fe  Fe52      1.0  0.81759  0.29603  0.27393  1.0000
  C   C714      1.0  0.67450  0.05505  0.18562  1.0000
  S   S102      1.0  0.83346  0.34847  0.21312  1.0000
  S   S103      1.0  0.83975  0.28361  0.23479  1.0000
  Fe  Fe53      1.0  0.62663  0.18540  0.15261  1.0000
  S   S104      1.0  0.60609  0.21967  0.17588  1.0000
  S   S105      1.0  0.64333  0.14612  0.17615  1.0000
  Fe  Fe54      1.0  0.62525  0.22051  0.09792  1.0000
  S   S106      1.0  0.60596  0.25725  0.11937  1.0000
  S   S107      1.0  0.63553  0.22984  0.05211  1.0000
  Fe  Fe55      1.0  0.63602  0.24628  0.15190  1.0000
  S   S108      1.0  0.65754  0.27424  0.17808  1.0000
  Fe  Fe56      1.0  0.57789  0.22709  0.14136  1.0000
  S   S109      1.0  0.53245  0.24304  0.14594  1.0000
  S   S110      1.0  0.65730  0.21190  0.12929  1.0000
  S   S111      1.0  0.59626  0.19063  0.11908  1.0000
  C   C715      1.0  0.50274  0.12178  0.12344  1.0000
  H   H570      1.0  0.57757  0.24737  0.06144  1.0000
  H   H571      1.0  0.57802  0.20751  0.26773  1.0000
  C   C716      1.0  0.50058  0.22701  0.14719  1.0000
  C   C717      1.0  0.49904  0.19837  0.15020  1.0000
  H   H572      1.0  0.86669  0.22322  0.30764  1.0000
  H   H573      1.0  0.57431  0.15558  0.27511  1.0000
  H   H574      1.0  0.51776  0.18510  0.15133  1.0000
  H   H575      1.0  0.92705  0.42069  0.14483  1.0000
  C   C718      1.0  0.77229  0.01975  0.26282  1.0000
  C   C719      1.0  0.64505  0.14480  0.21221  1.0000
  C   C720      1.0  0.66268  0.12459  0.22522  1.0000
  C   C721      1.0  0.66400  0.12261  0.25379  1.0000
  C   C722      1.0  0.64762  0.14082  0.26974  1.0000
  C   C723      1.0  0.63007  0.16098  0.25673  1.0000
  C   C724      1.0  0.62866  0.16292  0.22825  1.0000
  H   H576      1.0  0.67552  0.11055  0.21311  1.0000
  H   H577      1.0  0.67732  0.10675  0.26356  1.0000
  H   H578      1.0  0.61769  0.17540  0.26879  1.0000
  H   H579      1.0  0.61474  0.17837  0.21881  1.0000
  C   C725      1.0  0.94332  0.32245  0.23252  1.0000
  C   C726      1.0  0.94938  0.30398  0.25463  1.0000
  H   H580      1.0  0.84565  0.41700  0.23060  1.0000
  H   H581      1.0  0.93282  0.29519  0.26716  1.0000
  C   C727      1.0  0.75008  0.28817  0.18095  1.0000
  C   C728      1.0  0.74049  0.27569  0.15879  1.0000
  C   C729      1.0  0.71256  0.26965  0.15827  1.0000
  C   C730      1.0  0.69376  0.27657  0.17974  1.0000
  C   C731      1.0  0.70360  0.28802  0.20233  1.0000
  C   C732      1.0  0.73158  0.29366  0.20304  1.0000
  H   H582      1.0  0.75457  0.27132  0.14158  1.0000
  H   H583      1.0  0.70532  0.26087  0.14072  1.0000
  H   H584      1.0  0.68931  0.29298  0.21918  1.0000
  H   H585      1.0  0.73865  0.30299  0.22033  1.0000
  H   H586      1.0  0.95779  0.22549  0.24084  1.0000
  C   C733      1.0  0.54759  0.21663  0.23762  1.0000
  H   H587      1.0  0.88281  0.31955  0.16575  1.0000
  C   C734      1.0  0.93889  0.44887  0.17316  1.0000
  H   H588      1.0  0.67450  0.42301  0.16445  1.0000
  H   H589      1.0  0.94406  0.46470  0.15755  1.0000
  C   C735      1.0  0.63161  0.23512  0.99633  1.0000
  H   H590      1.0  0.63916  0.25531  0.99781  1.0000
  C   C736      1.0  0.64365  0.44756  0.18670  1.0000
  C   C737      1.0  0.61765  0.19191  0.01779  1.0000
  C   C738      1.0  0.62719  0.21804  0.02022  1.0000
  H   H591      1.0  0.52456  0.21123  0.00967  1.0000
  H   H592      1.0  0.61452  0.17828  0.03576  1.0000
  C   C739      1.0  0.87689  0.22326  0.28746  1.0000
  C   C740      1.0  0.52317  0.16997  0.02913  1.0000
  H   H593      1.0  0.53794  0.12466  0.25368  1.0000
  C   C741      1.0  0.81029  0.43355  0.25399  1.0000
  C   C742      1.0  0.83412  0.43558  0.23677  1.0000
  C   C743      1.0  0.64369  0.05380  0.27270  1.0000
  H   H594      1.0  0.83586  0.22458  0.22598  1.0000
  C   C744      1.0  0.67509  0.34415  0.15512  1.0000
  C   C745      1.0  0.69737  0.33512  0.13806  1.0000
  C   C746      1.0  0.72361  0.34387  0.14122  1.0000
  C   C747      1.0  0.72760  0.36188  0.16126  1.0000
  C   C748      1.0  0.70519  0.37160  0.17810  1.0000
  C   C749      1.0  0.67895  0.36227  0.17509  1.0000
  P   P24       1.0  0.70999  0.39443  0.20456  1.0000
  C   C750      1.0  0.71423  0.37455  0.23643  1.0000
  C   C751      1.0  0.74014  0.41371  0.19619  1.0000
  H   H595      1.0  0.71760  0.45258  0.18523  1.0000
  H   H596      1.0  0.74554  0.37645  0.29599  1.0000
  H   H597      1.0  0.65876  0.04469  0.14814  1.0000
  H   H598      1.0  0.89616  0.35720  0.30225  1.0000
  C   C752      1.0  0.76657  0.40074  0.19915  1.0000
  C   C753      1.0  0.72942  0.38447  0.25648  1.0000
  C   C754      1.0  0.70203  0.34932  0.24167  1.0000
  C   C755      1.0  0.67994  0.41822  0.20773  1.0000
  C   C756      1.0  0.66983  0.42665  0.23330  1.0000
  H   H599      1.0  0.95048  0.25269  0.15641  1.0000
  C   C757      1.0  0.62915  0.07012  0.29173  1.0000
  H   H600      1.0  0.65502  0.33630  0.15339  1.0000
  H   H601      1.0  0.69444  0.32046  0.12312  1.0000
  H   H602      1.0  0.74110  0.33590  0.12876  1.0000
  H   H603      1.0  0.74826  0.36766  0.16366  1.0000
  H   H604      1.0  0.66152  0.36852  0.18850  1.0000
  S   S112      1.0  0.64664  0.13801  0.30593  1.0000
  H   H605      1.0  0.80548  0.45524  0.18137  1.0000
  C   C758      1.0  0.79592  0.45803  0.26212  1.0000
  C   C759      1.0  0.49435  0.19085  0.23712  1.0000
  H   H606      1.0  0.76911  0.37921  0.20637  1.0000
  H   H607      1.0  0.73896  0.40396  0.25305  1.0000
  H   H608      1.0  0.69002  0.34133  0.22671  1.0000
  H   H609      1.0  0.67977  0.41895  0.25155  1.0000
  C   C760      1.0  0.81862  0.18675  0.21746  1.0000
  C   C761      1.0  0.79258  0.23084  0.21958  1.0000
  C   C762      1.0  0.76872  0.21857  0.21397  1.0000
  C   C763      1.0  0.76960  0.19021  0.21012  1.0000
  C   C764      1.0  0.79474  0.17435  0.21183  1.0000
  P   P25       1.0  0.73866  0.17497  0.20211  1.0000
  C   C765      1.0  0.74247  0.13788  0.20856  1.0000
  C   C766      1.0  0.71094  0.19028  0.22330  1.0000
  C   C767      1.0  0.71399  0.19137  0.25130  1.0000
  C   C768      1.0  0.69314  0.20407  0.26779  1.0000
  C   C769      1.0  0.66950  0.21655  0.25634  1.0000
  C   C770      1.0  0.66665  0.21622  0.22841  1.0000
  C   C771      1.0  0.68715  0.20297  0.21193  1.0000
  C   C772      1.0  0.75562  0.12156  0.18853  1.0000
  C   C773      1.0  0.75786  0.09281  0.19263  1.0000
  C   C774      1.0  0.74728  0.08012  0.21687  1.0000
  C   C775      1.0  0.73471  0.09618  0.23711  1.0000
  C   C776      1.0  0.73231  0.12494  0.23305  1.0000
  C   C777      1.0  0.73270  0.18193  0.16651  1.0000
  C   C778      1.0  0.74565  0.20311  0.15097  1.0000
  C   C779      1.0  0.74161  0.20744  0.12318  1.0000
  C   C780      1.0  0.72492  0.19048  0.11067  1.0000
  C   C781      1.0  0.71199  0.16936  0.12602  1.0000
  C   C782      1.0  0.71545  0.16540  0.15390  1.0000
  H   H610      1.0  0.79155  0.25271  0.22275  1.0000
  H   H611      1.0  0.74958  0.23129  0.21254  1.0000
  H   H612      1.0  0.79596  0.15245  0.20911  1.0000
  H   H613      1.0  0.73252  0.18242  0.26043  1.0000
  C   C783      1.0  0.55724  0.16043  0.28948  1.0000
  H   H614      1.0  0.65336  0.22640  0.26909  1.0000
  H   H615      1.0  0.64847  0.22614  0.21942  1.0000
  H   H616      1.0  0.68436  0.20300  0.19038  1.0000
  H   H617      1.0  0.76395  0.13107  0.16960  1.0000
  H   H618      1.0  0.76767  0.08038  0.17692  1.0000
  H   H619      1.0  0.72215  0.13676  0.24897  1.0000
  H   H620      1.0  0.75861  0.21653  0.16018  1.0000
  H   H621      1.0  0.75110  0.22423  0.11142  1.0000
  H   H622      1.0  0.72136  0.19418  0.08925  1.0000
  H   H623      1.0  0.69833  0.15677  0.11654  1.0000
  H   H624      1.0  0.70451  0.14954  0.16567  1.0000
  C   C784      1.0  0.54998  0.13398  0.11577  1.0000
  C   C785      1.0  0.53017  0.11870  0.13045  1.0000
  C   C786      1.0  0.97061  0.42341  0.26694  1.0000
  C   C787      1.0  0.87889  0.29784  0.16743  1.0000
  H   H625      1.0  0.57136  0.13137  0.12088  1.0000
  H   H626      1.0  0.53608  0.10443  0.14720  1.0000
  H   H627      1.0  0.49658  0.27689  0.09013  1.0000
  H   H628      1.0  0.62845  0.98065  0.25957  1.0000
  H   H629      1.0  0.94567  0.12713  0.19928  1.0000
  C   C788      1.0  0.72122  0.34364  0.28591  1.0000
  C   C789      1.0  0.81752  0.21499  0.22127  1.0000
  C   C790      1.0  0.76333  0.00289  0.24384  1.0000
  H   H630      1.0  0.56021  0.20297  0.05284  1.0000
  H   H631      1.0  0.90955  0.26622  0.24095  1.0000
  C   C791      1.0  0.78999  0.41558  0.19328  1.0000
  C   C792      1.0  0.93412  0.43325  0.22092  1.0000
  H   H632      1.0  0.83786  0.17440  0.21919  1.0000
  H   H633      1.0  0.58664  0.10286  0.18199  1.0000
  C   C793      1.0  0.91751  0.16538  0.14651  1.0000
  C   C794      1.0  0.84853  0.26145  0.16266  1.0000
  H   H634      1.0  0.69689  0.31398  0.26980  1.0000
  C   C795      1.0  0.72495  0.02957  0.27940  1.0000
  C   C796      1.0  0.70568  0.33384  0.26625  1.0000
  C   C797      1.0  0.88900  0.20051  0.24580  1.0000
  C   C798      1.0  0.90110  0.24741  0.24980  1.0000
  H   H635      1.0  0.77821  0.99222  0.23033  1.0000
  H   H636      1.0  0.91651  0.28597  0.18649  1.0000
  H   H637      1.0  0.52233  0.23148  0.20436  1.0000
  C   C799      1.0  0.53040  0.14187  0.02603  1.0000
  H   H638      1.0  0.88142  0.45734  0.27744  1.0000
  C   C800      1.0  0.54659  0.15870  0.22446  1.0000
  C   C801      1.0  0.55839  0.16583  0.19854  1.0000
  C   C802      1.0  0.57258  0.14564  0.18331  1.0000
  C   C803      1.0  0.57477  0.11818  0.19356  1.0000
  C   C804      1.0  0.56201  0.11070  0.21884  1.0000
  C   C805      1.0  0.54773  0.13083  0.23416  1.0000
  C   C806      1.0  0.66168  0.00200  0.20567  1.0000
  H   H639      1.0  0.55702  0.18699  0.19017  1.0000
  H   H640      1.0  0.58268  0.15143  0.16387  1.0000
  C   C807      1.0  0.73294  0.36903  0.28107  1.0000
  C   C808      1.0  0.88890  0.24695  0.27618  1.0000
  H   H641      1.0  0.61809  0.08925  0.28506  1.0000
  C   C809      1.0  0.85420  0.28925  0.15907  1.0000
  H   H642      1.0  0.74875  0.05786  0.21996  1.0000
  H   H643      1.0  0.72655  0.08639  0.25592  1.0000
  P   P26       1.0  0.53014  0.18509  0.24506  1.0000
  H   H644      1.0  0.90542  0.20858  0.14598  1.0000
  H   H645      1.0  0.55120  0.11192  0.00029  1.0000
  H   H646      1.0  0.91517  0.38444  0.18077  1.0000
  C   C810      1.0  0.51017  0.26084  0.08137  1.0000
  H   H647      1.0  0.60687  0.16232  0.99033  1.0000
  C   C811      1.0  0.58529  0.24521  0.24452  1.0000
  H   H648      1.0  0.86254  0.22090  0.17783  1.0000
  C   C812      1.0  0.57078  0.22172  0.25161  1.0000
  C   C813      1.0  0.54228  0.15280  0.09448  1.0000
  C   C814      1.0  0.51774  0.21416  0.06642  1.0000
  C   C815      1.0  0.92251  0.40377  0.18614  1.0000
  C   C816      1.0  0.94163  0.45332  0.20049  1.0000
  C   C817      1.0  0.54511  0.18109  0.98458  1.0000
  C   C818      1.0  0.92498  0.40825  0.21347  1.0000
  H   H649      1.0  0.82881  0.25514  0.15716  1.0000
  H   H650      1.0  0.68873  0.05978  0.22514  1.0000
  C   C819      1.0  0.92930  0.42412  0.16598  1.0000
  H   H651      1.0  0.83901  0.30427  0.15063  1.0000
  C   C820      1.0  0.91340  0.19083  0.15818  1.0000
  C   C821      1.0  0.90155  0.22413  0.23453  1.0000
  C   C822      1.0  0.86766  0.24218  0.17442  1.0000
  H   H652      1.0  0.93375  0.38167  0.27794  1.0000
  C   C823      1.0  0.89278  0.25057  0.18239  1.0000
  C   C824      1.0  0.91464  0.39325  0.28358  1.0000
  H   H653      1.0  0.60348  0.24872  0.25498  1.0000
  C   C825      1.0  0.53283  0.17438  0.28064  1.0000
  C   C826      1.0  0.91997  0.19325  0.18515  1.0000
  H   H654      1.0  0.91218  0.16359  0.12577  1.0000
  H   H655      1.0  0.91962  0.39206  0.22859  1.0000
  C   C827      1.0  0.55587  0.24411  0.06559  1.0000
  C   C828      1.0  0.89806  0.27862  0.17916  1.0000
  C   C829      1.0  0.51105  0.18028  0.29980  1.0000
  H   H656      1.0  0.55798  0.16434  0.08336  1.0000
  P   P27       1.0  0.91618  0.22622  0.20004  1.0000
  C   C830      1.0  0.91083  0.42162  0.27616  1.0000
  C   C831      1.0  0.87695  0.20004  0.27229  1.0000
  H   H657      1.0  0.56355  0.08937  0.22673  1.0000
  H   H658      1.0  0.49201  0.19098  0.29363  1.0000
  C   C832      1.0  0.51466  0.15649  0.08762  1.0000
  C   C833      1.0  0.53006  0.18946  0.00792  1.0000
  H   H659      1.0  0.88809  0.26526  0.28761  1.0000
  C   C834      1.0  0.57681  0.26385  0.22344  1.0000
  H   H660      1.0  0.88785  0.18271  0.23412  1.0000
  H   H661      1.0  0.54610  0.28439  0.08033  1.0000
  C   C835      1.0  0.53809  0.26508  0.07595  1.0000
  H   H662      1.0  0.67920  0.07572  0.17791  1.0000
  C   C836      1.0  0.93639  0.14485  0.18790  1.0000
  C   C837      1.0  0.54584  0.21878  0.06092  1.0000
  C   C838      1.0  0.80086  0.18608  0.29406  1.0000
  C   C839      1.0  0.92883  0.14235  0.16141  1.0000
  C   C840      1.0  0.67282  0.01963  0.22282  1.0000
  H   H663      1.0  0.48938  0.23183  0.25203  1.0000
  C   C841      1.0  0.80593  0.21439  0.29131  1.0000
  H   H664      1.0  0.77754  0.45674  0.27551  1.0000
  C   C842      1.0  0.67975  0.04600  0.21238  1.0000
  C   C843      1.0  0.61320  0.18293  0.99187  1.0000
  P   P28       1.0  0.50522  0.18108  0.06003  1.0000
  C   C844      1.0  0.96202  0.25039  0.17455  1.0000
  C   C845      1.0  0.88544  0.43570  0.28314  1.0000
  H   H665      1.0  0.52496  0.12643  0.04192  1.0000
  C   C846      1.0  0.84315  0.46173  0.22759  1.0000
  C   C847      1.0  0.55268  0.15317  0.98182  1.0000
  C   C848      1.0  0.49501  0.14039  0.10198  1.0000
  H   H666      1.0  0.82115  0.22184  0.27634  1.0000
  H   H667      1.0  0.54763  0.27297  0.19253  1.0000
  H   H668      1.0  0.58854  0.28160  0.21738  1.0000
  H   H669      1.0  0.93885  0.17207  0.21994  1.0000
  H   H670      1.0  0.81026  0.40553  0.19600  1.0000
  C   C849      1.0  0.53940  0.23537  0.21628  1.0000
  C   C850      1.0  0.67188  0.97332  0.26651  1.0000
  C   C851      1.0  0.95040  0.23836  0.19887  1.0000
  H   H671      1.0  0.64789  0.99743  0.16572  1.0000
  C   C852      1.0  0.93229  0.17027  0.19962  1.0000
  C   C853      1.0  0.55378  0.25899  0.20945  1.0000
  C   C854      1.0  0.86809  0.39335  0.30396  1.0000
  H   H672      1.0  0.86688  0.18199  0.28089  1.0000
  C   C855      1.0  0.73759  0.44185  0.18749  1.0000
  C   C856      1.0  0.50001  0.23553  0.07671  1.0000
  C   C857      1.0  0.66289  0.03760  0.16886  1.0000
  H   H673      1.0  0.49198  0.15125  0.22003  1.0000
  C   C858      1.0  0.65901  0.02956  0.28135  1.0000
  C   C859      1.0  0.63358  0.45569  0.21224  1.0000
  H   H674      1.0  0.64299  0.06054  0.25148  1.0000
  P   P29       1.0  0.93783  0.43883  0.25625  1.0000
  C   C860      1.0  0.86424  0.42158  0.29703  1.0000
  C   C861      1.0  0.66679  0.42895  0.18442  1.0000
  C   C862      1.0  0.73515  0.99967  0.24236  1.0000
  H   H675      1.0  0.69540  0.20422  0.28945  1.0000
  H   H676      1.0  0.96104  0.34871  0.20006  1.0000
  C   C863      1.0  0.78728  0.44359  0.18501  1.0000
  H   H677      1.0  0.47683  0.26604  0.14357  1.0000
  C   C864      1.0  0.71577  0.01286  0.26027  1.0000
  H   H678      1.0  0.71057  0.03958  0.29377  1.0000
  C   C865      1.0  0.75309  0.03328  0.28039  1.0000
  H   H679      1.0  0.72467  0.33132  0.30465  1.0000
  C   C866      1.0  0.64669  0.44528  0.23551  1.0000
  P   P30       1.0  0.67950  0.00876  0.25764  1.0000
  H   H680      1.0  0.93211  0.12267  0.15229  1.0000
  H   H681      1.0  0.79411  0.02221  0.26409  1.0000
  H   H682      1.0  0.63894  0.45166  0.25530  1.0000
  C   C867      1.0  0.54514  0.13354  0.00242  1.0000
  C   C868      1.0  0.76110  0.45672  0.18207  1.0000
  C   C869      1.0  0.65667  0.01104  0.17882  1.0000
  H   H683      1.0  0.81229  0.17189  0.28094  1.0000
  H   H684      1.0  0.65697  0.98127  0.21277  1.0000
  H   H685      1.0  0.47844  0.23296  0.08155  1.0000
  C   C870      1.0  0.47590  0.24386  0.14578  1.0000
  H   H686      1.0  0.72843  0.98661  0.22751  1.0000
  H   H687      1.0  0.86144  0.46293  0.21408  1.0000
  C   C871      1.0  0.89333  0.37922  0.29735  1.0000
  C   C872      1.0  0.96605  0.23501  0.22192  1.0000
  H   H688      1.0  0.47758  0.24218  0.02524  1.0000
  H   H689      1.0  0.47366  0.14206  0.09695  1.0000
  H   H690      1.0  0.76002  0.04610  0.29537  1.0000
  H   H691      1.0  0.84441  0.43236  0.30162  1.0000
  C   C873      1.0  0.47963  0.21596  0.24254  1.0000
  C   C874      1.0  0.96538  0.33428  0.21712  1.0000
  H   H692      1.0  0.63355  0.45568  0.16864  1.0000
  H   H693      1.0  0.48731  0.10990  0.13475  1.0000
  H   H694      1.0  0.48124  0.22564  0.97918  1.0000
  C   C875      1.0  0.48117  0.17069  0.22471  1.0000
  C   C876      1.0  0.74683  0.01958  0.51831  1.0000
  Fe  Fe57      1.0  0.72306  0.11981  0.59744  1.0000
  S   S113      1.0  0.75721  0.09751  0.62114  1.0000
  S   S114      1.0  0.73509  0.12111  0.55139  1.0000
  H   H695      1.0  0.74895  0.96827  0.59381  1.0000
  H   H696      1.0  0.65605  0.01488  0.45100  1.0000
  C   C877      1.0  0.63621  0.05872  0.61803  1.0000
  C   C878      1.0  0.67719  0.00627  0.45105  1.0000
  S   S115      1.0  0.68912  0.09852  0.62227  1.0000
  S   S116      1.0  0.71969  0.15653  0.62368  1.0000
  Fe  Fe58      1.0  0.71368  0.06355  0.35189  1.0000
  S   S117      1.0  0.67459  0.08661  0.36709  1.0000
  C   C879      1.0  0.69880  0.02363  0.44562  1.0000
  Fe  Fe59      1.0  0.74136  0.11884  0.34046  1.0000
  S   S118      1.0  0.70423  0.14394  0.35636  1.0000
  Fe  Fe60      1.0  0.70162  0.11066  0.39067  1.0000
  S   S119      1.0  0.68469  0.11579  0.43486  1.0000
  H   H697      1.0  0.60122  0.07606  0.47750  1.0000
  S   S120      1.0  0.74069  0.08693  0.37647  1.0000
  H   H698      1.0  0.57915  0.14237  0.32354  1.0000
  C   C880      1.0  0.72044  0.11812  0.51950  1.0000
  C   C881      1.0  0.73821  0.11510  0.49606  1.0000
  C   C882      1.0  0.72779  0.11415  0.47009  1.0000
  C   C883      1.0  0.69932  0.11631  0.46713  1.0000
  C   C884      1.0  0.68155  0.11926  0.49057  1.0000
  C   C885      1.0  0.69196  0.11994  0.51656  1.0000
  H   H699      1.0  0.76027  0.11378  0.49799  1.0000
  H   H700      1.0  0.74180  0.11203  0.45238  1.0000
  H   H701      1.0  0.65949  0.12126  0.48861  1.0000
  H   H702      1.0  0.67798  0.12244  0.53424  1.0000
  C   C886      1.0  0.68277  0.97783  0.45600  1.0000
  H   H703      1.0  0.54039  0.15277  0.35727  1.0000
  H   H704      1.0  0.75780  0.99826  0.32505  1.0000
  H   H705      1.0  0.75278  0.06311  0.56827  1.0000
  H   H706      1.0  0.60921  0.02671  0.55235  1.0000
  C   C887      1.0  0.60210  0.05118  0.51533  1.0000
  H   H707      1.0  0.84877  0.24684  0.64154  1.0000
  S   S121      1.0  0.77805  0.13959  0.31851  1.0000
  C   C888      1.0  0.70454  0.02321  0.54712  1.0000
  C   C889      1.0  0.66634  0.97846  0.55351  1.0000
  H   H708      1.0  0.67537  0.98758  0.60840  1.0000
  H   H709      1.0  0.57990  0.05269  0.51909  1.0000
  C   C890      1.0  0.76659  0.19470  0.33049  1.0000
  C   C891      1.0  0.72123  0.98413  0.34651  1.0000
  S   S122      1.0  0.70814  0.01684  0.35785  1.0000
  C   C892      1.0  0.65944  0.04812  0.50605  1.0000
  C   C893      1.0  0.64428  0.05104  0.59179  1.0000
  H   H710      1.0  0.70726  0.96779  0.56759  1.0000
  H   H711      1.0  0.74274  0.02608  0.44080  1.0000
  H   H712      1.0  0.75301  0.97592  0.44965  1.0000
  C   C894      1.0  0.73602  0.99705  0.62422  1.0000
  C   C895      1.0  0.62964  0.06236  0.31943  1.0000
  C   C896      1.0  0.74368  0.04868  0.55627  1.0000
  H   H713      1.0  0.77950  0.04387  0.52887  1.0000
  C   C897      1.0  0.68927  0.22148  0.37342  1.0000
  H   H714      1.0  0.75915  0.20186  0.63949  1.0000
  C   C898      1.0  0.67537  0.18532  0.40641  1.0000
  H   H715      1.0  0.64049  0.06572  0.57476  1.0000
  H   H716      1.0  0.70361  0.17284  0.43720  1.0000
  Fe  Fe61      1.0  0.68085  0.11740  0.33158  1.0000
  H   H717      1.0  0.62441  0.98105  0.54067  1.0000
  H   H718      1.0  0.65174  0.20066  0.37253  1.0000
  C   C899      1.0  0.67021  0.20250  0.38321  1.0000
  C   C900      1.0  0.66397  0.00728  0.61059  1.0000
  C   C901      1.0  0.64761  0.03438  0.52943  1.0000
  C   C902      1.0  0.64269  0.06285  0.48735  1.0000
  C   C903      1.0  0.53823  0.15871  0.33594  1.0000
  C   C904      1.0  0.69966  0.18691  0.41969  1.0000
  C   C905      1.0  0.61406  0.06435  0.49193  1.0000
  C   C906      1.0  0.78943  0.14240  0.38930  1.0000
  C   C907      1.0  0.81720  0.14573  0.39280  1.0000
  C   C908      1.0  0.82458  0.16728  0.40752  1.0000
  C   C909      1.0  0.80419  0.18576  0.41836  1.0000
  C   C910      1.0  0.77623  0.18286  0.41444  1.0000
  C   C911      1.0  0.76894  0.16072  0.40024  1.0000
  P   P31       1.0  0.75028  0.20777  0.42736  1.0000
  C   C912      1.0  0.74307  0.20090  0.46345  1.0000
  C   C913      1.0  0.76283  0.24174  0.42015  1.0000
  C   C914      1.0  0.75590  0.26289  0.43779  1.0000
  C   C915      1.0  0.76501  0.28934  0.43141  1.0000
  H   H719      1.0  0.69445  0.04564  0.44130  1.0000
  H   H720      1.0  0.66092  0.17015  0.41372  1.0000
  C   C916      1.0  0.77910  0.24744  0.39617  1.0000
  C   C917      1.0  0.71822  0.21157  0.47595  1.0000
  C   C918      1.0  0.71205  0.20564  0.50367  1.0000
  C   C919      1.0  0.73070  0.18922  0.51915  1.0000
  C   C920      1.0  0.75556  0.17878  0.50696  1.0000
  C   C921      1.0  0.76172  0.18444  0.47920  1.0000
  C   C922      1.0  0.71882  0.20608  0.41014  1.0000
  C   C923      1.0  0.71342  0.22338  0.38688  1.0000
  H   H721      1.0  0.78384  0.12590  0.37757  1.0000
  H   H722      1.0  0.83293  0.13167  0.38390  1.0000
  H   H723      1.0  0.84612  0.16986  0.41025  1.0000
  H   H724      1.0  0.81022  0.20254  0.42951  1.0000
  H   H725      1.0  0.74760  0.15776  0.39710  1.0000
  H   H726      1.0  0.74342  0.25914  0.45638  1.0000
  H   H727      1.0  0.75959  0.30561  0.44507  1.0000
  C   C924      1.0  0.72605  0.01257  0.44534  1.0000
  H   H728      1.0  0.78775  0.31540  0.40225  1.0000
  H   H729      1.0  0.74242  0.01490  0.61183  1.0000
  H   H730      1.0  0.70342  0.22412  0.46419  1.0000
  H   H731      1.0  0.69261  0.21335  0.51312  1.0000
  H   H732      1.0  0.72570  0.18396  0.54050  1.0000
  H   H733      1.0  0.76958  0.16544  0.51899  1.0000
  H   H734      1.0  0.78076  0.17545  0.47019  1.0000
  C   C925      1.0  0.75874  0.03781  0.53403  1.0000
  H   H735      1.0  0.72783  0.23819  0.37888  1.0000
  C   C926      1.0  0.78091  0.29487  0.40734  1.0000
  H   H736      1.0  0.61911  0.07555  0.33415  1.0000
  C   C927      1.0  0.71983  0.01220  0.52486  1.0000
  H   H737      1.0  0.78473  0.23151  0.38220  1.0000
  H   H738      1.0  0.80000  0.27817  0.37085  1.0000
  H   H739      1.0  0.76089  0.23717  0.34111  1.0000
  C   C928      1.0  0.78792  0.27391  0.38972  1.0000
  H   H740      1.0  0.71057  0.99850  0.51225  1.0000
  H   H741      1.0  0.75840  0.01155  0.50082  1.0000
  C   C929      1.0  0.61878  0.03636  0.53406  1.0000
  C   C930      1.0  0.71661  0.04165  0.56270  1.0000
  H   H742      1.0  0.70527  0.05086  0.57973  1.0000
  H   H743      1.0  0.68550  0.23451  0.35519  1.0000
  P   P32       1.0  0.66900  0.01536  0.55400  1.0000
  H   H744      1.0  0.62616  0.07895  0.62103  1.0000
  H   H745      1.0  0.66286  0.29180  0.62721  1.0000
  H   H746      1.0  0.68155  0.04804  0.50221  1.0000
  C   C931      1.0  0.55999  0.15277  0.31699  1.0000
  C   C932      1.0  0.65786  0.02505  0.58783  1.0000
  H   H747      1.0  0.65201  0.07352  0.46943  1.0000
  H   H748      1.0  0.64504  0.03205  0.34964  1.0000
  S   S123      1.0  0.71792  0.09308  0.31466  1.0000
  H   H749      1.0  0.85829  0.29607  0.64169  1.0000
  C   C933      1.0  0.64173  0.96766  0.54703  1.0000
  H   H750      1.0  0.67035  0.00293  0.31636  1.0000
  H   H751      1.0  0.75147  0.18737  0.34576  1.0000
  C   C934      1.0  0.51375  0.17238  0.32734  1.0000
  H   H752      1.0  0.66295  0.24110  0.62376  1.0000
  C   C935      1.0  0.73174  0.98415  0.45029  1.0000
  C   C936      1.0  0.73966  0.97051  0.61405  1.0000
  C   C937      1.0  0.74573  0.98074  0.33040  1.0000
  C   C938      1.0  0.65618  0.01520  0.63678  1.0000
  C   C939      1.0  0.78148  0.17592  0.31395  1.0000
  C   C940      1.0  0.77208  0.22292  0.32797  1.0000
  C   C941      1.0  0.64421  0.03794  0.32812  1.0000
  H   H753      1.0  0.85124  0.38237  0.31391  1.0000
  C   C942      1.0  0.64235  0.04088  0.64053  1.0000
  H   H754      1.0  0.49688  0.17697  0.34205  1.0000
  C   C943      1.0  0.65870  0.02152  0.30918  1.0000
  H   H755      1.0  0.96042  0.42875  0.30961  1.0000
  S   S124      1.0  0.80182  0.26751  0.30964  1.0000
  C   C944      1.0  0.79218  0.23287  0.30877  1.0000
  Fe  Fe62      1.0  0.81546  0.30422  0.70820  1.0000
  S   S125      1.0  0.84370  0.28255  0.73806  1.0000
  H   H756      1.0  0.84769  0.41755  0.70928  1.0000
  Fe  Fe63      1.0  0.81481  0.35973  0.73623  1.0000
  S   S126      1.0  0.84184  0.34053  0.76865  1.0000
  S   S127      1.0  0.79572  0.40398  0.73876  1.0000
  Fe  Fe64      1.0  0.86737  0.32127  0.73435  1.0000
  S   S128      1.0  0.91303  0.32972  0.72394  1.0000
  Fe  Fe65      1.0  0.81549  0.30401  0.76942  1.0000
  S   S129      1.0  0.79681  0.28002  0.80675  1.0000
  S   S130      1.0  0.84065  0.34167  0.70179  1.0000
  S   S131      1.0  0.78692  0.32442  0.73957  1.0000
  Fe  Fe66      1.0  0.57673  0.23451  0.84825  1.0000
  S   S132      1.0  0.58735  0.19039  0.86199  1.0000
  S   S133      1.0  0.53302  0.25395  0.84125  1.0000
  Fe  Fe67      1.0  0.63814  0.24826  0.84772  1.0000
  S   S134      1.0  0.65184  0.20497  0.86216  1.0000
  S   S135      1.0  0.66627  0.28332  0.83525  1.0000
  Fe  Fe68      1.0  0.62366  0.19236  0.83121  1.0000
  S   S136      1.0  0.63845  0.15758  0.80352  1.0000
  Fe  Fe69      1.0  0.61435  0.20731  0.89179  1.0000
  S   S137      1.0  0.61056  0.18774  0.93579  1.0000
  S   S138      1.0  0.61151  0.23550  0.81567  1.0000
  S   S139      1.0  0.60220  0.25158  0.87906  1.0000
  S   S140      1.0  0.72114  0.11099  0.67632  1.0000
  S   S141      1.0  0.65221  0.15510  0.67360  1.0000
  C   C945      1.0  0.50103  0.23800  0.84138  1.0000
  H   H757      1.0  0.76317  0.25212  0.64299  1.0000
  C   C946      1.0  0.94104  0.41541  0.67682  1.0000
  C   C947      1.0  0.79338  0.24700  0.67330  1.0000
  C   C948      1.0  0.84756  0.42430  0.85868  1.0000
  C   C949      1.0  0.49914  0.20952  0.84630  1.0000
  S   S142      1.0  0.72065  0.03312  0.66517  1.0000
  H   H758      1.0  0.77862  0.45991  0.75035  1.0000
  H   H759      1.0  0.51756  0.19644  0.85018  1.0000
  H   H760      1.0  0.55377  0.10280  0.76791  1.0000
  H   H761      1.0  0.48667  0.24766  0.90916  1.0000
  H   H762      1.0  0.93129  0.37124  0.76378  1.0000
  C   C950      1.0  0.66426  0.24953  0.64333  1.0000
  H   H763      1.0  0.62987  0.23995  0.95247  1.0000
  C   C951      1.0  0.64261  0.15813  0.76732  1.0000
  C   C952      1.0  0.65680  0.13546  0.75528  1.0000
  C   C953      1.0  0.66024  0.13455  0.72678  1.0000
  C   C954      1.0  0.64939  0.15626  0.70977  1.0000
  C   C955      1.0  0.63489  0.17885  0.72179  1.0000
  C   C956      1.0  0.63164  0.17989  0.75037  1.0000
  H   H764      1.0  0.66510  0.11834  0.76807  1.0000
  H   H765      1.0  0.67096  0.11677  0.71798  1.0000
  H   H766      1.0  0.62598  0.19558  0.70893  1.0000
  H   H767      1.0  0.62026  0.19726  0.75925  1.0000
  H   H768      1.0  0.49009  0.19981  0.74406  1.0000
  C   C957      1.0  0.76044  0.28102  0.81447  1.0000
  C   C958      1.0  0.74922  0.26063  0.83270  1.0000
  C   C959      1.0  0.72043  0.26049  0.83871  1.0000
  C   C960      1.0  0.70253  0.28118  0.82706  1.0000
  C   C961      1.0  0.71384  0.30184  0.80929  1.0000
  C   C962      1.0  0.74249  0.30157  0.80275  1.0000
  H   H769      1.0  0.76281  0.24468  0.84198  1.0000
  H   H770      1.0  0.71210  0.24466  0.85266  1.0000
  H   H771      1.0  0.70031  0.31807  0.80034  1.0000
  H   H772      1.0  0.75064  0.31745  0.78883  1.0000
  H   H773      1.0  0.82314  0.23467  0.70289  1.0000
  C   C963      1.0  0.86825  0.40380  0.77711  1.0000
  C   C964      1.0  0.83722  0.43645  0.71596  1.0000
  C   C965      1.0  0.81178  0.43551  0.73072  1.0000
  H   H774      1.0  0.91472  0.27638  0.70438  1.0000
  C   C966      1.0  0.66854  0.27096  0.69410  1.0000
  C   C967      1.0  0.52529  0.19464  0.76917  1.0000
  C   C968      1.0  0.58850  0.30010  0.74062  1.0000
  C   C969      1.0  0.58618  0.30429  0.76842  1.0000
  C   C970      1.0  0.60988  0.30367  0.78301  1.0000
  C   C971      1.0  0.63583  0.29866  0.76991  1.0000
  C   C972      1.0  0.63840  0.29410  0.74213  1.0000
  C   C973      1.0  0.61453  0.29505  0.72746  1.0000
  P   P33       1.0  0.67207  0.28506  0.72648  1.0000
  C   C974      1.0  0.69312  0.31435  0.72138  1.0000
  C   C975      1.0  0.68831  0.25931  0.74938  1.0000
  C   C976      1.0  0.71606  0.26040  0.75511  1.0000
  C   C977      1.0  0.72791  0.24121  0.77398  1.0000
  C   C978      1.0  0.71220  0.22098  0.78736  1.0000
  C   C979      1.0  0.71598  0.31351  0.70250  1.0000
  C   C980      1.0  0.73309  0.33550  0.69907  1.0000
  C   C981      1.0  0.72786  0.35832  0.71476  1.0000
  C   C982      1.0  0.70534  0.35921  0.73375  1.0000
  C   C983      1.0  0.68798  0.33736  0.73705  1.0000
  C   C984      1.0  0.68469  0.21958  0.78165  1.0000
  H   H775      1.0  0.56606  0.30771  0.77881  1.0000
  H   H776      1.0  0.65397  0.29768  0.78161  1.0000
  H   H777      1.0  0.61585  0.29136  0.70607  1.0000
  H   H778      1.0  0.72865  0.27615  0.74549  1.0000
  H   H779      1.0  0.74929  0.24221  0.77839  1.0000
  H   H780      1.0  0.72123  0.20673  0.80247  1.0000
  H   H781      1.0  0.72111  0.29554  0.69091  1.0000
  H   H782      1.0  0.75105  0.33434  0.68492  1.0000
  H   H783      1.0  0.74173  0.37494  0.71271  1.0000
  H   H784      1.0  0.70167  0.37665  0.74628  1.0000
  H   H785      1.0  0.67098  0.33833  0.75219  1.0000
  C   C985      1.0  0.53729  0.14496  0.80578  1.0000
  H   H786      1.0  0.66941  0.22812  0.70969  1.0000
  C   C986      1.0  0.86275  0.20368  0.74396  1.0000
  H   H787      1.0  0.57012  0.30041  0.72935  1.0000
  C   C987      1.0  0.74921  0.17261  0.84247  1.0000
  C   C988      1.0  0.72168  0.16881  0.85071  1.0000
  C   C989      1.0  0.70522  0.15565  0.83416  1.0000
  C   C990      1.0  0.71627  0.14604  0.80949  1.0000
  C   C991      1.0  0.74427  0.14847  0.80169  1.0000
  C   C992      1.0  0.76042  0.16274  0.81792  1.0000
  P   P34       1.0  0.75799  0.13709  0.76922  1.0000
  C   C993      1.0  0.74732  0.10375  0.76176  1.0000
  C   C994      1.0  0.74679  0.16369  0.74441  1.0000
  C   C995      1.0  0.72567  0.15962  0.72741  1.0000
  C   C996      1.0  0.71740  0.18037  0.70807  1.0000
  C   C997      1.0  0.72970  0.20551  0.70604  1.0000
  C   C998      1.0  0.75031  0.20991  0.72330  1.0000
  C   C999      1.0  0.75885  0.18912  0.74245  1.0000
  C   C1000     1.0  0.75344  0.09432  0.73569  1.0000
  C   C1001     1.0  0.74557  0.06853  0.72940  1.0000
  C   C1002     1.0  0.73171  0.05187  0.74911  1.0000
  C   C1003     1.0  0.72627  0.06070  0.77535  1.0000
  C   C1004     1.0  0.73431  0.08640  0.78179  1.0000
  C   C1005     1.0  0.79514  0.13288  0.76725  1.0000
  C   C1006     1.0  0.80929  0.12152  0.78969  1.0000
  C   C1007     1.0  0.83807  0.11761  0.78783  1.0000
  C   C1008     1.0  0.85282  0.12429  0.76335  1.0000
  C   C1009     1.0  0.83877  0.13467  0.74063  1.0000
  C   C1010     1.0  0.81003  0.13886  0.74254  1.0000
  H   H788      1.0  0.76164  0.18375  0.85485  1.0000
  H   H789      1.0  0.71285  0.17673  0.86956  1.0000
  H   H790      1.0  0.68364  0.15338  0.84014  1.0000
  H   H791      1.0  0.70278  0.13704  0.79640  1.0000
  H   H792      1.0  0.78144  0.16688  0.81144  1.0000
  H   H793      1.0  0.71573  0.14040  0.72885  1.0000
  H   H794      1.0  0.70171  0.17680  0.69441  1.0000
  H   H795      1.0  0.72374  0.22141  0.69075  1.0000
  H   H796      1.0  0.75978  0.22947  0.72169  1.0000
  H   H797      1.0  0.77480  0.19294  0.75570  1.0000
  H   H798      1.0  0.76401  0.10708  0.72004  1.0000
  H   H799      1.0  0.74984  0.06157  0.70906  1.0000
  H   H800      1.0  0.72527  0.03211  0.74392  1.0000
  H   H801      1.0  0.71576  0.04761  0.79069  1.0000
  H   H802      1.0  0.73041  0.09246  0.80238  1.0000
  H   H803      1.0  0.79806  0.11548  0.80854  1.0000
  H   H804      1.0  0.84889  0.10899  0.80528  1.0000
  H   H805      1.0  0.84996  0.13912  0.72134  1.0000
  H   H806      1.0  0.79939  0.14621  0.72456  1.0000
  C   C1011     1.0  0.55619  0.12513  0.85652  1.0000
  C   C1012     1.0  0.66626  0.28873  0.67060  1.0000
  C   C1013     1.0  0.92577  0.15320  0.66457  1.0000
  H   H807      1.0  0.55072  0.18274  0.91132  1.0000
  Fe  Fe70      1.0  0.68915  0.13292  0.65103  1.0000
  C   C1014     1.0  0.56026  0.11592  0.75041  1.0000
  C   C1015     1.0  0.91481  0.38266  0.77486  1.0000
  H   H808      1.0  0.92573  0.19739  0.66045  1.0000
  H   H809      1.0  0.95706  0.33173  0.86444  1.0000
  C   C1016     1.0  0.54564  0.20847  0.78056  1.0000
  C   C1017     1.0  0.58033  0.10546  0.73161  1.0000
  C   C1018     1.0  0.90128  0.26948  0.68999  1.0000
  H   H810      1.0  0.51326  0.12432  0.86980  1.0000
  C   C1019     1.0  0.92883  0.44832  0.71091  1.0000
  C   C1020     1.0  0.56568  0.14128  0.80963  1.0000
  H   H811      1.0  0.56357  0.11781  0.87613  1.0000
  H   H812      1.0  0.90790  0.16139  0.74134  1.0000
  C   C1021     1.0  0.87078  0.23634  0.78677  1.0000
  C   C1022     1.0  0.52950  0.18991  0.91613  1.0000
  C   C1023     1.0  0.54578  0.23721  0.77706  1.0000
  C   C1024     1.0  0.88699  0.21770  0.74379  1.0000
  C   C1025     1.0  0.66797  0.24240  0.69200  1.0000
  H   H813      1.0  0.82029  0.18439  0.69816  1.0000
  C   C1026     1.0  0.89014  0.39032  0.76255  1.0000
  H   H814      1.0  0.48972  0.25052  0.73951  1.0000
  H   H815      1.0  0.88756  0.38480  0.74202  1.0000
  C   C1027     1.0  0.94535  0.22479  0.72267  1.0000
  H   H816      1.0  0.74559  0.41828  0.79760  1.0000
  C   C1028     1.0  0.85674  0.42308  0.91432  1.0000
  H   H817      1.0  0.66613  0.20972  0.66508  1.0000
  C   C1029     1.0  0.94993  0.30127  0.75894  1.0000
  C   C1030     1.0  0.87082  0.40981  0.80415  1.0000
  H   H818      1.0  0.52517  0.27468  0.76084  1.0000
  C   C1031     1.0  0.52548  0.25238  0.76259  1.0000
  H   H819      1.0  0.87505  0.12093  0.76188  1.0000
  C   C1032     1.0  0.67272  0.23869  0.76276  1.0000
  H   H820      1.0  0.93212  0.29396  0.77071  1.0000
  C   C1033     1.0  0.80765  0.19909  0.68625  1.0000
  C   C1034     1.0  0.80935  0.22762  0.68892  1.0000
  C   C1035     1.0  0.84685  0.22207  0.78692  1.0000
  C   C1036     1.0  0.84287  0.20569  0.76555  1.0000
  H   H821      1.0  0.47784  0.27662  0.83261  1.0000
  S   S143      1.0  0.79557  0.28325  0.67497  1.0000
  H   H822      1.0  0.95498  0.24713  0.68412  1.0000
  H   H823      1.0  0.60825  0.30645  0.80468  1.0000
  C   C1037     1.0  0.94626  0.31845  0.73538  1.0000
  H   H824      1.0  0.83095  0.22453  0.80315  1.0000
  H   H825      1.0  0.82401  0.19523  0.76531  1.0000
  H   H826      1.0  0.88374  0.45574  0.90335  1.0000
  H   H827      1.0  0.67252  0.20396  0.79222  1.0000
  H   H828      1.0  0.87181  0.21221  0.67266  1.0000
  C   C1038     1.0  0.58946  0.12222  0.70924  1.0000
  H   H829      1.0  0.83196  0.36729  0.82581  1.0000
  C   C1039     1.0  0.77554  0.23739  0.65527  1.0000
  H   H830      1.0  0.56112  0.24785  0.78641  1.0000
  H   H831      1.0  0.60564  0.11446  0.69508  1.0000
  H   H832      1.0  0.58929  0.08455  0.73468  1.0000
  H   H833      1.0  0.89837  0.40625  0.83726  1.0000
  H   H834      1.0  0.91765  0.45808  0.80932  1.0000
  C   C1040     1.0  0.91588  0.13298  0.70995  1.0000
  C   C1041     1.0  0.51123  0.17201  0.92960  1.0000
  C   C1042     1.0  0.96977  0.32772  0.72039  1.0000
  H   H835      1.0  0.85884  0.19184  0.72703  1.0000
  C   C1043     1.0  0.54933  0.14337  0.74708  1.0000
  C   C1044     1.0  0.81169  0.40771  0.81703  1.0000
  H   H836      1.0  0.90334  0.41599  0.70200  1.0000
  H   H837      1.0  0.84895  0.40877  0.76756  1.0000
  H   H838      1.0  0.74810  0.36722  0.80421  1.0000
  C   C1045     1.0  0.89072  0.23438  0.76518  1.0000
  C   C1046     1.0  0.86545  0.44233  0.86832  1.0000
  H   H839      1.0  0.56133  0.19726  0.79230  1.0000
  C   C1047     1.0  0.81307  0.37874  0.82019  1.0000
  C   C1048     1.0  0.79009  0.36425  0.81590  1.0000
  C   C1049     1.0  0.76569  0.37853  0.80804  1.0000
  C   C1050     1.0  0.76424  0.40731  0.80452  1.0000
  C   C1051     1.0  0.78714  0.42190  0.80892  1.0000
  H   H840      1.0  0.51820  0.15083  0.93491  1.0000
  H   H841      1.0  0.93613  0.39778  0.66619  1.0000
  H   H842      1.0  0.65120  0.23759  0.75895  1.0000
  C   C1052     1.0  0.95589  0.21468  0.74751  1.0000
  H   H843      1.0  0.59700  0.12841  0.83755  1.0000
  C   C1053     1.0  0.92226  0.12993  0.68230  1.0000
  Fe  Fe71      1.0  0.75177  0.13317  0.64842  1.0000
  H   H844      1.0  0.96723  0.34092  0.70208  1.0000
  C   C1054     1.0  0.52050  0.21720  0.90914  1.0000
  H   H845      1.0  0.78568  0.44408  0.80528  1.0000
  H   H846      1.0  0.53464  0.23099  0.89838  1.0000
  H   H847      1.0  0.79130  0.34186  0.81816  1.0000
  H   H848      1.0  0.87324  0.24987  0.80284  1.0000
  C   C1055     1.0  0.91257  0.15935  0.71983  1.0000
  P   P35       1.0  0.91121  0.21686  0.71463  1.0000
  C   C1056     1.0  0.87004  0.44167  0.89602  1.0000
  C   C1057     1.0  0.55838  0.15996  0.72431  1.0000
  C   C1058     1.0  0.47669  0.25458  0.83648  1.0000
  H   H849      1.0  0.58072  0.14632  0.79324  1.0000
  C   C1059     1.0  0.57503  0.13110  0.83479  1.0000
  H   H850      1.0  0.90838  0.24676  0.76470  1.0000
  C   C1060     1.0  0.83881  0.40517  0.90493  1.0000
  C   C1061     1.0  0.57833  0.14935  0.70548  1.0000
  H   H851      1.0  0.58598  0.16239  0.68838  1.0000
  C   C1062     1.0  0.97082  0.34511  0.85262  1.0000
  C   C1063     1.0  0.83415  0.40579  0.87725  1.0000
  C   C1064     1.0  0.78922  0.18946  0.66876  1.0000
  H   H852      1.0  0.55062  0.18125  0.72127  1.0000
  C   C1065     1.0  0.77326  0.20886  0.65317  1.0000
  C   C1066     1.0  0.92267  0.42551  0.69721  1.0000
  H   H853      1.0  0.91358  0.11486  0.72368  1.0000
  C   C1067     1.0  0.92263  0.17957  0.67441  1.0000
  H   H854      1.0  0.49653  0.14078  0.82537  1.0000
  C   C1068     1.0  0.83651  0.46231  0.81242  1.0000
  H   H855      1.0  0.93673  0.38242  0.81131  1.0000
  C   C1069     1.0  0.51848  0.13844  0.82763  1.0000
  C   C1070     1.0  0.96218  0.23984  0.70377  1.0000
  C   C1071     1.0  0.49319  0.22664  0.91548  1.0000
  P   P36       1.0  0.52541  0.15745  0.77291  1.0000
  H   H856      1.0  0.86016  0.42267  0.93581  1.0000
  C   C1072     1.0  0.72483  0.00031  0.65069  1.0000
  H   H857      1.0  0.89177  0.31067  0.67287  1.0000
  H   H858      1.0  0.66628  0.31087  0.67180  1.0000
  H   H859      1.0  0.70837  0.97885  0.68710  1.0000
  C   C1073     1.0  0.91538  0.18284  0.70200  1.0000
  C   C1074     1.0  0.87733  0.23340  0.67216  1.0000
  C   C1075     1.0  0.89583  0.40235  0.81634  1.0000
  H   H860      1.0  0.81986  0.39196  0.87070  1.0000
  C   C1076     1.0  0.50543  0.23876  0.75079  1.0000
  P   P37       1.0  0.84161  0.42605  0.82281  1.0000
  C   C1077     1.0  0.66604  0.23179  0.66667  1.0000
  H   H861      1.0  0.50331  0.11287  0.74466  1.0000
  C   C1078     1.0  0.52791  0.12884  0.85295  1.0000
  H   H862      1.0  0.82830  0.39090  0.91915  1.0000
  H   H863      1.0  0.94360  0.20239  0.76208  1.0000
  C   C1079     1.0  0.48632  0.12429  0.75489  1.0000
  C   C1080     1.0  0.89648  0.24145  0.68968  1.0000
  C   C1081     1.0  0.91773  0.38883  0.80169  1.0000
  S   S144      1.0  0.78687  0.15320  0.66712  1.0000
  C   C1082     1.0  0.88811  0.28902  0.67226  1.0000
  H   H864      1.0  0.92463  0.10951  0.67463  1.0000
  C   C1083     1.0  0.71699  0.97666  0.66658  1.0000
  C   C1084     1.0  0.49087  0.14709  0.76956  1.0000
  Fe  Fe72      1.0  0.72317  0.07760  0.64659  1.0000
  C   C1085     1.0  0.50552  0.20998  0.75376  1.0000
  C   C1086     1.0  0.61728  0.20014  0.96798  1.0000
  H   H865      1.0  0.96373  0.37838  0.87931  1.0000
  H   H866      1.0  0.55162  0.19633  0.96884  1.0000
  H   H867      1.0  0.56497  0.14696  0.96390  1.0000
  C   C1087     1.0  0.86941  0.28081  0.65461  1.0000
  C   C1088     1.0  0.86411  0.25300  0.65449  1.0000
  H   H868      1.0  0.66166  0.00171  0.65427  1.0000
  H   H869      1.0  0.86360  0.46110  0.77581  1.0000
  H   H870      1.0  0.96585  0.39284  0.72861  1.0000
  H   H871      1.0  0.87575  0.45700  0.85440  1.0000
  C   C1089     1.0  0.48414  0.18154  0.93665  1.0000
  C   C1090     1.0  0.79830  0.46038  0.73895  1.0000
  C   C1091     1.0  0.95384  0.46081  0.70474  1.0000
  C   C1092     1.0  0.84871  0.46200  0.70911  1.0000
  C   C1093     1.0  0.96539  0.42844  0.66974  1.0000
  H   H872      1.0  0.94398  0.45195  0.76558  1.0000
  C   C1094     1.0  0.66423  0.27803  0.64531  1.0000
  H   H873      1.0  0.63709  0.04723  0.66090  1.0000
  C   C1095     1.0  0.62644  0.22641  0.97048  1.0000
  H   H874      1.0  0.86803  0.46255  0.69710  1.0000
  H   H875      1.0  0.91359  0.45653  0.72567  1.0000
  C   C1096     1.0  0.97166  0.45121  0.68346  1.0000
  C   C1097     1.0  0.47484  0.20890  0.92951  1.0000
  H   H876      1.0  0.93091  0.15082  0.64317  1.0000
  Fe  Fe73      1.0  0.86773  0.61389  0.21735  1.0000
  S   S145      1.0  0.85524  0.58817  0.25505  1.0000
  S   S146      1.0  0.91087  0.62561  0.20128  1.0000
  Fe  Fe74      1.0  0.80770  0.61937  0.19778  1.0000
  S   S147      1.0  0.79184  0.59283  0.23364  1.0000
  S   S148      1.0  0.78377  0.64337  0.16413  1.0000
  Fe  Fe75      1.0  0.81748  0.61824  0.25787  1.0000
  C   C1098     1.0  0.54193  0.75140  0.01759  1.0000
  Fe  Fe76      1.0  0.83087  0.56502  0.22764  1.0000
  S   S149      1.0  0.84141  0.51855  0.22335  1.0000
  S   S150      1.0  0.83186  0.64543  0.22233  1.0000
  S   S151      1.0  0.84479  0.59010  0.18975  1.0000
  Fe  Fe77      1.0  0.63079  0.69584  0.13397  1.0000
  S   S152      1.0  0.65268  0.73227  0.11583  1.0000
  S   S153      1.0  0.65432  0.65481  0.14540  1.0000
  Fe  Fe78      1.0  0.57393  0.72790  0.13524  1.0000
  S   S154      1.0  0.59315  0.76646  0.11772  1.0000
  S   S155      1.0  0.52744  0.73508  0.14577  1.0000
  Fe  Fe79      1.0  0.61715  0.73912  0.08831  1.0000
  S   S156      1.0  0.62020  0.75598  0.04372  1.0000
  Fe  Fe80      1.0  0.62664  0.75609  0.14685  1.0000
  S   S157      1.0  0.64696  0.78869  0.16885  1.0000
  S   S158      1.0  0.59648  0.70103  0.10457  1.0000
  S   S159      1.0  0.60621  0.71920  0.16637  1.0000
  C   C1099     1.0  0.93672  0.72428  0.19142  1.0000
  H   H877      1.0  0.53467  0.77217  0.19687  1.0000
  C   C1100     1.0  0.94901  0.54655  0.17251  1.0000
  C   C1101     1.0  0.49795  0.71957  0.13567  1.0000
  C   C1102     1.0  0.89085  0.74013  0.29140  1.0000
  C   C1103     1.0  0.49901  0.69213  0.12866  1.0000
  H   H878      1.0  0.61564  0.47011  0.21399  1.0000
  H   H879      1.0  0.51860  0.68019  0.12760  1.0000
  C   C1104     1.0  0.62124  0.73966  0.01236  1.0000
  C   C1105     1.0  0.62274  0.71096  0.01111  1.0000
  C   C1106     1.0  0.62156  0.75622  0.98782  1.0000
  H   H880      1.0  0.62248  0.69791  0.02972  1.0000
  H   H881      1.0  0.62042  0.77843  0.98847  1.0000
  C   C1107     1.0  0.65238  0.78940  0.20418  1.0000
  C   C1108     1.0  0.67225  0.80628  0.21244  1.0000
  C   C1109     1.0  0.67641  0.80843  0.24023  1.0000
  C   C1110     1.0  0.66005  0.79445  0.26021  1.0000
  C   C1111     1.0  0.64017  0.77759  0.25195  1.0000
  C   C1112     1.0  0.63667  0.77469  0.22416  1.0000
  H   H882      1.0  0.68424  0.81811  0.19726  1.0000
  H   H883      1.0  0.69151  0.82176  0.24619  1.0000
  H   H884      1.0  0.62709  0.76699  0.26715  1.0000
  H   H885      1.0  0.62110  0.76189  0.21820  1.0000
  C   C1113     1.0  0.94380  0.61839  0.21498  1.0000
  C   C1114     1.0  0.94670  0.60894  0.24209  1.0000
  C   C1115     1.0  0.77649  0.64206  0.08732  1.0000
  H   H886      1.0  0.92853  0.60510  0.25514  1.0000
  C   C1116     1.0  0.54897  0.67250  0.05922  1.0000
  C   C1117     1.0  0.82873  0.48623  0.23567  1.0000
  C   C1118     1.0  0.66648  0.67952  0.28507  1.0000
  C   C1119     1.0  0.93455  0.47561  0.26080  1.0000
  H   H887      1.0  0.79374  0.50279  0.25950  1.0000
  H   H888      1.0  0.57560  0.64978  0.08730  1.0000
  C   C1120     1.0  0.74764  0.64588  0.15951  1.0000
  C   C1121     1.0  0.73691  0.66655  0.14098  1.0000
  C   C1122     1.0  0.70839  0.66992  0.13706  1.0000
  C   C1123     1.0  0.69022  0.65221  0.15111  1.0000
  C   C1124     1.0  0.70099  0.63114  0.16921  1.0000
  C   C1125     1.0  0.72946  0.62824  0.17374  1.0000
  H   H889      1.0  0.75069  0.68034  0.12987  1.0000
  H   H890      1.0  0.70048  0.68604  0.12296  1.0000
  H   H891      1.0  0.68723  0.61709  0.17993  1.0000
  H   H892      1.0  0.73735  0.61222  0.18802  1.0000
  C   C1126     1.0  0.74812  0.66687  0.98541  1.0000
  C   C1127     1.0  0.91871  0.66825  0.29171  1.0000
  C   C1128     1.0  0.78097  0.66595  0.07076  1.0000
  C   C1129     1.0  0.69346  0.76921  0.05033  1.0000
  C   C1130     1.0  0.72560  0.58148  0.26324  1.0000
  C   C1131     1.0  0.93769  0.73733  0.23778  1.0000
  H   H893      1.0  0.88666  0.73852  0.27035  1.0000
  C   C1132     1.0  0.54915  0.77953  0.05473  1.0000
  H   H894      1.0  0.97035  0.47603  0.28469  1.0000
  H   H895      1.0  0.92948  0.66858  0.23585  1.0000
  C   C1133     1.0  0.68580  0.92651  0.28311  1.0000
  H   H896      1.0  0.55849  0.79679  0.06234  1.0000
  C   C1134     1.0  0.52376  0.73852  0.06309  1.0000
  C   C1135     1.0  0.95345  0.48804  0.27564  1.0000
  H   H897      1.0  0.74955  0.60399  0.28829  1.0000
  C   C1136     1.0  0.51159  0.63234  0.07433  1.0000
  C   C1137     1.0  0.55586  0.65088  0.07824  1.0000
  C   C1138     1.0  0.47445  0.67972  0.12423  1.0000
  C   C1139     1.0  0.81314  0.69199  0.28615  1.0000
  H   H898      1.0  0.51377  0.72429  0.07764  1.0000
  C   C1140     1.0  0.58724  0.65141  0.25469  1.0000
  C   C1141     1.0  0.58341  0.64778  0.22738  1.0000
  C   C1142     1.0  0.60596  0.64769  0.20845  1.0000
  C   C1143     1.0  0.63225  0.65146  0.21676  1.0000
  C   C1144     1.0  0.63622  0.65574  0.24395  1.0000
  C   C1145     1.0  0.61357  0.65529  0.26301  1.0000
  P   P38       1.0  0.67020  0.66208  0.25381  1.0000
  C   C1146     1.0  0.68836  0.76143  0.02455  1.0000
  C   C1147     1.0  0.69130  0.63019  0.25812  1.0000
  C   C1148     1.0  0.71449  0.62896  0.27382  1.0000
  H   H899      1.0  0.70735  0.75545  0.08977  1.0000
  H   H900      1.0  0.71315  0.95912  0.27800  1.0000
  C   C1149     1.0  0.70279  0.58262  0.24731  1.0000
  C   C1150     1.0  0.68568  0.60687  0.24473  1.0000
  S   S160      1.0  0.66228  0.79870  0.29558  1.0000
  P   P39       1.0  0.93438  0.70046  0.28328  1.0000
  H   H901      1.0  0.54234  0.61443  0.10095  1.0000
  H   H902      1.0  0.70164  0.91144  0.29028  1.0000
  H   H903      1.0  0.68857  0.72864  0.99818  1.0000
  C   C1151     1.0  0.68605  0.68397  0.22711  1.0000
  C   C1152     1.0  0.67002  0.70476  0.21309  1.0000
  C   C1153     1.0  0.68180  0.72044  0.19123  1.0000
  C   C1154     1.0  0.70973  0.71610  0.18359  1.0000
  C   C1155     1.0  0.72596  0.69595  0.19778  1.0000
  C   C1156     1.0  0.71412  0.67957  0.21910  1.0000
  C   C1157     1.0  0.55238  0.67625  0.98716  1.0000
  H   H904      1.0  0.56298  0.64519  0.22083  1.0000
  H   H905      1.0  0.60318  0.64508  0.18720  1.0000
  H   H906      1.0  0.64949  0.65152  0.20187  1.0000
  H   H907      1.0  0.96562  0.52594  0.29006  1.0000
  C   C1158     1.0  0.49084  0.76969  0.20420  1.0000
  C   C1159     1.0  0.93376  0.71002  0.24746  1.0000
  C   C1160     1.0  0.93326  0.69698  0.20096  1.0000
  H   H908      1.0  0.69862  0.56482  0.23661  1.0000
  H   H909      1.0  0.66842  0.60741  0.23192  1.0000
  H   H910      1.0  0.66014  0.72059  0.26557  1.0000
  H   H911      1.0  0.68068  0.63809  0.00170  1.0000
  H   H912      1.0  0.93031  0.55766  0.16572  1.0000
  H   H913      1.0  0.55970  0.66362  0.00441  1.0000
  H   H914      1.0  0.64824  0.70847  0.21852  1.0000
  H   H915      1.0  0.66911  0.73560  0.17984  1.0000
  H   H916      1.0  0.71859  0.72773  0.16616  1.0000
  H   H917      1.0  0.74756  0.69223  0.19159  1.0000
  H   H918      1.0  0.72700  0.66332  0.22885  1.0000
  C   C1161     1.0  0.96768  0.62390  0.19848  1.0000
  C   C1162     1.0  0.50466  0.65383  0.05521  1.0000
  H   H919      1.0  0.79948  0.67666  0.07244  1.0000
  H   H920      1.0  0.88101  0.68189  0.27230  1.0000
  H   H921      1.0  0.76472  0.69525  0.04034  1.0000
  H   H922      1.0  0.82592  0.73365  0.28081  1.0000
  P   P40       1.0  0.71039  0.67822  0.02934  1.0000
  C   C1163     1.0  0.73692  0.66289  0.05086  1.0000
  H   H923      1.0  0.96243  0.53309  0.13299  1.0000
  C   C1164     1.0  0.73145  0.60465  0.27647  1.0000
  C   C1165     1.0  0.95079  0.51646  0.27884  1.0000
  H   H924      1.0  0.76341  0.66136  0.00011  1.0000
  C   C1166     1.0  0.70410  0.74959  0.06953  1.0000
  C   C1167     1.0  0.70923  0.72211  0.06312  1.0000
  C   C1168     1.0  0.73279  0.63864  0.06733  1.0000
  C   C1169     1.0  0.75247  0.62840  0.08554  1.0000
  C   C1170     1.0  0.67908  0.66092  0.03808  1.0000
  C   C1171     1.0  0.66975  0.64217  0.02088  1.0000
  C   C1172     1.0  0.64616  0.62805  0.02848  1.0000
  C   C1173     1.0  0.63222  0.63181  0.05367  1.0000
  C   C1174     1.0  0.64180  0.64980  0.07120  1.0000
  C   C1175     1.0  0.66491  0.66458  0.06337  1.0000
  H   H925      1.0  0.71651  0.70713  0.07869  1.0000
  S   S161      1.0  0.79773  0.63788  0.29583  1.0000
  C   C1176     1.0  0.53452  0.76166  0.07259  1.0000
  C   C1177     1.0  0.79592  0.67383  0.30102  1.0000
  H   H926      1.0  0.62718  0.67689  0.98503  1.0000
  C   C1178     1.0  0.69365  0.73401  0.01797  1.0000
  C   C1179     1.0  0.51730  0.77405  0.21169  1.0000
  C   C1180     1.0  0.91325  0.49229  0.24885  1.0000
  H   H927      1.0  0.71419  0.62784  0.06673  1.0000
  H   H928      1.0  0.74876  0.61026  0.09890  1.0000
  H   H929      1.0  0.56973  0.65152  0.26935  1.0000
  C   C1181     1.0  0.70424  0.71404  0.03717  1.0000
  H   H930      1.0  0.61424  0.62050  0.05975  1.0000
  H   H931      1.0  0.63160  0.65206  0.09111  1.0000
  H   H932      1.0  0.67203  0.67830  0.07738  1.0000
  H   H933      1.0  0.53221  0.76533  0.09402  1.0000
  C   C1182     1.0  0.80186  0.84306  0.21831  1.0000
  C   C1183     1.0  0.80618  0.84274  0.24603  1.0000
  C   C1184     1.0  0.80450  0.81821  0.26226  1.0000
  C   C1185     1.0  0.79810  0.79413  0.25089  1.0000
  C   C1186     1.0  0.79312  0.79436  0.22323  1.0000
  C   C1187     1.0  0.79544  0.81895  0.20687  1.0000
  P   P41       1.0  0.78336  0.76331  0.20938  1.0000
  C   C1188     1.0  0.81320  0.74024  0.20196  1.0000
  C   C1189     1.0  0.76065  0.74660  0.23475  1.0000
  C   C1190     1.0  0.76440  0.71813  0.24148  1.0000
  C   C1191     1.0  0.74824  0.70578  0.26262  1.0000
  C   C1192     1.0  0.72862  0.72170  0.27758  1.0000
  C   C1193     1.0  0.72459  0.74996  0.27095  1.0000
  C   C1194     1.0  0.74045  0.76240  0.24959  1.0000
  C   C1195     1.0  0.81152  0.71949  0.18383  1.0000
  C   C1196     1.0  0.83426  0.70114  0.17837  1.0000
  C   C1197     1.0  0.85870  0.70304  0.19127  1.0000
  C   C1198     1.0  0.86042  0.72340  0.20959  1.0000
  C   C1199     1.0  0.83779  0.74199  0.21493  1.0000
  C   C1200     1.0  0.76610  0.77265  0.17842  1.0000
  C   C1201     1.0  0.78161  0.77517  0.15348  1.0000
  C   C1202     1.0  0.76861  0.78312  0.12947  1.0000
  C   C1203     1.0  0.74009  0.78898  0.13020  1.0000
  C   C1204     1.0  0.72461  0.78684  0.15491  1.0000
  C   C1205     1.0  0.73748  0.77872  0.17897  1.0000
  H   H934      1.0  0.80301  0.86214  0.20576  1.0000
  H   H935      1.0  0.81045  0.86155  0.25506  1.0000
  H   H936      1.0  0.54188  0.78413  0.24385  1.0000
  H   H937      1.0  0.79631  0.77544  0.26385  1.0000
  H   H938      1.0  0.79178  0.81978  0.18547  1.0000
  H   H939      1.0  0.77996  0.70529  0.23084  1.0000
  H   H940      1.0  0.75146  0.68386  0.26777  1.0000
  H   H941      1.0  0.85559  0.76877  0.29844  1.0000
  H   H942      1.0  0.70949  0.76234  0.28269  1.0000
  H   H943      1.0  0.73735  0.78446  0.24513  1.0000
  H   H944      1.0  0.79247  0.71706  0.17428  1.0000
  H   H945      1.0  0.83257  0.68477  0.16482  1.0000
  H   H946      1.0  0.87600  0.68818  0.18759  1.0000
  H   H947      1.0  0.87921  0.72454  0.21989  1.0000
  H   H948      1.0  0.83946  0.75739  0.22939  1.0000
  H   H949      1.0  0.80380  0.77121  0.15257  1.0000
  H   H950      1.0  0.78064  0.78491  0.11031  1.0000
  H   H951      1.0  0.72992  0.79535  0.11169  1.0000
  H   H952      1.0  0.70254  0.79150  0.15541  1.0000
  H   H953      1.0  0.72492  0.77711  0.19778  1.0000
  H   H954      1.0  0.48470  0.65456  0.04661  1.0000
  H   H955      1.0  0.94938  0.47251  0.20562  1.0000
  C   C1206     1.0  0.76128  0.67637  0.05262  1.0000
  C   C1207     1.0  0.89178  0.66547  0.28417  1.0000
  H   H956      1.0  0.82774  0.68432  0.27061  1.0000
  H   H957      1.0  0.75909  0.47853  0.17592  1.0000
  H   H958      1.0  0.93199  0.68114  0.18677  1.0000
  C   C1208     1.0  0.93175  0.68988  0.22888  1.0000
  H   H959      1.0  0.79131  0.63445  0.10204  1.0000
  C   C1209     1.0  0.93891  0.74447  0.20983  1.0000
  C   C1210     1.0  0.53712  0.63091  0.08591  1.0000
  H   H960      1.0  0.63890  0.61391  0.01495  1.0000
  C   C1211     1.0  0.80505  0.48421  0.25307  1.0000
  H   H961      1.0  0.54620  0.74754  0.99645  1.0000
  H   H962      1.0  0.48820  0.76474  0.18356  1.0000
  C   C1212     1.0  0.52133  0.78068  0.23812  1.0000
  C   C1213     1.0  0.52701  0.73331  0.03540  1.0000
  H   H963      1.0  0.56369  0.68793  0.05358  1.0000
  C   C1214     1.0  0.96710  0.53271  0.15415  1.0000
  H   H964      1.0  0.61603  0.65834  0.28417  1.0000
  C   C1215     1.0  0.52316  0.67431  0.04780  1.0000
  C   C1216     1.0  0.47675  0.70634  0.02374  1.0000
  P   P42       1.0  0.51417  0.70248  0.02354  1.0000
  H   H965      1.0  0.80741  0.81792  0.28386  1.0000
  H   H966      1.0  0.67907  0.77639  0.01001  1.0000
  H   H967      1.0  0.56529  0.78758  0.01368  1.0000
  H   H968      1.0  0.50198  0.78821  0.27754  1.0000
  H   H969      1.0  0.73910  0.56282  0.26491  1.0000
  C   C1217     1.0  0.87841  0.64151  0.29208  1.0000
  H   H970      1.0  0.89381  0.53322  0.24317  1.0000
  C   C1218     1.0  0.49884  0.78293  0.25707  1.0000
  C   C1219     1.0  0.55285  0.77439  0.02726  1.0000
  H   H971      1.0  0.68050  0.68827  0.97941  1.0000
  C   C1220     1.0  0.91047  0.52063  0.25233  1.0000
  C   C1221     1.0  0.81189  0.72010  0.29183  1.0000
  C   C1222     1.0  0.53029  0.69623  0.99020  1.0000
  H   H972      1.0  0.94154  0.55806  0.21358  1.0000
  H   H973      1.0  0.68829  0.79025  0.05565  1.0000
  C   C1223     1.0  0.64470  0.96559  0.26575  1.0000
  C   C1224     1.0  0.66122  0.70827  0.28459  1.0000
  C   C1225     1.0  0.95530  0.54666  0.19965  1.0000
  C   C1226     1.0  0.72090  0.67553  0.99366  1.0000
  H   H974      1.0  0.89859  0.48345  0.23693  1.0000
  H   H975      1.0  0.61733  0.93249  0.27232  1.0000
  C   C1227     1.0  0.69230  0.95367  0.27581  1.0000
  H   H976      1.0  0.94203  0.76555  0.20241  1.0000
  H   H977      1.0  0.71982  0.64690  0.28365  1.0000
  H   H978      1.0  0.49696  0.61698  0.08040  1.0000
  H   H979      1.0  0.47540  0.65826  0.11966  1.0000
  H   H980      1.0  0.71697  0.71222  0.29465  1.0000
  H   H981      1.0  0.92705  0.55471  0.26985  1.0000
  C   C1228     1.0  0.63829  0.93840  0.27308  1.0000
  C   C1229     1.0  0.92917  0.53271  0.26738  1.0000
  H   H982      1.0  0.85755  0.63960  0.28635  1.0000
  H   H983      1.0  0.96570  0.63137  0.17752  1.0000
  C   C1230     1.0  0.62534  0.69911  0.98568  1.0000
  H   H984      1.0  0.65394  0.89777  0.28745  1.0000
  C   C1231     1.0  0.65887  0.91883  0.28164  1.0000
  H   H985      1.0  0.93800  0.72966  0.16975  1.0000
  H   H986      1.0  0.47558  0.71974  0.19923  1.0000
  H   H987      1.0  0.94019  0.75299  0.25182  1.0000
  S   S162      1.0  0.73939  0.82328  0.30015  1.0000
  C   C1232     1.0  0.97046  0.69856  0.29029  1.0000
  C   C1233     1.0  0.97315  0.60526  0.25251  1.0000
  C   C1234     1.0  0.89186  0.62001  0.30733  1.0000
  C   C1235     1.0  0.91320  0.72472  0.30294  1.0000
  C   C1236     1.0  0.93197  0.64676  0.30748  1.0000
  H   H988      1.0  0.47387  0.69232  0.98335  1.0000
  C   C1237     1.0  0.87305  0.75717  0.30728  1.0000
  H   H989      1.0  0.65339  0.74370  0.30840  1.0000
  Fe  Fe81      1.0  0.75679  0.79375  0.33281  1.0000
  S   S163      1.0  0.71542  0.78110  0.35000  1.0000
  H   H990      1.0  0.76336  0.67059  0.33247  1.0000
  Fe  Fe82      1.0  0.73749  0.85570  0.33105  1.0000
  S   S164      1.0  0.69465  0.84672  0.34719  1.0000
  C   C1238     1.0  0.70653  0.96069  0.35435  1.0000
  Fe  Fe83      1.0  0.71578  0.81654  0.37739  1.0000
  S   S165      1.0  0.69703  0.81591  0.42151  1.0000
  H   H991      1.0  0.74110  0.86804  0.54198  1.0000
  S   S166      1.0  0.75863  0.82704  0.36233  1.0000
  Fe  Fe84      1.0  0.72513  0.82086  0.58816  1.0000
  S   S167      1.0  0.76072  0.83971  0.60507  1.0000
  S   S168      1.0  0.73614  0.81069  0.54344  1.0000
  C   C1239     1.0  0.79572  0.77429  0.58095  1.0000
  C   C1240     1.0  0.75503  0.95446  0.32174  1.0000
  H   H992      1.0  0.65054  0.76015  0.62678  1.0000
  H   H993      1.0  0.72061  0.87904  0.49795  1.0000
  H   H994      1.0  0.65230  0.87155  0.42254  1.0000
  S   S169      1.0  0.69325  0.84976  0.60873  1.0000
  S   S170      1.0  0.72287  0.78901  0.62351  1.0000
  H   H995      1.0  0.78268  0.62176  0.61870  1.0000
  C   C1241     1.0  0.68621  0.91164  0.46159  1.0000
  H   H996      1.0  0.69677  0.76189  0.55018  1.0000
  C   C1242     1.0  0.70964  0.72262  0.60841  1.0000
  H   H997      1.0  0.89223  0.66865  0.40176  1.0000
  H   H998      1.0  0.76399  0.75059  0.60057  1.0000
  C   C1243     1.0  0.77487  0.71269  0.32586  1.0000
  H   H999      1.0  0.71184  0.75367  0.46918  1.0000
  H   H1000     1.0  0.74242  0.95280  0.40882  1.0000
  Fe  Fe85      1.0  0.69800  0.81221  0.31850  1.0000
  C   C1244     1.0  0.74034  0.93102  0.32959  1.0000
  H   H1001     1.0  0.69298  0.89878  0.42028  1.0000
  C   C1245     1.0  0.73085  0.89488  0.50698  1.0000
  H   H1002     1.0  0.66437  0.66579  0.35383  1.0000
  C   C1246     1.0  0.70882  0.81699  0.45495  1.0000
  C   C1247     1.0  0.68930  0.82133  0.47680  1.0000
  C   C1248     1.0  0.69730  0.82078  0.50386  1.0000
  C   C1249     1.0  0.72501  0.81532  0.50955  1.0000
  C   C1250     1.0  0.74458  0.81120  0.48768  1.0000
  C   C1251     1.0  0.73662  0.81230  0.46057  1.0000
  H   H1003     1.0  0.66770  0.82479  0.47282  1.0000
  H   H1004     1.0  0.68192  0.82370  0.52037  1.0000
  H   H1005     1.0  0.76603  0.80681  0.49186  1.0000
  H   H1006     1.0  0.75186  0.80896  0.44409  1.0000
  C   C1252     1.0  0.77537  0.63957  0.60606  1.0000
  C   C1253     1.0  0.71601  0.93430  0.34604  1.0000
  C   C1254     1.0  0.66367  0.67766  0.33450  1.0000
  H   H1007     1.0  0.73057  0.67046  0.53068  1.0000
  H   H1008     1.0  0.82352  0.84274  0.41467  1.0000
  S   S171      1.0  0.75376  0.89819  0.31894  1.0000
  H   H1009     1.0  0.70201  0.91780  0.57168  1.0000
  H   H1010     1.0  0.82849  0.81563  0.37372  1.0000
  H   H1011     1.0  0.74149  0.87368  0.45422  1.0000
  C   C1255     1.0  0.80462  0.76922  0.53280  1.0000
  H   H1012     1.0  0.77402  0.95219  0.30927  1.0000
  H   H1013     1.0  0.65592  0.71685  0.35250  1.0000
  C   C1256     1.0  0.78363  0.68397  0.58292  1.0000
  C   C1257     1.0  0.72566  0.74083  0.40830  1.0000
  C   C1258     1.0  0.71714  0.68598  0.49189  1.0000
  H   H1014     1.0  0.79768  0.70003  0.57790  1.0000
  H   H1015     1.0  0.65709  0.77861  0.57899  1.0000
  C   C1259     1.0  0.71327  0.73248  0.58103  1.0000
  C   C1260     1.0  0.77377  0.89112  0.39331  1.0000
  H   H1016     1.0  0.65838  0.89916  0.56100  1.0000
  P   P43       1.0  0.71755  0.92951  0.46146  1.0000
  C   C1261     1.0  0.75685  0.93491  0.53201  1.0000
  C   C1262     1.0  0.75600  0.68726  0.57590  1.0000
  C   C1263     1.0  0.78401  0.75049  0.53345  1.0000
  H   H1017     1.0  0.71362  0.66571  0.48559  1.0000
  H   H1018     1.0  0.73407  0.62668  0.60579  1.0000
  C   C1264     1.0  0.71177  0.70929  0.47444  1.0000
  H   H1019     1.0  0.78014  0.74126  0.51494  1.0000
  H   H1020     1.0  0.80017  0.78344  0.59947  1.0000
  H   H1021     1.0  0.82600  0.79602  0.55608  1.0000
  H   H1022     1.0  0.81595  0.77466  0.51390  1.0000
  C   C1265     1.0  0.73829  0.66621  0.58393  1.0000
  H   H1023     1.0  0.71670  0.66869  0.57952  1.0000
  C   C1266     1.0  0.76863  0.74407  0.55783  1.0000
  H   H1024     1.0  0.76020  0.72047  0.34132  1.0000
  H   H1025     1.0  0.70452  0.91652  0.35242  1.0000
  H   H1026     1.0  0.67297  0.92089  0.50265  1.0000
  C   C1267     1.0  0.74096  0.91525  0.43534  1.0000
  C   C1268     1.0  0.67140  0.76245  0.58697  1.0000
  H   H1027     1.0  0.92910  0.60590  0.32680  1.0000
  H   H1028     1.0  0.69976  0.71441  0.38968  1.0000
  H   H1029     1.0  0.82113  0.76612  0.37751  1.0000
  C   C1269     1.0  0.74797  0.64247  0.59892  1.0000
  C   C1270     1.0  0.66765  0.75201  0.61388  1.0000
  C   C1271     1.0  0.68534  0.93171  0.56436  1.0000
  C   C1272     1.0  0.79319  0.66022  0.59794  1.0000
  C   C1273     1.0  0.65885  0.70633  0.33380  1.0000
  H   H1030     1.0  0.93306  0.71313  0.34040  1.0000
  C   C1274     1.0  0.81035  0.78123  0.55652  1.0000
  H   H1031     1.0  0.61965  0.93103  0.54518  1.0000
  C   C1275     1.0  0.73177  0.94686  0.62994  1.0000
  H   H1032     1.0  0.90185  0.74382  0.36808  1.0000
  H   H1033     1.0  0.76933  0.85273  0.41705  1.0000
  C   C1276     1.0  0.66064  0.92121  0.55845  1.0000
  H   H1034     1.0  0.76437  0.90331  0.56391  1.0000
  C   C1277     1.0  0.74542  0.94141  0.50692  1.0000
  C   C1278     1.0  0.87722  0.75873  0.33480  1.0000
  C   C1279     1.0  0.91682  0.72588  0.33079  1.0000
  C   C1280     1.0  0.73233  0.92146  0.49408  1.0000
  H   H1035     1.0  0.76663  0.95044  0.54203  1.0000
  H   H1036     1.0  0.62127  0.86914  0.46430  1.0000
  C   C1281     1.0  0.76475  0.87483  0.41606  1.0000
  C   C1282     1.0  0.74879  0.88686  0.43715  1.0000
  H   H1037     1.0  0.81411  0.65834  0.60454  1.0000
  H   H1038     1.0  0.77300  0.93192  0.37363  1.0000
  C   C1283     1.0  0.69408  0.75281  0.57062  1.0000
  S   S172      1.0  0.79451  0.76515  0.32110  1.0000
  C   C1284     1.0  0.71618  0.73545  0.48256  1.0000
  C   C1285     1.0  0.72578  0.73829  0.50819  1.0000
  C   C1286     1.0  0.74244  0.88845  0.53200  1.0000
  C   C1287     1.0  0.79274  0.73066  0.31170  1.0000
  H   H1039     1.0  0.70962  0.75733  0.41042  1.0000
  C   C1288     1.0  0.76643  0.91939  0.39150  1.0000
  C   C1289     1.0  0.74945  0.93133  0.41199  1.0000
  C   C1290     1.0  0.66841  0.91042  0.48503  1.0000
  C   C1291     1.0  0.67983  0.89809  0.43880  1.0000
  H   H1040     1.0  0.72469  0.70814  0.61765  1.0000
  H   H1041     1.0  0.78567  0.88181  0.37662  1.0000
  C   C1292     1.0  0.73098  0.71507  0.52607  1.0000
  H   H1042     1.0  0.72905  0.75871  0.51415  1.0000
  C   C1293     1.0  0.72666  0.68882  0.51762  1.0000
  C   C1294     1.0  0.77500  0.75581  0.58155  1.0000
  C   C1295     1.0  0.72006  0.71658  0.39674  1.0000
  C   C1296     1.0  0.74070  0.69531  0.39416  1.0000
  C   C1297     1.0  0.76707  0.69846  0.40272  1.0000
  C   C1298     1.0  0.77309  0.72316  0.41355  1.0000
  C   C1299     1.0  0.75202  0.74413  0.41671  1.0000
  P   P44       1.0  0.80730  0.72749  0.42409  1.0000
  C   C1300     1.0  0.81087  0.71356  0.45869  1.0000
  C   C1301     1.0  0.83240  0.70981  0.40148  1.0000
  C   C1302     1.0  0.82827  0.71034  0.37359  1.0000
  C   C1303     1.0  0.84687  0.69591  0.35609  1.0000
  C   C1304     1.0  0.86988  0.68088  0.36622  1.0000
  C   C1305     1.0  0.87441  0.68041  0.39389  1.0000
  C   C1306     1.0  0.85576  0.69475  0.41148  1.0000
  C   C1307     1.0  0.83254  0.72109  0.47354  1.0000
  C   C1308     1.0  0.83609  0.70958  0.49991  1.0000
  C   C1309     1.0  0.81817  0.69033  0.51160  1.0000
  C   C1310     1.0  0.79657  0.68273  0.49701  1.0000
  C   C1311     1.0  0.79281  0.69435  0.47069  1.0000
  C   C1312     1.0  0.81261  0.76403  0.42118  1.0000
  C   C1313     1.0  0.80845  0.77983  0.44404  1.0000
  C   C1314     1.0  0.81269  0.80805  0.44172  1.0000
  C   C1315     1.0  0.82050  0.82082  0.41650  1.0000
  C   C1316     1.0  0.82353  0.80552  0.39348  1.0000
  C   C1317     1.0  0.81947  0.77729  0.39576  1.0000
  P   P45       1.0  0.74234  0.71941  0.55967  1.0000
  H   H1043     1.0  0.70394  0.70712  0.45473  1.0000
  H   H1044     1.0  0.73643  0.67654  0.38508  1.0000
  H   H1045     1.0  0.78285  0.68181  0.40041  1.0000
  H   H1046     1.0  0.75585  0.76322  0.42536  1.0000
  H   H1047     1.0  0.81048  0.72174  0.36537  1.0000
  H   H1048     1.0  0.84333  0.69626  0.33465  1.0000
  H   H1049     1.0  0.88412  0.66957  0.35258  1.0000
  C   C1318     1.0  0.75556  0.90837  0.54443  1.0000
  H   H1050     1.0  0.85961  0.69368  0.43282  1.0000
  H   H1051     1.0  0.84690  0.73565  0.46461  1.0000
  H   H1052     1.0  0.85279  0.71550  0.51131  1.0000
  H   H1053     1.0  0.82104  0.68128  0.53198  1.0000
  H   H1054     1.0  0.78283  0.66767  0.50609  1.0000
  H   H1055     1.0  0.77598  0.68809  0.45976  1.0000
  H   H1056     1.0  0.80141  0.77061  0.46357  1.0000
  H   H1057     1.0  0.80939  0.82015  0.45941  1.0000
  C   C1319     1.0  0.66721  0.66426  0.31025  1.0000
  H   H1058     1.0  0.66562  0.96488  0.45982  1.0000
  C   C1320     1.0  0.68677  0.73212  0.62459  1.0000
  Fe  Fe86      1.0  0.72909  0.86811  0.62645  1.0000
  C   C1321     1.0  0.63890  0.93917  0.54957  1.0000
  S   S173      1.0  0.73726  0.91390  0.61586  1.0000
  C   C1322     1.0  0.63911  0.88133  0.46344  1.0000
  C   C1323     1.0  0.77684  0.68438  0.32093  1.0000
  C   C1324     1.0  0.65650  0.88280  0.43987  1.0000
  H   H1059     1.0  0.86317  0.77173  0.34703  1.0000
  C   C1325     1.0  0.64498  0.89527  0.48598  1.0000
  C   C1326     1.0  0.89906  0.74307  0.34658  1.0000
  H   H1060     1.0  0.63160  0.89395  0.50431  1.0000
  H   H1061     1.0  0.74693  0.96199  0.49781  1.0000
  H   H1062     1.0  0.95245  0.64852  0.31418  1.0000
  H   H1063     1.0  0.67024  0.64197  0.31121  1.0000
  C   C1327     1.0  0.91865  0.62261  0.31499  1.0000
  H   H1064     1.0  0.88143  0.60136  0.31317  1.0000
  Fe  Fe87      1.0  0.75632  0.80941  0.64126  1.0000
  H   H1065     1.0  0.69494  0.54681  0.63894  1.0000
  H   H1066     1.0  0.68766  0.96293  0.36703  1.0000
  H   H1067     1.0  0.96893  0.73755  0.30931  1.0000
  C   C1328     1.0  0.71014  0.96643  0.45542  1.0000
  C   C1329     1.0  0.68825  0.96015  0.56189  1.0000
  C   C1330     1.0  0.65745  0.72154  0.30889  1.0000
  Fe  Fe88      1.0  0.58240  0.69883  0.84545  1.0000
  S   S174      1.0  0.59451  0.73721  0.86352  1.0000
  S   S175      1.0  0.53897  0.68316  0.85562  1.0000
  Fe  Fe89      1.0  0.64471  0.68081  0.83066  1.0000
  S   S176      1.0  0.65933  0.71716  0.84943  1.0000
  S   S177      1.0  0.67434  0.65182  0.80620  1.0000
  Fe  Fe90      1.0  0.62732  0.70964  0.88405  1.0000
  S   S178      1.0  0.63323  0.69937  0.92983  1.0000
  Fe  Fe91      1.0  0.62524  0.74083  0.82678  1.0000
  S   S179      1.0  0.63708  0.77981  0.80087  1.0000
  S   S180      1.0  0.61501  0.67127  0.86623  1.0000
  S   S181      1.0  0.61089  0.70431  0.80761  1.0000
  Fe  Fe92      1.0  0.82742  0.60805  0.75879  1.0000
  S   S182      1.0  0.80548  0.59216  0.72506  1.0000
  S   S183      1.0  0.80330  0.61718  0.79878  1.0000
  Fe  Fe93      1.0  0.88349  0.60838  0.72529  1.0000
  S   S184      1.0  0.86355  0.59403  0.68943  1.0000
  S   S185      1.0  0.92884  0.61695  0.71407  1.0000
  Fe  Fe94      1.0  0.82800  0.62429  0.69911  1.0000
  S   S186      1.0  0.80423  0.65120  0.66780  1.0000
  Fe  Fe95      1.0  0.84335  0.56326  0.71901  1.0000
  S   S187      1.0  0.85062  0.51841  0.70722  1.0000
  S   S188      1.0  0.84888  0.64101  0.73288  1.0000
  S   S189      1.0  0.86425  0.57682  0.75475  1.0000
  S   S190      1.0  0.72828  0.83946  0.66470  1.0000
  S   S191      1.0  0.65917  0.79885  0.67119  1.0000
  C   C1331     1.0  0.92143  0.47586  0.79557  1.0000
  C   C1332     1.0  0.55765  0.68940  0.93899  1.0000
  C   C1333     1.0  0.92500  0.52321  0.68946  1.0000
  H   H1068     1.0  0.94644  0.59217  0.76686  1.0000
  H   H1069     1.0  0.68779  0.59229  0.78858  1.0000
  H   H1070     1.0  0.85810  0.51102  0.76438  1.0000
  H   H1071     1.0  0.79922  0.50486  0.73859  1.0000
  C   C1334     1.0  0.79967  0.68772  0.66849  1.0000
  C   C1335     1.0  0.81852  0.70318  0.68006  1.0000
  H   H1072     1.0  0.69432  0.68491  0.93109  1.0000
  H   H1073     1.0  0.83595  0.69277  0.68985  1.0000
  S   S192      1.0  0.79178  0.78296  0.66011  1.0000
  C   C1336     1.0  0.50454  0.69243  0.84613  1.0000
  H   H1074     1.0  0.71952  0.68861  0.67717  1.0000
  C   C1337     1.0  0.64852  0.61562  0.75544  1.0000
  C   C1338     1.0  0.49853  0.71139  0.82437  1.0000
  H   H1075     1.0  0.77685  0.65808  0.95156  1.0000
  C   C1339     1.0  0.69963  0.50885  0.69906  1.0000
  H   H1076     1.0  0.51516  0.72094  0.81254  1.0000
  C   C1340     1.0  0.64467  0.78321  0.76481  1.0000
  C   C1341     1.0  0.66290  0.80293  0.75388  1.0000
  C   C1342     1.0  0.66834  0.80733  0.72548  1.0000
  C   C1343     1.0  0.65470  0.79285  0.70740  1.0000
  C   C1344     1.0  0.63626  0.77334  0.71831  1.0000
  C   C1345     1.0  0.63166  0.76817  0.74673  1.0000
  H   H1077     1.0  0.67271  0.81510  0.76749  1.0000
  H   H1078     1.0  0.68246  0.82251  0.71760  1.0000
  H   H1079     1.0  0.62544  0.76208  0.70469  1.0000
  H   H1080     1.0  0.61733  0.75320  0.75463  1.0000
  C   C1346     1.0  0.71113  0.64838  0.80447  1.0000
  C   C1347     1.0  0.72529  0.64542  0.77903  1.0000
  C   C1348     1.0  0.75367  0.63696  0.77695  1.0000
  C   C1349     1.0  0.76828  0.63107  0.80036  1.0000
  C   C1350     1.0  0.75445  0.63528  0.82579  1.0000
  C   C1351     1.0  0.72608  0.64393  0.82786  1.0000
  H   H1081     1.0  0.71397  0.64886  0.76088  1.0000
  H   H1082     1.0  0.76409  0.63429  0.75727  1.0000
  H   H1083     1.0  0.76551  0.63096  0.84406  1.0000
  H   H1084     1.0  0.71546  0.64572  0.84761  1.0000
  H   H1085     1.0  0.82729  0.54123  0.79321  1.0000
  C   C1352     1.0  0.70947  0.67997  0.94621  1.0000
  C   C1353     1.0  0.85039  0.47381  0.78904  1.0000
  C   C1354     1.0  0.74105  0.56279  0.74993  1.0000
  H   H1086     1.0  0.62480  0.75743  0.94377  1.0000
  C   C1355     1.0  0.82974  0.73269  0.76575  1.0000
  C   C1356     1.0  0.82925  0.70411  0.76499  1.0000
  C   C1357     1.0  0.80409  0.69204  0.76478  1.0000
  C   C1358     1.0  0.77940  0.70848  0.76510  1.0000
  C   C1359     1.0  0.77971  0.73724  0.76557  1.0000
  C   C1360     1.0  0.80505  0.74920  0.76640  1.0000
  P   P46       1.0  0.74776  0.75819  0.76862  1.0000
  C   C1361     1.0  0.72199  0.74237  0.75130  1.0000
  C   C1362     1.0  0.73704  0.75992  0.80418  1.0000
  C   C1363     1.0  0.70974  0.76857  0.81173  1.0000
  C   C1364     1.0  0.70116  0.77048  0.83907  1.0000
  C   C1365     1.0  0.71964  0.76309  0.85923  1.0000
  C   C1366     1.0  0.74687  0.75415  0.85195  1.0000
  C   C1367     1.0  0.75561  0.75267  0.82452  1.0000
  C   C1368     1.0  0.71822  0.74938  0.72367  1.0000
  C   C1369     1.0  0.69789  0.73751  0.71051  1.0000
  C   C1370     1.0  0.68128  0.71847  0.72474  1.0000
  C   C1371     1.0  0.68530  0.71091  0.75204  1.0000
  C   C1372     1.0  0.70564  0.72269  0.76528  1.0000
  C   C1373     1.0  0.75188  0.79249  0.75293  1.0000
  C   C1374     1.0  0.73689  0.81558  0.76331  1.0000
  C   C1375     1.0  0.73978  0.84193  0.75074  1.0000
  C   C1376     1.0  0.75780  0.84551  0.72785  1.0000
  C   C1377     1.0  0.77278  0.82269  0.71738  1.0000
  C   C1378     1.0  0.76963  0.79626  0.72964  1.0000
  H   H1087     1.0  0.84924  0.74203  0.76602  1.0000
  H   H1088     1.0  0.80361  0.66985  0.76462  1.0000
  H   H1089     1.0  0.76015  0.69858  0.76533  1.0000
  H   H1090     1.0  0.80574  0.77124  0.76773  1.0000
  H   H1091     1.0  0.69507  0.77383  0.79637  1.0000
  H   H1092     1.0  0.67993  0.77722  0.84451  1.0000
  H   H1093     1.0  0.71273  0.76407  0.88043  1.0000
  H   H1094     1.0  0.76115  0.74824  0.86757  1.0000
  H   H1095     1.0  0.77674  0.74565  0.81936  1.0000
  H   H1096     1.0  0.73047  0.76440  0.71227  1.0000
  H   H1097     1.0  0.69433  0.74407  0.68957  1.0000
  H   H1098     1.0  0.66484  0.71009  0.71484  1.0000
  H   H1099     1.0  0.67231  0.69630  0.76317  1.0000
  H   H1100     1.0  0.70832  0.71653  0.78649  1.0000
  H   H1101     1.0  0.72262  0.81344  0.78083  1.0000
  H   H1102     1.0  0.72774  0.85954  0.75855  1.0000
  H   H1103     1.0  0.75975  0.86586  0.71784  1.0000
  H   H1104     1.0  0.78632  0.82536  0.69925  1.0000
  H   H1105     1.0  0.78074  0.77876  0.72061  1.0000
  C   C1379     1.0  0.51490  0.75734  0.87720  1.0000
  C   C1380     1.0  0.52668  0.78090  0.88444  1.0000
  C   C1381     1.0  0.51221  0.79829  0.90254  1.0000
  C   C1382     1.0  0.69886  0.51481  0.67105  1.0000
  C   C1383     1.0  0.62208  0.61970  0.76781  1.0000
  C   C1384     1.0  0.94081  0.49539  0.75254  1.0000
  H   H1106     1.0  0.70251  0.48762  0.70711  1.0000
  H   H1107     1.0  0.69778  0.52528  0.73838  1.0000
  H   H1108     1.0  0.52585  0.74422  0.86262  1.0000
  H   H1109     1.0  0.54680  0.78593  0.87555  1.0000
  H   H1110     1.0  0.52106  0.81698  0.90752  1.0000
  H   H1111     1.0  0.92779  0.67962  0.73266  1.0000
  C   C1385     1.0  0.69542  0.54220  0.66067  1.0000
  C   C1386     1.0  0.72021  0.95017  0.65626  1.0000
  H   H1112     1.0  0.69058  0.58475  0.66979  1.0000
  C   C1387     1.0  0.70109  0.61730  0.71129  1.0000
  C   C1388     1.0  0.68117  0.63424  0.69752  1.0000
  C   C1389     1.0  0.68787  0.65973  0.68493  1.0000
  C   C1390     1.0  0.71443  0.66853  0.68614  1.0000
  C   C1391     1.0  0.73442  0.65161  0.69939  1.0000
  C   C1392     1.0  0.72797  0.62588  0.71148  1.0000
  H   H1113     1.0  0.66032  0.62798  0.69691  1.0000
  H   H1114     1.0  0.74748  0.55832  0.72922  1.0000
  C   C1393     1.0  0.48615  0.79184  0.91375  1.0000
  H   H1115     1.0  0.75489  0.65860  0.70070  1.0000
  C   C1394     1.0  0.82989  0.51925  0.79861  1.0000
  C   C1395     1.0  0.81577  0.50792  0.82172  1.0000
  C   C1396     1.0  0.62634  0.71567  0.96111  1.0000
  C   C1397     1.0  0.84723  0.50222  0.78237  1.0000
  H   H1116     1.0  0.76686  0.55907  0.81256  1.0000
  C   C1398     1.0  0.56594  0.67290  0.96164  1.0000
  H   H1117     1.0  0.74383  0.61324  0.72161  1.0000
  P   P47       1.0  0.69174  0.58539  0.72931  1.0000
  C   C1399     1.0  0.72602  0.57532  0.80341  1.0000
  C   C1400     1.0  0.80993  0.48593  0.73231  1.0000
  H   H1118     1.0  0.64430  0.55011  0.73639  1.0000
  H   H1119     1.0  0.84834  0.69125  0.76478  1.0000
  H   H1120     1.0  0.52989  0.72239  0.92420  1.0000
  H   H1121     1.0  0.90851  0.54560  0.79024  1.0000
  C   C1401     1.0  0.69704  0.53026  0.71671  1.0000
  H   H1122     1.0  0.71408  0.93229  0.66880  1.0000
  H   H1123     1.0  0.89982  0.50490  0.82180  1.0000
  H   H1124     1.0  0.83074  0.74406  0.68601  1.0000
  C   C1402     1.0  0.94909  0.68450  0.72836  1.0000
  H   H1125     1.0  0.47640  0.76965  0.96489  1.0000
  C   C1403     1.0  0.60369  0.59888  0.76862  1.0000
  C   C1404     1.0  0.69384  0.55786  0.70642  1.0000
  C   C1405     1.0  0.81910  0.47959  0.82866  1.0000
  C   C1406     1.0  0.91624  0.52514  0.78482  1.0000
  H   H1126     1.0  0.61613  0.63890  0.77723  1.0000
  C   C1407     1.0  0.70745  0.58175  0.78311  1.0000
  C   C1408     1.0  0.62394  0.74436  0.96238  1.0000
  H   H1127     1.0  0.80227  0.52115  0.83426  1.0000
  C   C1409     1.0  0.69294  0.56369  0.67826  1.0000
  C   C1410     1.0  0.75211  0.56284  0.79701  1.0000
  C   C1411     1.0  0.81551  0.73230  0.67785  1.0000
  C   C1412     1.0  0.93086  0.52182  0.75987  1.0000
  H   H1128     1.0  0.58347  0.65804  0.95941  1.0000
  H   H1129     1.0  0.93443  0.53997  0.74644  1.0000
  C   C1413     1.0  0.91689  0.54533  0.67162  1.0000
  C   C1414     1.0  0.48891  0.75082  0.88844  1.0000
  C   C1415     1.0  0.61179  0.57391  0.75708  1.0000
  H   H1130     1.0  0.70108  0.49820  0.65739  1.0000
  C   C1416     1.0  0.65695  0.59055  0.74400  1.0000
  H   H1131     1.0  0.95399  0.69781  0.76826  1.0000
  C   C1417     1.0  0.71485  0.57565  0.75613  1.0000
  C   C1418     1.0  0.83516  0.48690  0.71715  1.0000
  H   H1132     1.0  0.89575  0.54778  0.66574  1.0000
  C   C1419     1.0  0.77353  0.73070  0.65470  1.0000
  H   H1133     1.0  0.58327  0.60207  0.77844  1.0000
  Fe  Fe96      1.0  0.69451  0.81932  0.64605  1.0000
  C   C1420     1.0  0.79327  0.74627  0.66472  1.0000
  H   H1134     1.0  0.47976  0.73303  0.88181  1.0000
  C   C1421     1.0  0.75952  0.55631  0.77034  1.0000
  H   H1135     1.0  0.74248  0.66976  0.91683  1.0000
  C   C1422     1.0  0.95220  0.51978  0.69749  1.0000
  C   C1423     1.0  0.77714  0.70167  0.65590  1.0000
  H   H1136     1.0  0.77990  0.54699  0.76531  1.0000
  H   H1137     1.0  0.59753  0.55774  0.75788  1.0000
  H   H1138     1.0  0.90987  0.50891  0.69720  1.0000
  H   H1139     1.0  0.56853  0.68707  0.91931  1.0000
  C   C1424     1.0  0.48244  0.68030  0.86119  1.0000
  C   C1425     1.0  0.91148  0.50220  0.80265  1.0000
  H   H1140     1.0  0.72051  0.58116  0.82392  1.0000
  C   C1426     1.0  0.63836  0.56968  0.74487  1.0000
  H   H1141     1.0  0.76246  0.68989  0.64699  1.0000
  H   H1142     1.0  0.80804  0.47112  0.84669  1.0000
  C   C1427     1.0  0.53582  0.70936  0.94180  1.0000
  H   H1143     1.0  0.66263  0.63187  0.75540  1.0000
  C   C1428     1.0  0.96191  0.67991  0.70286  1.0000
  C   C1429     1.0  0.93618  0.47246  0.77067  1.0000
  P   P48       1.0  0.96135  0.49126  0.72120  1.0000
  H   H1144     1.0  0.48679  0.66566  0.87807  1.0000
  C   C1430     1.0  0.73656  0.67143  0.93821  1.0000
  H   H1145     1.0  0.92912  0.58234  0.64906  1.0000
  H   H1146     1.0  0.75568  0.74102  0.64573  1.0000
  C   C1431     1.0  0.75588  0.66486  0.95780  1.0000
  H   H1147     1.0  0.95044  0.67145  0.68763  1.0000
  H   H1148     1.0  0.47637  0.70965  0.93082  1.0000
  C   C1432     1.0  0.52226  0.71286  0.96728  1.0000
  H   H1149     1.0  0.67231  0.67294  0.67480  1.0000
  C   C1433     1.0  0.96462  0.59627  0.75390  1.0000
  C   C1434     1.0  0.96169  0.60757  0.72735  1.0000
  C   C1435     1.0  0.93576  0.56455  0.66200  1.0000
  C   C1436     1.0  0.96305  0.56103  0.66947  1.0000
  C   C1437     1.0  0.96392  0.69456  0.74840  1.0000
  H   H1150     1.0  0.68433  0.72488  0.64575  1.0000
  H   H1151     1.0  0.50600  0.72900  0.96925  1.0000
  C   C1438     1.0  0.70170  0.68200  0.97373  1.0000
  C   C1439     1.0  0.97141  0.53852  0.68687  1.0000
  C   C1440     1.0  0.47478  0.76743  0.90762  1.0000
  H   H1152     1.0  0.47480  0.80604  0.92696  1.0000
