data_image0
_chemical_formula_structural       SFeC2H2CSFeS3CH2C2HC3H2C6PC17HSH17C9HCH3C4FeSH4SCHC2H3C3H2CSHCH2CHC2H4C3H3CHFeCHCFePC8HCHC5H2CH5CH2CH2C3HSH2C3HFeS2HCH3C4HSFeHSFeSHCHCHSH2C2SC2SHC2HCSHSH2C2HC2HC2HC5HC2HC2SC2H2CFePH2CHCH2C6H4CHCH2C2SH2CH3C2HFe2S2CFeHFeS2FeSFeS2H3C6H2CHC6H3SC4H4C3SH3CH3SCHC4H2C2H2C3H3SC2H2C2HCSH2CHCH3CHCHCH4FeHPH2CSC2FeHC2HCH3CH2C2H4C2H2C2HSHC2HC4H2CHC2HCH2CHCHC2H3CPH2C2H3C4HC4HSC3HC9H2C2SC3HC2HPC2H3SCH3C2HSHC2SHC2H2C2HCHCHCH2C2HCHPCHCH4C2HC4H2CHC2HC2H6CHC3H2CHC2PC2HCH2C4SH2C3H3SH2FeCHC2H2CH2FeS4FeS2FeS2FeSFeS3C4HC2H3C6H4C6H4C6H2CHC6H3CSH2CH2C2HC4HC3HCHC2HC4PC19H17C3PC6HC3H6C6H5C2HSC2HCH5C3HCHC2HC4HCSHC2PC4SC2PC7HCH3C2H4CSC2H2C2FeHC2FePC3HC2HC3HC2HCHCH5FeC3FeHSC3HC2H2PC3HCH4CHCHCH3CPHCHC6HCHC4H3CHCSH2CHC2HC2HC3H2C4H2CHC2HC2HC2SHC2HCHFeS2FeSHFeCFeS3H2SCS2C2SC2HCHC6H4C6H4C2H4C4HCSC7PC18H6CH12CFeH2C2H2CSCH2CFeCHC3HCH2C2H3C2HCH2C3FeCH4SC3H2C3H5CSHCPC4FeC4HSC8H2PCHCH3P2H2CH2C5HC3H2CH2CH2CHCHSH3CHC2HSCH4CH3C3HCHCFeS2FeSCSHC2FeHC7H5C5H2CHPHC4HCH4C2HC2HCH3CH3CH3C2HC7HC3HCH3PHCHC3H2C3HSH2CPHC7H4C2HSH2C2HC3SC3H2CHCHC3H2CH2C3H2C7SC2H3CH2C2H4CHC3HCHC2FeCHCH2CHC4PCHCH2C4H4CFeS2FeHSHCHS2FeCSCHFeHCHCH2C9H6FeC2H2CHC2PC13HCH7C4HPHC4HC3HCSCH2CH2C3H2C2H4CHCHC2H2CHSC3HCHCHCHC2HCHSH2C5HCH2C2PCH2C2HCH2CSHCHC3HC4H2CH2C3HCH2C2H3SFeSCH3SC4HS2HS2HSCFeSHFeCSHC6H4PFeHC2HFeCHC6HCH3C3PC6H2C2H5CH2CHC3HCHSHCHFe2C2H3FeC2HCHCH2CHCHSHC2SHS2C2H4C4SFeH2C5HFeC2HCH3FeSCS2CSCFeSHCSCSHSC2FeSFeH3C7H4C2FeC5H2CHCH2C2PC4HC3HC2FeHC3HFeH2CHCH3CH3C6PC3S2H2CHC4H2CHCH2CH3C2HFeCH4CH2C5HFeCH5CSCPH4C2HC2HC2HCH2CH2C4HC3H2C3S2HCH3CHCHCHC3H2CH2CHCH6CH3Fe
_chemical_formula_sum              "S128 Fe64 C960 H768 P32"
_cell_length_a       36.228
_cell_length_b       32.7574
_cell_length_c       74.8956
_cell_angle_alpha    91.77
_cell_angle_beta     89.9993
_cell_angle_gamma    121.086

_space_group_name_H-M_alt    "P 1"
_space_group_IT_number       1

loop_
  _space_group_symop_operation_xyz
  'x, y, z'

loop_
  _atom_site_type_symbol
  _atom_site_label
  _atom_site_symmetry_multiplicity
  _atom_site_fract_x
  _atom_site_fract_y
  _atom_site_fract_z
  _atom_site_occupancy
  S   S1        1.0  0.27967  0.12970  0.16866  1.0000
  Fe  Fe1       1.0  0.30049  0.09634  0.18929  1.0000
  C   C1        1.0  0.29101  0.10332  0.25340  1.0000
  C   C2        1.0  0.31469  0.10713  0.26891  1.0000
  H   H1        1.0  0.26080  0.10230  0.25456  1.0000
  H   H2        1.0  0.30256  0.10852  0.28197  1.0000
  C   C3        1.0  0.35385  0.10867  0.26742  1.0000
  S   S2        1.0  0.36950  0.13210  0.18026  1.0000
  Fe  Fe2       1.0  0.34687  0.15964  0.15843  1.0000
  S   S3        1.0  0.38876  0.22996  0.14515  1.0000
  S   S4        1.0  0.32512  0.09611  0.14003  1.0000
  S   S5        1.0  0.27618  0.09713  0.21720  1.0000
  C   C4        1.0  0.44801  0.28202  0.17248  1.0000
  H   H3        1.0  0.44973  0.17005  0.21987  1.0000
  H   H4        1.0  0.13748  0.07101  0.11302  1.0000
  C   C5        1.0  0.41147  0.13265  0.11268  1.0000
  C   C6        1.0  0.21067  0.09625  0.29894  1.0000
  H   H5        1.0  0.35695  0.09951  0.22191  1.0000
  C   C7        1.0  0.43928  0.27530  0.15406  1.0000
  C   C8        1.0  0.12186  0.02599  0.07760  1.0000
  C   C9        1.0  0.39780  0.26768  0.29945  1.0000
  H   H6        1.0  0.99514  0.05094  0.12849  1.0000
  H   H7        1.0  0.41068  0.04002  0.18752  1.0000
  C   C10       1.0  0.25252  0.32192  0.23753  1.0000
  C   C11       1.0  0.26622  0.36880  0.23320  1.0000
  C   C12       1.0  0.45187  0.14503  0.11953  1.0000
  C   C13       1.0  0.31190  0.36533  0.21030  1.0000
  C   C14       1.0  0.29910  0.31862  0.21489  1.0000
  C   C15       1.0  0.26862  0.29677  0.22832  1.0000
  P   P1        1.0  0.31816  0.28473  0.20281  1.0000
  C   C16       1.0  0.27085  0.23631  0.19162  1.0000
  C   C17       1.0  0.36069  0.32151  0.18776  1.0000
  C   C18       1.0  0.35844  0.30856  0.16957  1.0000
  C   C19       1.0  0.39208  0.33749  0.15828  1.0000
  C   C20       1.0  0.08705  0.00734  0.14779  1.0000
  C   C21       1.0  0.15522  0.14476  0.05273  1.0000
  C   C22       1.0  0.39820  0.36220  0.19464  1.0000
  C   C23       1.0  0.25050  0.19009  0.19825  1.0000
  C   C24       1.0  0.21277  0.15321  0.19001  1.0000
  C   C25       1.0  0.19507  0.16206  0.17511  1.0000
  C   C26       1.0  0.21451  0.20817  0.16871  1.0000
  C   C27       1.0  0.25193  0.24533  0.17708  1.0000
  C   C28       1.0  0.34227  0.26215  0.21757  1.0000
  C   C29       1.0  0.34864  0.27483  0.23590  1.0000
  C   C30       1.0  0.36579  0.25508  0.24709  1.0000
  C   C31       1.0  0.37330  0.21276  0.22166  1.0000
  C   C32       1.0  0.35555  0.23175  0.21048  1.0000
  H   H8        1.0  0.22921  0.30493  0.24796  1.0000
  S   S6        1.0  0.38718  0.04016  0.15029  1.0000
  H   H9        1.0  0.30589  0.42652  0.21602  1.0000
  H   H10       1.0  0.33392  0.38242  0.19951  1.0000
  H   H11       1.0  0.25731  0.26021  0.23164  1.0000
  H   H12       1.0  0.33174  0.27546  0.16409  1.0000
  H   H13       1.0  0.39068  0.32668  0.14434  1.0000
  H   H14       1.0  0.05648  0.12588  0.02519  1.0000
  H   H15       1.0  0.97469  0.10975  0.12061  1.0000
  H   H16       1.0  0.40145  0.37162  0.20878  1.0000
  H   H17       1.0  0.26368  0.18201  0.20967  1.0000
  H   H18       1.0  0.19803  0.11739  0.19494  1.0000
  H   H19       1.0  0.16638  0.13311  0.16852  1.0000
  H   H20       1.0  0.20051  0.21503  0.15725  1.0000
  H   H21       1.0  0.26623  0.28104  0.17216  1.0000
  H   H22       1.0  0.34012  0.29944  0.24166  1.0000
  H   H23       1.0  0.36946  0.26364  0.26131  1.0000
  H   H24       1.0  0.35127  0.22184  0.19634  1.0000
  H   H25       1.0  0.45504  0.11880  0.12676  1.0000
  C   C33       1.0  0.32068  0.99581  0.26251  1.0000
  C   C34       1.0  0.29574  0.39040  0.21954  1.0000
  C   C35       1.0  0.36911  0.10642  0.25041  1.0000
  C   C36       1.0  0.37753  0.22354  0.24001  1.0000
  C   C37       1.0  0.43212  0.39054  0.18336  1.0000
  C   C38       1.0  0.02282  0.14150  0.10028  1.0000
  C   C39       1.0  0.05894  0.98005  0.13347  1.0000
  C   C40       1.0  0.23145  0.08567  0.31211  1.0000
  C   C41       1.0  0.34522  0.10200  0.23493  1.0000
  H   H26       1.0  0.01040  0.03182  0.01516  1.0000
  C   C42       1.0  0.01211  0.07597  0.11807  1.0000
  H   H27       1.0  0.25616  0.19814  0.12838  1.0000
  H   H28       1.0  0.09506  0.99325  0.99023  1.0000
  H   H29       1.0  0.07502  0.01910  0.15878  1.0000
  C   C43       1.0  0.12483  0.15327  0.02525  1.0000
  C   C44       1.0  0.43388  0.04671  0.16070  1.0000
  C   C45       1.0  0.19212  0.06550  0.28398  1.0000
  C   C46       1.0  0.29417  0.98901  0.27705  1.0000
  Fe  Fe3       1.0  0.34541  0.06691  0.16212  1.0000
  S   S7        1.0  0.38468  0.11221  0.28627  1.0000
  H   H30       1.0  0.06465  0.00764  0.01744  1.0000
  H   H31       1.0  0.38429  0.09695  0.11442  1.0000
  H   H32       1.0  0.15195  0.04124  0.15897  1.0000
  H   H33       1.0  0.07277  0.16551  0.08089  1.0000
  S   S8        1.0  0.20201  0.02200  0.13260  1.0000
  C   C47       1.0  0.43097  0.31450  0.29677  1.0000
  H   H34       1.0  0.35527  0.01330  0.26462  1.0000
  C   C48       1.0  0.19366  0.02374  0.28237  1.0000
  C   C49       1.0  0.14673  0.00496  0.13383  1.0000
  H   H35       1.0  0.17889  0.20093  0.08542  1.0000
  H   H36       1.0  0.15563  0.05171  0.08031  1.0000
  H   H37       1.0  0.42997  0.34403  0.30316  1.0000
  C   C50       1.0  0.16031  0.15966  0.03512  1.0000
  C   C51       1.0  0.05533  0.01338  0.00444  1.0000
  C   C52       1.0  0.30619  0.10072  0.23637  1.0000
  H   H38       1.0  0.37453  0.19328  0.29398  1.0000
  H   H39       1.0  0.39910  0.10696  0.24923  1.0000
  C   C53       1.0  0.23379  0.04447  0.31032  1.0000
  S   S9        1.0  0.27795  0.02795  0.17307  1.0000
  H   H40       1.0  0.38228  0.18822  0.21615  1.0000
  C   C54       1.0  0.30306  0.98298  0.24522  1.0000
  H   H41       1.0  0.37090  0.26080  0.30782  1.0000
  H   H42       1.0  0.12872  0.16450  0.01157  1.0000
  C   C55       1.0  0.40595  0.16653  0.10417  1.0000
  H   H43       1.0  0.04691  0.09835  0.05605  1.0000
  C   C56       1.0  0.13069  0.01988  0.14796  1.0000
  C   C57       1.0  0.02502  0.02742  0.00320  1.0000
  H   H44       1.0  0.20943  0.12855  0.30027  1.0000
  H   H45       1.0  0.37415  0.15735  0.09956  1.0000
  H   H46       1.0  0.38925  0.20679  0.24874  1.0000
  H   H47       1.0  0.20256  0.11276  0.13239  1.0000
  C   C58       1.0  0.44127  0.21249  0.10205  1.0000
  C   C59       1.0  0.04764  0.00561  0.07450  1.0000
  C   C60       1.0  0.42885  0.37845  0.16515  1.0000
  H   H48       1.0  0.45570  0.39965  0.15652  1.0000
  H   H49       1.0  0.05263  0.04758  0.11217  1.0000
  H   H50       1.0  0.24386  0.24238  0.10502  1.0000
  C   C61       1.0  0.10940  0.97884  0.07292  1.0000
  H   H51       1.0  0.18273  0.14844  0.05995  1.0000
  Fe  Fe4       1.0  0.25967  0.06280  0.15218  1.0000
  C   C62       1.0  0.39997  0.22960  0.29175  1.0000
  H   H52       1.0  0.97717  0.41231  0.25897  1.0000
  C   C63       1.0  0.09087  0.03946  0.07881  1.0000
  Fe  Fe5       1.0  0.36959  0.11554  0.31550  1.0000
  P   P2        1.0  0.10709  0.10114  0.08283  1.0000
  C   C64       1.0  0.06579  0.10499  0.09486  1.0000
  C   C65       1.0  0.15454  0.13218  0.09713  1.0000
  C   C66       1.0  0.16081  0.10817  0.11091  1.0000
  C   C67       1.0  0.19740  0.13192  0.12207  1.0000
  C   C68       1.0  0.22756  0.18011  0.11982  1.0000
  C   C69       1.0  0.22071  0.20484  0.10660  1.0000
  C   C70       1.0  0.18410  0.18110  0.09539  1.0000
  C   C71       1.0  0.05564  0.13983  0.09103  1.0000
  H   H53       1.0  0.19171  0.17562  0.02904  1.0000
  C   C72       1.0  0.00075  0.10923  0.11367  1.0000
  H   H54       1.0  0.30894  0.00207  0.29019  1.0000
  C   C73       1.0  0.04453  0.07389  0.10872  1.0000
  C   C74       1.0  0.11467  0.12420  0.06071  1.0000
  C   C75       1.0  0.07895  0.11659  0.05052  1.0000
  C   C76       1.0  0.08415  0.13161  0.03294  1.0000
  C   C77       1.0  0.43557  0.23815  0.28164  1.0000
  H   H55       1.0  0.43677  0.23900  0.09578  1.0000
  H   H56       1.0  0.01420  0.16755  0.09702  1.0000
  C   C78       1.0  0.43666  0.04396  0.17921  1.0000
  H   H57       1.0  0.42506  0.25645  0.18153  1.0000
  H   H58       1.0  0.25364  0.38823  0.24032  1.0000
  H   H59       1.0  0.02347  0.01562  0.07455  1.0000
  H   H60       1.0  0.43734  0.20813  0.27633  1.0000
  H   H61       1.0  0.17690  0.07422  0.27354  1.0000
  C   C79       1.0  0.21376  0.01239  0.29573  1.0000
  H   H62       1.0  0.17947  0.00050  0.27062  1.0000
  H   H63       1.0  0.25134  0.03810  0.32038  1.0000
  C   C80       1.0  0.96830  0.00536  0.31951  1.0000
  H   H64       1.0  0.98817  0.00916  0.30813  1.0000
  H   H65       1.0  0.32395  0.99014  0.23390  1.0000
  C   C81       1.0  0.96500  0.43397  0.26451  1.0000
  C   C82       1.0  0.11844  0.97710  0.11966  1.0000
  C   C83       1.0  0.07241  0.00514  0.98892  1.0000
  H   H66       1.0  0.15839  0.38523  0.59191  1.0000
  S   S10       1.0  0.13814  0.36265  0.64473  1.0000
  H   H67       1.0  0.21614  0.44949  0.64719  1.0000
  H   H68       1.0  0.16552  0.98138  0.37846  1.0000
  C   C84       1.0  0.09216  0.01538  0.61002  1.0000
  C   C85       1.0  0.31596  0.44803  0.64705  1.0000
  C   C86       1.0  0.09213  0.18559  0.59375  1.0000
  H   H69       1.0  0.99880  0.08435  0.58094  1.0000
  Fe  Fe6       1.0  0.30907  0.08905  0.34768  1.0000
  S   S11       1.0  0.33260  0.04863  0.33078  1.0000
  S   S12       1.0  0.36521  0.11540  0.36687  1.0000
  H   H70       1.0  0.21554  0.11878  0.35616  1.0000
  C   C87       1.0  0.00886  0.09057  0.62787  1.0000
  H   H71       1.0  0.14334  0.35744  0.53122  1.0000
  H   H72       1.0  0.24900  0.32190  0.64377  1.0000
  H   H73       1.0  0.08180  0.02164  0.33894  1.0000
  C   C88       1.0  0.05220  0.16873  0.64332  1.0000
  C   C89       1.0  0.04588  0.12395  0.63780  1.0000
  C   C90       1.0  0.97824  0.10257  0.62341  1.0000
  C   C91       1.0  0.06178  0.13701  0.59124  1.0000
  H   H74       1.0  0.11391  0.33772  0.56147  1.0000
  S   S13       1.0  0.00391  0.03575  0.62057  1.0000
  Fe  Fe7       1.0  0.39110  0.08020  0.34883  1.0000
  H   H75       1.0  0.09090  0.03977  0.61978  1.0000
  S   S14       1.0  0.41383  0.03273  0.35992  1.0000
  Fe  Fe8       1.0  0.40061  0.17849  0.34925  1.0000
  S   S15       1.0  0.44350  0.25018  0.36368  1.0000
  H   H76       1.0  0.23165  0.41998  0.61911  1.0000
  C   C92       1.0  0.18790  0.29299  0.54365  1.0000
  H   H77       1.0  0.23119  0.99502  0.52178  1.0000
  C   C93       1.0  0.10107  0.31773  0.59752  1.0000
  H   H78       1.0  0.15067  0.11988  0.36647  1.0000
  S   S16       1.0  0.97898  0.02350  0.41961  1.0000
  H   H79       1.0  0.13196  0.99463  0.33024  1.0000
  H   H80       1.0  0.06031  0.03086  0.58941  1.0000
  C   C94       1.0  0.02262  0.12212  0.58244  1.0000
  C   C95       1.0  0.20801  0.32273  0.60294  1.0000
  S   S17       1.0  0.12604  0.47306  0.64215  1.0000
  C   C96       1.0  0.06065  0.29615  0.60563  1.0000
  C   C97       1.0  0.15381  0.08957  0.36918  1.0000
  S   S18       1.0  0.07380  0.05278  0.38479  1.0000
  H   H81       1.0  0.21902  0.33877  0.59015  1.0000
  C   C98       1.0  0.98759  0.03077  0.33552  1.0000
  C   C99       1.0  0.07497  0.01043  0.59286  1.0000
  H   H82       1.0  0.12290  0.99155  0.62804  1.0000
  C   C100      1.0  0.12093  0.05131  0.37852  1.0000
  S   S19       1.0  0.42959  0.14456  0.33264  1.0000
  H   H83       1.0  0.20921  0.04421  0.53934  1.0000
  S   S20       1.0  0.34284  0.15484  0.33093  1.0000
  H   H84       1.0  0.01465  0.30730  0.61975  1.0000
  H   H85       1.0  0.12217  0.19608  0.60061  1.0000
  C   C101      1.0  0.23861  0.33217  0.61633  1.0000
  C   C102      1.0  0.06993  0.37379  0.61227  1.0000
  H   H86       1.0  0.06813  0.11079  0.59653  1.0000
  C   C103      1.0  0.15158  0.33678  0.53958  1.0000
  C   C104      1.0  0.12619  0.36773  0.59724  1.0000
  H   H87       1.0  0.11680  0.25556  0.62660  1.0000
  C   C105      1.0  0.22532  0.31360  0.63325  1.0000
  C   C106      1.0  0.04513  0.32413  0.61291  1.0000
  H   H88       1.0  0.04177  0.25793  0.60710  1.0000
  C   C107      1.0  0.14606  0.29937  0.56778  1.0000
  C   C108      1.0  0.98475  0.14750  0.62881  1.0000
  C   C109      1.0  0.12577  0.01255  0.38196  1.0000
  C   C110      1.0  0.04452  0.20462  0.57821  1.0000
  C   C111      1.0  0.16383  0.29387  0.60637  1.0000
  H   H89       1.0  0.05853  0.39554  0.61846  1.0000
  C   C112      1.0  0.18143  0.28580  0.63685  1.0000
  C   C113      1.0  0.17167  0.28207  0.56091  1.0000
  H   H90       1.0  0.17119  0.27285  0.65017  1.0000
  C   C114      1.0  0.16242  0.01175  0.37587  1.0000
  C   C115      1.0  0.07418  0.98596  0.34191  1.0000
  S   S21       1.0  0.23953  0.04515  0.35843  1.0000
  C   C116      1.0  0.19076  0.08906  0.36330  1.0000
  C   C117      1.0  0.19524  0.04992  0.36651  1.0000
  H   H91       1.0  0.42127  0.10144  0.40177  1.0000
  H   H92       1.0  0.02232  0.05398  0.33666  1.0000
  C   C118      1.0  0.13527  0.32588  0.55684  1.0000
  Fe  Fe9       1.0  0.01299  0.99993  0.40004  1.0000
  P   P3        1.0  0.12346  0.28256  0.58968  1.0000
  H   H93       1.0  0.44058  0.17914  0.38915  1.0000
  H   H94       1.0  0.20782  0.27972  0.53846  1.0000
  C   C119      1.0  0.15076  0.27608  0.62349  1.0000
  H   H95       1.0  0.13043  0.43420  0.60479  1.0000
  C   C120      1.0  0.08347  0.21981  0.58746  1.0000
  H   H96       1.0  0.17889  0.25992  0.56890  1.0000
  H   H97       1.0  0.19044  0.32876  0.51961  1.0000
  C   C121      1.0  0.17803  0.32052  0.53302  1.0000
  C   C122      1.0  0.23069  0.47310  0.63626  1.0000
  C   C123      1.0  0.02165  0.18081  0.63883  1.0000
  C   C124      1.0  0.23971  0.45671  0.62041  1.0000
  C   C125      1.0  0.11049  0.39559  0.60447  1.0000
  C   C126      1.0  0.01403  0.15591  0.57587  1.0000
  H   H98       1.0  0.30675  0.41444  0.64027  1.0000
  H   H99       1.0  0.03767  0.23043  0.57290  1.0000
  H   H100      1.0  0.14846  0.00646  0.55991  1.0000
  H   H101      1.0  0.10089  0.98299  0.38910  1.0000
  C   C127      1.0  0.07489  0.97766  0.58042  1.0000
  H   H102      1.0  0.06988  0.11514  0.64123  1.0000
  C   C128      1.0  0.96207  0.02626  0.35016  1.0000
  H   H103      1.0  0.27269  0.35473  0.61375  1.0000
  H   H104      1.0  0.24603  0.10944  0.32373  1.0000
  C   C129      1.0  0.10995  0.98808  0.61467  1.0000
  C   C130      1.0  0.45325  0.12444  0.39665  1.0000
  S   S22       1.0  0.02766  0.23663  0.64539  1.0000
  H   H105      1.0  0.44854  0.98983  0.38084  1.0000
  H   H106      1.0  0.97704  0.04587  0.36261  1.0000
  C   C131      1.0  0.19206  0.00590  0.54074  1.0000
  H   H107      1.0  0.01562  0.97680  0.50250  1.0000
  H   H108      1.0  0.98367  0.14426  0.56903  1.0000
  H   H109      1.0  0.08060  0.19377  0.65110  1.0000
  C   C132      1.0  0.15752  0.98428  0.55244  1.0000
  C   C133      1.0  0.20443  0.97819  0.53084  1.0000
  H   H110      1.0  0.96121  0.15665  0.62504  1.0000
  Fe  Fe10      1.0  0.10647  0.36629  0.69387  1.0000
  Fe  Fe11      1.0  0.17807  0.37719  0.66971  1.0000
  S   S23       1.0  0.08234  0.37076  0.72138  1.0000
  S   S24       1.0  0.16302  0.42999  0.68193  1.0000
  C   C134      1.0  0.05977  0.31699  0.90274  1.0000
  Fe  Fe12      1.0  0.19308  0.42845  0.84929  1.0000
  H   H111      1.0  0.23685  0.07818  0.94963  1.0000
  Fe  Fe13      1.0  0.12252  0.32329  0.85488  1.0000
  S   S25       1.0  0.08669  0.31981  0.82975  1.0000
  S   S26       1.0  0.10263  0.26725  0.87634  1.0000
  Fe  Fe14      1.0  0.15208  0.36048  0.81741  1.0000
  S   S27       1.0  0.17089  0.34647  0.79013  1.0000
  Fe  Fe15      1.0  0.09976  0.39275  0.83851  1.0000
  S   S28       1.0  0.18769  0.35875  0.84180  1.0000
  S   S29       1.0  0.13107  0.39384  0.86441  1.0000
  H   H112      1.0  0.07584  0.03213  0.88829  1.0000
  H   H113      1.0  0.02872  0.30385  0.87715  1.0000
  H   H114      1.0  0.14882  0.34727  0.72559  1.0000
  C   C135      1.0  0.06239  0.20543  0.87627  1.0000
  C   C136      1.0  0.05349  0.18092  0.89233  1.0000
  C   C137      1.0  0.02279  0.13158  0.89282  1.0000
  C   C138      1.0  0.05908  0.01070  0.97199  1.0000
  C   C139      1.0  0.34768  0.43015  0.80938  1.0000
  C   C140      1.0  0.03990  0.17998  0.86071  1.0000
  H   H115      1.0  0.07061  0.20028  0.90445  1.0000
  H   H116      1.0  0.01635  0.11333  0.90526  1.0000
  C   C141      1.0  0.05560  0.30444  0.92059  1.0000
  H   H117      1.0  0.04652  0.19824  0.84827  1.0000
  C   C142      1.0  0.10762  0.36459  0.74038  1.0000
  C   C143      1.0  0.09533  0.37130  0.75750  1.0000
  C   C144      1.0  0.11458  0.36594  0.77286  1.0000
  C   C145      1.0  0.14624  0.35381  0.77117  1.0000
  C   C146      1.0  0.15883  0.34763  0.75407  1.0000
  C   C147      1.0  0.13955  0.35295  0.73872  1.0000
  H   H118      1.0  0.07058  0.38024  0.75887  1.0000
  H   H119      1.0  0.10451  0.37049  0.78600  1.0000
  H   H120      1.0  0.14537  0.46218  0.79188  1.0000
  S   S30       1.0  0.12442  0.31355  0.68361  1.0000
  C   C148      1.0  0.26320  0.46758  0.73368  1.0000
  C   C149      1.0  0.09117  0.09253  0.90571  1.0000
  C   C150      1.0  0.28533  0.45113  0.74372  1.0000
  C   C151      1.0  0.02418  0.29425  0.89101  1.0000
  H   H121      1.0  0.03776  0.45966  0.74799  1.0000
  H   H122      1.0  0.96734  0.30515  0.85656  1.0000
  H   H123      1.0  0.98877  0.24211  0.80978  1.0000
  H   H124      1.0  0.25337  0.34621  0.72095  1.0000
  C   C152      1.0  0.23554  0.39706  0.71410  1.0000
  C   C153      1.0  0.00937  0.13064  0.86119  1.0000
  C   C154      1.0  0.01562  0.26944  0.92684  1.0000
  S   S31       1.0  0.24734  0.39417  0.66818  1.0000
  H   H125      1.0  0.09621  0.43998  0.91052  1.0000
  H   H126      1.0  0.96082  0.15997  0.89239  1.0000
  H   H127      1.0  0.09879  0.09510  0.95099  1.0000
  C   C155      1.0  0.39199  0.44869  0.80791  1.0000
  H   H128      1.0  0.10540  0.14640  0.92618  1.0000
  H   H129      1.0  0.09402  0.11513  0.89486  1.0000
  H   H130      1.0  0.21570  0.37575  0.70276  1.0000
  S   S32       1.0  0.16187  0.43253  0.82422  1.0000
  C   C156      1.0  0.29115  0.44935  0.66110  1.0000
  H   H131      1.0  0.06700  0.42849  0.79569  1.0000
  C   C157      1.0  0.25667  0.38030  0.72443  1.0000
  C   C158      1.0  0.09748  0.11007  0.92339  1.0000
  C   C159      1.0  0.02877  0.02512  0.97091  1.0000
  C   C160      1.0  0.98392  0.25880  0.89715  1.0000
  H   H132      1.0  0.08611  0.46780  0.67627  1.0000
  H   H133      1.0  0.29720  0.39383  0.74751  1.0000
  C   C161      1.0  0.97814  0.27744  0.83214  1.0000
  C   C162      1.0  0.32804  0.45047  0.80010  1.0000
  H   H134      1.0  0.03194  0.46951  0.78336  1.0000
  H   H135      1.0  0.29369  0.43609  0.80134  1.0000
  C   C163      1.0  0.09333  0.08073  0.93740  1.0000
  C   C164      1.0  0.08101  0.04578  0.90201  1.0000
  C   C165      1.0  0.28146  0.40726  0.73930  1.0000
  H   H136      1.0  0.22547  0.44485  0.76720  1.0000
  H   H137      1.0  0.16666  0.07115  0.94436  1.0000
  H   H138      1.0  0.18329  0.33825  0.75267  1.0000
  S   S33       1.0  0.06210  0.35349  0.67061  1.0000
  C   C166      1.0  0.12947  0.00163  0.95591  1.0000
  C   C167      1.0  0.08205  0.03325  0.93382  1.0000
  H   H139      1.0  0.32851  0.40018  0.81778  1.0000
  H   H140      1.0  0.08359  0.32141  0.92946  1.0000
  C   C168      1.0  0.00075  0.10604  0.87719  1.0000
  C   C169      1.0  0.20974  0.01021  0.96193  1.0000
  H   H141      1.0  0.98254  0.99084  0.82060  1.0000
  C   C170      1.0  0.16760  0.04253  0.95077  1.0000
  S   S34       1.0  0.04795  0.41148  0.83607  1.0000
  H   H142      1.0  0.00798  0.43835  0.86277  1.0000
  H   H143      1.0  0.98780  0.04349  0.98544  1.0000
  C   C171      1.0  0.00655  0.45271  0.72302  1.0000
  H   H144      1.0  0.01243  0.25949  0.94066  1.0000
  C   C172      1.0  0.96642  0.27462  0.85004  1.0000
  H   H145      1.0  0.98809  0.30989  0.82509  1.0000
  H   H146      1.0  0.01638  0.02763  0.95808  1.0000
  H   H147      1.0  0.09107  0.34312  0.89778  1.0000
  C   C173      1.0  0.08604  0.46157  0.78881  1.0000
  H   H148      1.0  0.97810  0.45568  0.69821  1.0000
  C   C174      1.0  0.20755  0.04671  0.95375  1.0000
  H   H149      1.0  0.22767  0.44655  0.79985  1.0000
  C   C175      1.0  0.96712  0.19811  0.83280  1.0000
  H   H150      1.0  0.40717  0.43298  0.81518  1.0000
  H   H151      1.0  0.24071  0.01339  0.96415  1.0000
  H   H152      1.0  0.36348  0.44272  0.72288  1.0000
  H   H153      1.0  0.99251  0.11135  0.84901  1.0000
  Fe  Fe16      1.0  0.08302  0.30395  0.65942  1.0000
  H   H154      1.0  0.00202  0.41782  0.71987  1.0000
  P   P4        1.0  0.07764  0.99546  0.95184  1.0000
  H   H155      1.0  0.22159  0.45230  0.71063  1.0000
  H   H156      1.0  0.96848  0.16898  0.82625  1.0000
  C   C176      1.0  0.99300  0.47396  0.71083  1.0000
  S   S35       1.0  0.96193  0.04374  0.87677  1.0000
  C   C177      1.0  0.07695  0.01641  0.91597  1.0000
  C   C178      1.0  0.23884  0.44053  0.71865  1.0000
  Fe  Fe17      1.0  0.12037  0.41250  0.65786  1.0000
  H   H157      1.0  0.06906  0.98038  0.91274  1.0000
  C   C179      1.0  0.97987  0.24677  0.91520  1.0000
  C   C180      1.0  0.97851  0.23924  0.82352  1.0000
  H   H158      1.0  0.08656  0.45262  0.87881  1.0000
  C   C181      1.0  0.05781  0.46832  0.84322  1.0000
  H   H159      1.0  0.10799  0.46589  0.73981  1.0000
  H   H160      1.0  0.17315  0.47148  0.75228  1.0000
  H   H161      1.0  0.30441  0.47153  0.75528  1.0000
  C   C182      1.0  0.03176  0.47061  0.85650  1.0000
  H   H162      1.0  0.37144  0.46745  0.75484  1.0000
  H   H163      1.0  0.31038  0.46866  0.84798  1.0000
  C   C183      1.0  0.11944  0.47290  0.90442  1.0000
  C   C184      1.0  0.01228  0.03397  0.98646  1.0000
  H   H164      1.0  0.97276  0.97514  0.85292  1.0000
  H   H165      1.0  0.13334  0.96844  0.07241  1.0000
  H   H166      1.0  0.05635  0.90848  0.06563  1.0000
  H   H167      1.0  0.04458  0.80069  0.28094  1.0000
  C   C185      1.0  0.11237  0.82806  0.27734  1.0000
  C   C186      1.0  0.07491  0.96492  0.11941  1.0000
  H   H168      1.0  0.05631  0.87380  0.29722  1.0000
  H   H169      1.0  0.07773  0.77507  0.10852  1.0000
  C   C187      1.0  0.12548  0.91061  0.29543  1.0000
  C   C188      1.0  0.04542  0.74416  0.10906  1.0000
  H   H170      1.0  0.13044  0.96509  0.10875  1.0000
  S   S36       1.0  0.00438  0.96596  0.13394  1.0000
  H   H171      1.0  0.27042  0.91767  0.29963  1.0000
  C   C189      1.0  0.07704  0.83064  0.28333  1.0000
  C   C190      1.0  0.01028  0.75026  0.11157  1.0000
  H   H172      1.0  0.10730  0.79609  0.27031  1.0000
  C   C191      1.0  0.23286  0.94309  0.31333  1.0000
  C   C192      1.0  0.96956  0.77770  0.14540  1.0000
  C   C193      1.0  0.03527  0.95853  0.06984  1.0000
  C   C194      1.0  0.99729  0.65852  0.10816  1.0000
  H   H173      1.0  0.05366  0.94359  0.10841  1.0000
  H   H174      1.0  0.18142  0.86416  0.27580  1.0000
  C   C195      1.0  0.16105  0.90859  0.28916  1.0000
  H   H175      1.0  0.01604  0.78614  0.11296  1.0000
  C   C196      1.0  0.15428  0.86676  0.28036  1.0000
  C   C197      1.0  0.08362  0.87184  0.29245  1.0000
  H   H176      1.0  0.02720  0.48998  0.27440  1.0000
  C   C198      1.0  0.06609  0.94507  0.06912  1.0000
  H   H177      1.0  0.97468  0.77789  0.08612  1.0000
  H   H178      1.0  0.99907  0.53882  0.28755  1.0000
  C   C199      1.0  0.03893  0.69831  0.10734  1.0000
  H   H179      1.0  0.12973  0.80701  0.31405  1.0000
  C   C200      1.0  0.26023  0.92452  0.31236  1.0000
  H   H180      1.0  0.99226  0.62293  0.10689  1.0000
  C   C201      1.0  0.24938  0.96681  0.27452  1.0000
  C   C202      1.0  0.96823  0.71046  0.11239  1.0000
  H   H181      1.0  0.00172  0.93252  0.06670  1.0000
  H   H182      1.0  0.13001  0.94209  0.30263  1.0000
  H   H183      1.0  0.06619  0.69361  0.10544  1.0000
  C   C203      1.0  0.23196  0.95475  0.25706  1.0000
  P   P5        1.0  0.21508  0.95809  0.29330  1.0000
  H   H184      1.0  0.19789  0.94005  0.25461  1.0000
  H   H185      1.0  0.00902  0.82620  0.16689  1.0000
  C   C204      1.0  0.97733  0.50519  0.28059  1.0000
  C   C205      1.0  0.25878  0.96294  0.24247  1.0000
  H   H186      1.0  0.24546  0.95475  0.22898  1.0000
  H   H187      1.0  0.98163  0.88109  0.16309  1.0000
  H   H188      1.0  0.98204  0.75432  0.14712  1.0000
  C   C206      1.0  0.98472  0.81819  0.15672  1.0000
  C   C207      1.0  0.96915  0.84893  0.15470  1.0000
  C   C208      1.0  0.96206  0.66448  0.11069  1.0000
  C   C209      1.0  0.99317  0.47767  0.27322  1.0000
  H   H189      1.0  0.26424  0.69373  0.63149  1.0000
  C   C210      1.0  0.34493  0.69590  0.61204  1.0000
  C   C211      1.0  0.03768  0.95660  0.35178  1.0000
  C   C212      1.0  0.12726  0.81459  0.32803  1.0000
  C   C213      1.0  0.04316  0.83920  0.38278  1.0000
  H   H190      1.0  0.28705  0.55981  0.59792  1.0000
  S   S37       1.0  0.14880  0.72545  0.64882  1.0000
  C   C214      1.0  0.15867  0.81997  0.34028  1.0000
  C   C215      1.0  0.96257  0.85011  0.53727  1.0000
  C   C216      1.0  0.17707  0.64173  0.60343  1.0000
  H   H191      1.0  0.12316  0.93398  0.60633  1.0000
  C   C217      1.0  0.14764  0.90703  0.54425  1.0000
  C   C218      1.0  0.26326  0.92420  0.34466  1.0000
  C   C219      1.0  0.21817  0.94831  0.33010  1.0000
  C   C220      1.0  0.09290  0.81933  0.33379  1.0000
  C   C221      1.0  0.09194  0.94937  0.58508  1.0000
  C   C222      1.0  0.99757  0.78952  0.34847  1.0000
  C   C223      1.0  0.09387  0.85982  0.58017  1.0000
  C   C224      1.0  0.26279  0.55244  0.62477  1.0000
  C   C225      1.0  0.99303  0.77391  0.62451  1.0000
  H   H192      1.0  0.98198  0.77296  0.41717  1.0000
  H   H193      1.0  0.00669  0.88350  0.44973  1.0000
  C   C226      1.0  0.04022  0.88607  0.53766  1.0000
  C   C227      1.0  0.05777  0.81383  0.58193  1.0000
  S   S38       1.0  0.96691  0.93061  0.58596  1.0000
  C   C228      1.0  0.06640  0.82230  0.63644  1.0000
  C   C229      1.0  0.02996  0.77749  0.63251  1.0000
  C   C230      1.0  0.13741  0.83581  0.59639  1.0000
  H   H194      1.0  0.00014  0.85919  0.57964  1.0000
  C   C231      1.0  0.02790  0.85974  0.62484  1.0000
  C   C232      1.0  0.06485  0.86327  0.63277  1.0000
  H   H195      1.0  0.03087  0.74571  0.63497  1.0000
  P   P6        1.0  0.08991  0.90577  0.56905  1.0000
  C   C233      1.0  0.98094  0.95974  0.50319  1.0000
  C   C234      1.0  0.07452  0.87915  0.39279  1.0000
  H   H196      1.0  0.06887  0.81526  0.32414  1.0000
  H   H197      1.0  0.03916  0.84267  0.43468  1.0000
  H   H198      1.0  0.03336  0.74439  0.59266  1.0000
  S   S39       1.0  0.11576  0.82953  0.64455  1.0000
  C   C235      1.0  0.40346  0.66449  0.61293  1.0000
  H   H199      1.0  0.39665  0.75956  0.60078  1.0000
  H   H200      1.0  0.14452  0.56657  0.63422  1.0000
  H   H201      1.0  0.32309  0.70907  0.61171  1.0000
  C   C236      1.0  0.13388  0.87025  0.58725  1.0000
  C   C237      1.0  0.33214  0.65116  0.61891  1.0000
  H   H202      1.0  0.98970  0.88107  0.48166  1.0000
  S   S40       1.0  0.00530  0.94144  0.41738  1.0000
  H   H203      1.0  0.20608  0.55828  0.60243  1.0000
  C   C238      1.0  0.25969  0.48797  0.60653  1.0000
  C   C239      1.0  0.00082  0.86158  0.56523  1.0000
  S   S41       1.0  0.41470  0.58403  0.64304  1.0000
  H   H204      1.0  0.09272  0.89805  0.63590  1.0000
  C   C240      1.0  0.27108  0.53572  0.60866  1.0000
  C   C241      1.0  0.24164  0.52048  0.63841  1.0000
  H   H205      1.0  0.02641  0.80433  0.57677  1.0000
  H   H206      1.0  0.16217  0.90546  0.58614  1.0000
  C   C242      1.0  0.36694  0.53354  0.65072  1.0000
  C   C243      1.0  0.97415  0.85930  0.45402  1.0000
  H   H207      1.0  0.00181  0.87494  0.51398  1.0000
  C   C244      1.0  0.24031  0.66759  0.62213  1.0000
  H   H208      1.0  0.13053  0.86863  0.54539  1.0000
  C   C245      1.0  0.99197  0.81498  0.62039  1.0000
  H   H209      1.0  0.12029  0.84326  0.37810  1.0000
  C   C246      1.0  0.07310  0.88041  0.41144  1.0000
  H   H210      1.0  0.42630  0.65251  0.61364  1.0000
  H   H211      1.0  0.10377  0.76431  0.60587  1.0000
  C   C247      1.0  0.17658  0.59980  0.59873  1.0000
  C   C248      1.0  0.04022  0.84176  0.42024  1.0000
  H   H212      1.0  0.97601  0.83325  0.33644  1.0000
  C   C249      1.0  0.35288  0.48975  0.64169  1.0000
  H   H213      1.0  0.19176  0.90728  0.52489  1.0000
  P   P7        1.0  0.04633  0.83838  0.35870  1.0000
  C   C250      1.0  0.12154  0.83513  0.36410  1.0000
  H   H214      1.0  0.40448  0.76923  0.65131  1.0000
  C   C251      1.0  0.98805  0.74252  0.35035  1.0000
  H   H215      1.0  0.18028  0.83456  0.36778  1.0000
  H   H216      1.0  0.15136  0.57309  0.58994  1.0000
  H   H217      1.0  0.13006  0.62394  0.65034  1.0000
  H   H218      1.0  0.20927  0.70796  0.61904  1.0000
  C   C252      1.0  0.15570  0.83003  0.35830  1.0000
  C   C253      1.0  0.20898  0.67563  0.61512  1.0000
  H   H219      1.0  0.02752  0.89162  0.62185  1.0000
  C   C254      1.0  0.00834  0.80224  0.41038  1.0000
  C   C255      1.0  0.10126  0.79039  0.59824  1.0000
  C   C256      1.0  0.96955  0.79756  0.33825  1.0000
  C   C257      1.0  0.04013  0.88177  0.55629  1.0000
  H   H220      1.0  0.06999  0.90243  0.53038  1.0000
  H   H221      1.0  0.11695  0.91538  0.33832  1.0000
  C   C258      1.0  0.08992  0.83000  0.35185  1.0000
  H   H222      1.0  0.35329  0.60204  0.62501  1.0000
  C   C259      1.0  0.09383  0.92563  0.34177  1.0000
  C   C260      1.0  0.18222  0.92877  0.53259  1.0000
  H   H223      1.0  0.10026  0.90922  0.38615  1.0000
  C   C261      1.0  0.38676  0.72474  0.60577  1.0000
  C   C262      1.0  0.10997  0.95527  0.60225  1.0000
  H   H224      1.0  0.18558  0.81682  0.33579  1.0000
  H   H225      1.0  0.34637  0.77502  0.63615  1.0000
  H   H226      1.0  0.98385  0.77058  0.38445  1.0000
  H   H227      1.0  0.01708  0.96962  0.35630  1.0000
  H   H228      1.0  0.21746  0.61605  0.65293  1.0000
  H   H229      1.0  0.16786  0.84464  0.60254  1.0000
  C   C263      1.0  0.05694  0.89567  0.35158  1.0000
  H   H230      1.0  0.00932  0.73554  0.35811  1.0000
  C   C264      1.0  0.36186  0.63582  0.61936  1.0000
  C   C265      1.0  0.41602  0.70904  0.60621  1.0000
  C   C266      1.0  0.20786  0.59159  0.60581  1.0000
  H   H231      1.0  0.37136  0.48785  0.63069  1.0000
  H   H232      1.0  0.09733  0.91160  0.41903  1.0000
  C   C267      1.0  0.06159  0.77929  0.59087  1.0000
  H   H233      1.0  0.15242  0.64771  0.59822  1.0000
  C   C268      1.0  0.00968  0.80092  0.39172  1.0000
  C   C269      1.0  0.28199  0.62775  0.65156  1.0000
  P   P8        1.0  0.27893  0.61432  0.62786  1.0000
  C   C270      1.0  0.24004  0.62555  0.61757  1.0000
  C   C271      1.0  0.13515  0.93465  0.55432  1.0000
  H   H234      1.0  0.27681  0.91946  0.35678  1.0000
  C   C272      1.0  0.02927  0.91184  0.35678  1.0000
  H   H235      1.0  0.22434  0.94660  0.35863  1.0000
  H   H236      1.0  0.00165  0.89023  0.36501  1.0000
  C   C273      1.0  0.11633  0.51343  0.65416  1.0000
  C   C274      1.0  0.12861  0.55752  0.64692  1.0000
  C   C275      1.0  0.34561  0.77102  0.65045  1.0000
  C   C276      1.0  0.23385  0.93962  0.34570  1.0000
  S   S42       1.0  0.27311  0.77785  0.64917  1.0000
  H   H237      1.0  0.23386  0.53184  0.65083  1.0000
  H   H238      1.0  0.99738  0.67060  0.65277  1.0000
  C   C277      1.0  0.00154  0.87039  0.52824  1.0000
  C   C278      1.0  0.96088  0.94640  0.52000  1.0000
  C   C279      1.0  0.27586  0.91585  0.32799  1.0000
  H   H239      1.0  0.19606  0.96116  0.33127  1.0000
  H   H240      1.0  0.98014  0.95313  0.53198  1.0000
  H   H241      1.0  0.44864  0.73163  0.60163  1.0000
  S   S43       1.0  0.98421  0.96894  0.46642  1.0000
  H   H242      1.0  0.29885  0.90409  0.32721  1.0000
  H   H243      1.0  0.96541  0.73909  0.62112  1.0000
  Fe  Fe18      1.0  0.96719  0.96109  0.43615  1.0000
  C   C280      1.0  0.10238  0.97062  0.33699  1.0000
  H   H244      1.0  0.34620  0.63950  0.65539  1.0000
  C   C281      1.0  0.96219  0.84533  0.55574  1.0000
  C   C282      1.0  0.96452  0.85788  0.47211  1.0000
  H   H245      1.0  0.06064  0.97377  0.56729  1.0000
  H   H246      1.0  0.26711  0.47547  0.59429  1.0000
  C   C283      1.0  0.14172  0.91879  0.82989  1.0000
  H   H247      1.0  0.15690  0.93121  0.84300  1.0000
  H   H248      1.0  0.26796  0.74664  0.71803  1.0000
  Fe  Fe19      1.0  0.17404  0.78784  0.69590  1.0000
  S   S44       1.0  0.20272  0.82781  0.67097  1.0000
  S   S45       1.0  0.18690  0.82577  0.72284  1.0000
  S   S46       1.0  0.10734  0.74629  0.68446  1.0000
  S   S47       1.0  0.19110  0.73250  0.68916  1.0000
  Fe  Fe20      1.0  0.09698  0.72734  0.81224  1.0000
  S   S48       1.0  0.15225  0.79829  0.82180  1.0000
  S   S49       1.0  0.06169  0.71327  0.78567  1.0000
  Fe  Fe21      1.0  0.10010  0.67875  0.84574  1.0000
  S   S50       1.0  0.15558  0.74667  0.85797  1.0000
  S   S51       1.0  0.06730  0.60952  0.86035  1.0000
  Fe  Fe22      1.0  0.11894  0.78107  0.84835  1.0000
  S   S52       1.0  0.11470  0.83996  0.86388  1.0000
  Fe  Fe23      1.0  0.18357  0.75763  0.83047  1.0000
  S   S53       1.0  0.24936  0.77571  0.82000  1.0000
  S   S54       1.0  0.06170  0.71226  0.83814  1.0000
  S   S55       1.0  0.12991  0.68754  0.81902  1.0000
  C   C284      1.0  0.99910  0.57163  0.77385  1.0000
  C   C285      1.0  0.06698  0.83866  0.87069  1.0000
  C   C286      1.0  0.07042  0.87978  0.87893  1.0000
  C   C287      1.0  0.03358  0.87981  0.88509  1.0000
  H   H249      1.0  0.10615  0.60146  0.72881  1.0000
  C   C288      1.0  0.39269  0.60319  0.79382  1.0000
  C   C289      1.0  0.02604  0.79776  0.86841  1.0000
  H   H250      1.0  0.10188  0.91167  0.88071  1.0000
  H   H251      1.0  0.03677  0.91148  0.89153  1.0000
  H   H252      1.0  0.02278  0.76591  0.86206  1.0000
  C   C290      1.0  0.14884  0.79584  0.73955  1.0000
  C   C291      1.0  0.15802  0.81578  0.75694  1.0000
  C   C292      1.0  0.13140  0.79060  0.77110  1.0000
  C   C293      1.0  0.09452  0.74581  0.76788  1.0000
  C   C294      1.0  0.08387  0.72676  0.75032  1.0000
  C   C295      1.0  0.11117  0.75156  0.73617  1.0000
  H   H253      1.0  0.18655  0.85032  0.75947  1.0000
  H   H254      1.0  0.13955  0.80570  0.78452  1.0000
  H   H255      1.0  0.05549  0.69196  0.74775  1.0000
  H   H256      1.0  0.10389  0.73559  0.72284  1.0000
  C   C296      1.0  0.29362  0.77876  0.83148  1.0000
  C   C297      1.0  0.29906  0.78554  0.85006  1.0000
  C   C298      1.0  0.33696  0.79240  0.85833  1.0000
  C   C299      1.0  0.36920  0.79134  0.84820  1.0000
  C   C300      1.0  0.36289  0.78267  0.82972  1.0000
  C   C301      1.0  0.32555  0.77697  0.82141  1.0000
  H   H257      1.0  0.27482  0.78718  0.85796  1.0000
  H   H258      1.0  0.34156  0.79913  0.87263  1.0000
  H   H259      1.0  0.38742  0.78188  0.82176  1.0000
  H   H260      1.0  0.32168  0.77182  0.80705  1.0000
  C   C302      1.0  0.33075  0.83764  0.72755  1.0000
  C   C303      1.0  0.41868  0.63504  0.76475  1.0000
  C   C304      1.0  0.09150  0.55441  0.83990  1.0000
  C   C305      1.0  0.06544  0.55632  0.85338  1.0000
  C   C306      1.0  0.03605  0.51432  0.86173  1.0000
  C   C307      1.0  0.35999  0.82050  0.76243  1.0000
  H   H261      1.0  0.18942  0.53903  0.77732  1.0000
  H   H262      1.0  0.11430  0.58665  0.83338  1.0000
  C   C308      1.0  0.41677  0.48771  0.79722  1.0000
  H   H263      1.0  0.06100  0.95497  0.75105  1.0000
  C   C309      1.0  0.11925  0.62798  0.73966  1.0000
  C   C310      1.0  0.32112  0.57804  0.84899  1.0000
  C   C311      1.0  0.36508  0.60612  0.84504  1.0000
  C   C312      1.0  0.38964  0.58481  0.84235  1.0000
  C   C313      1.0  0.36927  0.53489  0.84266  1.0000
  C   C314      1.0  0.00721  0.65101  0.69632  1.0000
  H   H264      1.0  0.30281  0.59508  0.85166  1.0000
  H   H265      1.0  0.38024  0.64445  0.84480  1.0000
  H   H266      1.0  0.19301  0.74625  0.74628  1.0000
  C   C315      1.0  0.30160  0.88668  0.75764  1.0000
  S   S56       1.0  0.41774  0.80327  0.85889  1.0000
  H   H267      1.0  0.17110  0.72528  0.77769  1.0000
  H   H268      1.0  0.36200  0.88975  0.68020  1.0000
  C   C316      1.0  0.99281  0.83842  0.88329  1.0000
  H   H269      1.0  0.35626  0.86708  0.78275  1.0000
  H   H270      1.0  0.14880  0.87560  0.68158  1.0000
  C   C317      1.0  0.17574  0.49084  0.74044  1.0000
  C   C318      1.0  0.03892  0.93406  0.94539  1.0000
  H   H271      1.0  0.06967  0.52443  0.69199  1.0000
  C   C319      1.0  0.08462  0.83179  0.69143  1.0000
  C   C320      1.0  0.24088  0.47909  0.77436  1.0000
  C   C321      1.0  0.01637  0.57237  0.81028  1.0000
  C   C322      1.0  0.28899  0.83920  0.76093  1.0000
  H   H272      1.0  0.00405  0.94566  0.80078  1.0000
  C   C323      1.0  0.97562  0.84184  0.77495  1.0000
  C   C324      1.0  0.12758  0.86900  0.69274  1.0000
  C   C325      1.0  0.37915  0.76528  0.67762  1.0000
  H   H273      1.0  0.03702  0.78841  0.80326  1.0000
  C   C326      1.0  0.26005  0.81584  0.77470  1.0000
  H   H274      1.0  0.37153  0.77359  0.74548  1.0000
  C   C327      1.0  0.15511  0.52409  0.77858  1.0000
  C   C328      1.0  0.00334  0.64376  0.67778  1.0000
  H   H275      1.0  0.08563  0.86598  0.78385  1.0000
  C   C329      1.0  0.14330  0.89697  0.70848  1.0000
  C   C330      1.0  0.14406  0.52218  0.87855  1.0000
  C   C331      1.0  0.18044  0.55735  0.88823  1.0000
  C   C332      1.0  0.18466  0.55085  0.90641  1.0000
  P   P9        1.0  0.21921  0.61285  0.87831  1.0000
  C   C333      1.0  0.20848  0.65676  0.88793  1.0000
  C   C334      1.0  0.27402  0.62735  0.88221  1.0000
  C   C335      1.0  0.30851  0.67061  0.87634  1.0000
  C   C336      1.0  0.35102  0.68164  0.87879  1.0000
  C   C337      1.0  0.35948  0.64924  0.88673  1.0000
  C   C338      1.0  0.32535  0.60557  0.89217  1.0000
  C   C339      1.0  0.28280  0.59449  0.88982  1.0000
  C   C340      1.0  0.16679  0.64909  0.88617  1.0000
  C   C341      1.0  0.15730  0.68252  0.89323  1.0000
  C   C342      1.0  0.18947  0.72412  0.90200  1.0000
  C   C343      1.0  0.23102  0.73186  0.90398  1.0000
  C   C344      1.0  0.24049  0.69814  0.89710  1.0000
  C   C345      1.0  0.21251  0.61091  0.85432  1.0000
  C   C346      1.0  0.21421  0.64930  0.84567  1.0000
  C   C347      1.0  0.20898  0.64739  0.82711  1.0000
  C   C348      1.0  0.20209  0.60744  0.81704  1.0000
  C   C349      1.0  0.20109  0.56952  0.82550  1.0000
  C   C350      1.0  0.20695  0.57154  0.84403  1.0000
  C   C351      1.0  0.10562  0.61629  0.75731  1.0000
  H   H276      1.0  0.13847  0.52720  0.86487  1.0000
  H   H277      1.0  0.21145  0.57845  0.91434  1.0000
  H   H278      1.0  0.30255  0.69552  0.86961  1.0000
  H   H279      1.0  0.37741  0.71473  0.87405  1.0000
  H   H280      1.0  0.39236  0.65714  0.88793  1.0000
  H   H281      1.0  0.33164  0.57922  0.89738  1.0000
  H   H282      1.0  0.25706  0.55926  0.89312  1.0000
  H   H283      1.0  0.14163  0.61736  0.87915  1.0000
  H   H284      1.0  0.12506  0.67643  0.89153  1.0000
  H   H285      1.0  0.18218  0.75043  0.90712  1.0000
  H   H286      1.0  0.25596  0.76417  0.91075  1.0000
  H   H287      1.0  0.27271  0.70472  0.89896  1.0000
  H   H288      1.0  0.21956  0.68081  0.85313  1.0000
  H   H289      1.0  0.20987  0.67681  0.82054  1.0000
  H   H290      1.0  0.19727  0.60592  0.80274  1.0000
  H   H291      1.0  0.19503  0.53813  0.81781  1.0000
  H   H292      1.0  0.20611  0.54189  0.85038  1.0000
  C   C352      1.0  0.27614  0.56560  0.79378  1.0000
  C   C353      1.0  0.26084  0.52193  0.76520  1.0000
  C   C354      1.0  0.27785  0.56530  0.77509  1.0000
  P   P10       1.0  0.26283  0.52050  0.74102  1.0000
  C   C355      1.0  0.31036  0.57374  0.73368  1.0000
  C   C356      1.0  0.31144  0.61725  0.73400  1.0000
  C   C357      1.0  0.34791  0.65884  0.72844  1.0000
  C   C358      1.0  0.34626  0.57237  0.72749  1.0000
  C   C359      1.0  0.21523  0.51719  0.73187  1.0000
  C   C360      1.0  0.34248  0.53538  0.66498  1.0000
  H   H293      1.0  0.25894  0.52327  0.81723  1.0000
  C   C361      1.0  0.07242  0.85200  0.72133  1.0000
  C   C362      1.0  0.17906  0.53391  0.70835  1.0000
  C   C363      1.0  0.21654  0.53796  0.71554  1.0000
  H   H294      1.0  0.28871  0.59894  0.80141  1.0000
  H   H295      1.0  0.29261  0.59894  0.76857  1.0000
  H   H296      1.0  0.28398  0.61892  0.73851  1.0000
  H   H297      1.0  0.24448  0.90481  0.78970  1.0000
  H   H298      1.0  0.34629  0.53936  0.72684  1.0000
  H   H299      1.0  0.99382  0.70416  0.81066  1.0000
  C   C364      1.0  0.09865  0.57787  0.67223  1.0000
  C   C365      1.0  0.30134  0.52854  0.85051  1.0000
  C   C366      1.0  0.99909  0.71471  0.67509  1.0000
  C   C367      1.0  0.23595  0.67608  0.72779  1.0000
  C   C368      1.0  0.22694  0.64771  0.74258  1.0000
  C   C369      1.0  0.24460  0.66890  0.75933  1.0000
  H   H300      1.0  0.22160  0.65974  0.71489  1.0000
  H   H301      1.0  0.20621  0.60933  0.74097  1.0000
  H   H302      1.0  0.41190  0.68964  0.71813  1.0000
  H   H303      1.0  0.23773  0.64704  0.77085  1.0000
  H   H304      1.0  0.01220  0.62737  0.70442  1.0000
  C   C370      1.0  0.24392  0.83945  0.78490  1.0000
  C   C371      1.0  0.03709  0.92342  0.75773  1.0000
  H   H305      1.0  0.25067  0.77995  0.77801  1.0000
  S   S57       1.0  0.25018  0.49717  0.86046  1.0000
  C   C372      1.0  0.27091  0.71852  0.76130  1.0000
  C   C373      1.0  0.27952  0.74744  0.74653  1.0000
  H   H306      1.0  0.99517  0.89358  0.73453  1.0000
  C   C374      1.0  0.26199  0.72570  0.72971  1.0000
  H   H307      1.0  0.22179  0.82118  0.79555  1.0000
  H   H308      1.0  0.10295  0.93339  0.96834  1.0000
  H   H309      1.0  0.15508  0.58022  0.76473  1.0000
  H   H310      1.0  0.28746  0.65512  0.70263  1.0000
  H   H311      1.0  0.28455  0.73434  0.77438  1.0000
  C   C375      1.0  0.10113  0.88191  0.79665  1.0000
  C   C376      1.0  0.39234  0.49299  0.74530  1.0000
  C   C377      1.0  0.03448  0.52281  0.74304  1.0000
  H   H312      1.0  0.03140  0.83991  0.92115  1.0000
  C   C378      1.0  0.08777  0.51039  0.83486  1.0000
  H   H313      1.0  0.17702  0.92470  0.70965  1.0000
  C   C379      1.0  0.99180  0.83527  0.68249  1.0000
  C   C380      1.0  0.04349  0.91729  0.77563  1.0000
  H   H314      1.0  0.16166  0.89046  0.78841  1.0000
  C   C381      1.0  0.03973  0.56314  0.79762  1.0000
  C   C382      1.0  0.37864  0.76790  0.65902  1.0000
  C   C383      1.0  0.12526  0.65156  0.77098  1.0000
  C   C384      1.0  0.13857  0.48746  0.73335  1.0000
  H   H315      1.0  0.00571  0.86734  0.84587  1.0000
  C   C385      1.0  0.97196  0.84554  0.66876  1.0000
  S   S58       1.0  0.08521  0.61646  0.68329  1.0000
  H   H316      1.0  0.98774  0.88093  0.66340  1.0000
  C   C386      1.0  0.14017  0.50896  0.71735  1.0000
  C   C387      1.0  0.02171  0.86008  0.92963  1.0000
  P   P11       1.0  0.31457  0.81151  0.74921  1.0000
  C   C388      1.0  0.38361  0.65728  0.72244  1.0000
  C   C389      1.0  0.38796  0.47861  0.72722  1.0000
  C   C390      1.0  0.98930  0.79762  0.87477  1.0000
  C   C391      1.0  0.41511  0.51053  0.71462  1.0000
  S   S59       1.0  0.42279  0.76758  0.68925  1.0000
  C   C392      1.0  0.25685  0.88667  0.78164  1.0000
  C   C393      1.0  0.30436  0.49334  0.67006  1.0000
  P   P12       1.0  0.02181  0.86842  0.80743  1.0000
  C   C394      1.0  0.31219  0.77016  0.66029  1.0000
  C   C395      1.0  0.05711  0.82177  0.70594  1.0000
  C   C396      1.0  0.24666  0.62544  0.66026  1.0000
  C   C397      1.0  0.38358  0.87265  0.70413  1.0000
  C   C398      1.0  0.00167  0.75488  0.74021  1.0000
  C   C399      1.0  0.38091  0.79586  0.75760  1.0000
  C   C400      1.0  0.44732  0.55648  0.72014  1.0000
  H   H317      1.0  0.11086  0.50444  0.71157  1.0000
  C   C401      1.0  0.11562  0.88884  0.72270  1.0000
  H   H318      1.0  0.10741  0.50883  0.82433  1.0000
  H   H319      1.0  0.34851  0.69227  0.72856  1.0000
  H   H320      1.0  0.15846  0.50344  0.92834  1.0000
  C   C402      1.0  0.38268  0.61406  0.72190  1.0000
  C   C403      1.0  0.13550  0.54730  0.77146  1.0000
  H   H321      1.0  0.37707  0.69507  0.78621  1.0000
  H   H322      1.0  0.26886  0.82983  0.72156  1.0000
  H   H323      1.0  0.43505  0.63663  0.75254  1.0000
  H   H324      1.0  0.12789  0.91075  0.73486  1.0000
  C   C404      1.0  0.35373  0.87642  0.69357  1.0000
  S   S60       1.0  0.43908  0.72852  0.82280  1.0000
  C   C405      1.0  0.05167  0.90732  0.93486  1.0000
  C   C406      1.0  0.28538  0.91015  0.76788  1.0000
  H   H325      1.0  0.01573  0.51540  0.87210  1.0000
  H   H326      1.0  0.32459  0.90604  0.74737  1.0000
  C   C407      1.0  0.32036  0.64746  0.68006  1.0000
  C   C408      1.0  0.16929  0.70983  0.74942  1.0000
  Fe  Fe24      1.0  0.12600  0.69328  0.67573  1.0000
  H   H327      1.0  0.07234  0.94454  0.78269  1.0000
  C   C409      1.0  0.30112  0.84201  0.71690  1.0000
  C   C410      1.0  0.01296  0.87623  0.78434  1.0000
  Fe  Fe25      1.0  0.21341  0.76804  0.66304  1.0000
  P   P13       1.0  0.00187  0.77277  0.70390  1.0000
  C   C411      1.0  0.37237  0.84852  0.77838  1.0000
  C   C412      1.0  0.38603  0.66857  0.78369  1.0000
  C   C413      1.0  0.00565  0.77545  0.80905  1.0000
  H   H328      1.0  0.98449  0.93255  0.95822  1.0000
  C   C414      1.0  0.37226  0.85352  0.72109  1.0000
  C   C415      1.0  0.00685  0.90302  0.82179  1.0000
  H   H329      1.0  0.34525  0.76107  0.70178  1.0000
  C   C416      1.0  0.99568  0.91274  0.95048  1.0000
  C   C417      1.0  0.31158  0.76508  0.67877  1.0000
  C   C418      1.0  0.34528  0.76344  0.68742  1.0000
  H   H330      1.0  0.28596  0.76415  0.68643  1.0000
  C   C419      1.0  0.11402  0.47994  0.88655  1.0000
  C   C420      1.0  0.40584  0.66823  0.76778  1.0000
  H   H331      1.0  0.07304  0.81067  0.67908  1.0000
  C   C421      1.0  0.09873  0.90586  0.82735  1.0000
  H   H332      1.0  0.41245  0.69462  0.75797  1.0000
  C   C422      1.0  0.31261  0.86135  0.70001  1.0000
  H   H333      1.0  0.28924  0.86359  0.69171  1.0000
  H   H334      1.0  0.41041  0.61298  0.71718  1.0000
  H   H335      1.0  0.39579  0.85063  0.72889  1.0000
  H   H336      1.0  0.36535  0.63698  0.80932  1.0000
  H   H337      1.0  0.33712  0.50554  0.78272  1.0000
  Fe  Fe26      1.0  0.13588  0.78277  0.65884  1.0000
  C   C423      1.0  0.98868  0.92024  0.85126  1.0000
  C   C424      1.0  0.14425  0.89534  0.79920  1.0000
  C   C425      1.0  0.40512  0.85168  0.78929  1.0000
  Fe  Fe27      1.0  0.45933  0.65399  0.65815  1.0000
  H   H338      1.0  0.00158  0.73787  0.76776  1.0000
  S   S61       1.0  0.44436  0.66795  0.68561  1.0000
  C   C426      1.0  0.97258  0.78872  0.68879  1.0000
  C   C427      1.0  0.15711  0.69805  0.76707  1.0000
  C   C428      1.0  0.96918  0.84831  0.75708  1.0000
  H   H339      1.0  0.01076  0.69501  0.71863  1.0000
  C   C429      1.0  0.14992  0.67492  0.73572  1.0000
  C   C430      1.0  0.35272  0.48958  0.78947  1.0000
  H   H340      1.0  0.03526  0.76583  0.73870  1.0000
  H   H341      1.0  0.22153  0.63480  0.68490  1.0000
  P   P14       1.0  0.06508  0.55635  0.76293  1.0000
  C   C431      1.0  0.00226  0.72197  0.69378  1.0000
  C   C432      1.0  0.99998  0.88890  0.74844  1.0000
  C   C433      1.0  0.41165  0.60169  0.77765  1.0000
  H   H342      1.0  0.00494  0.61434  0.67160  1.0000
  C   C434      1.0  0.41377  0.79936  0.76850  1.0000
  H   H343      1.0  0.45077  0.82915  0.79299  1.0000
  H   H344      1.0  0.15872  0.68420  0.72201  1.0000
  H   H345      1.0  0.11553  0.64326  0.78464  1.0000
  H   H346      1.0  0.38794  0.51806  0.84038  1.0000
  C   C435      1.0  0.03119  0.56246  0.77924  1.0000
  H   H347      1.0  0.43216  0.67340  0.95453  1.0000
  C   C436      1.0  0.98113  0.72736  0.81324  1.0000
  H   H348      1.0  0.05148  0.84707  0.73236  1.0000
  C   C437      1.0  0.99929  0.67560  0.66717  1.0000
  H   H349      1.0  0.17962  0.54838  0.69546  1.0000
  H   H350      1.0  0.24599  0.55575  0.70803  1.0000
  H   H351      1.0  0.41506  0.88317  0.69890  1.0000
  C   C438      1.0  0.07818  0.88794  0.81062  1.0000
  P   P15       1.0  0.42901  0.55923  0.77415  1.0000
  H   H352      1.0  0.99265  0.57297  0.75989  1.0000
  C   C439      1.0  0.28551  0.64646  0.68850  1.0000
  H   H353      1.0  0.34931  0.65680  0.68762  1.0000
  C   C440      1.0  0.98460  0.58149  0.80477  1.0000
  C   C441      1.0  0.98991  0.80606  0.81259  1.0000
  C   C442      1.0  0.09572  0.50183  0.67061  1.0000
  C   C443      1.0  0.08640  0.53380  0.67949  1.0000
  C   C444      1.0  0.31870  0.63822  0.66165  1.0000
  C   C445      1.0  0.97881  0.83924  0.93475  1.0000
  H   H354      1.0  0.02356  0.57351  0.82440  1.0000
  C   C446      1.0  0.09089  0.52763  0.77285  1.0000
  H   H355      1.0  0.02724  0.57979  0.73302  1.0000
  C   C447      1.0  0.42358  0.53977  0.75087  1.0000
  C   C448      1.0  0.99990  0.93794  0.81480  1.0000
  C   C449      1.0  0.96583  0.86552  0.94518  1.0000
  C   C450      1.0  0.37951  0.63601  0.79670  1.0000
  H   H356      1.0  0.38884  0.57979  0.80447  1.0000
  H   H357      1.0  0.02293  0.86340  0.68756  1.0000
  H   H358      1.0  0.99113  0.53670  0.70485  1.0000
  C   C451      1.0  0.00092  0.89430  0.84013  1.0000
  H   H359      1.0  0.41142  0.49961  0.70059  1.0000
  C   C452      1.0  0.16451  0.91366  0.81584  1.0000
  S   S62       1.0  0.96885  0.96372  0.91665  1.0000
  H   H360      1.0  0.35282  0.56901  0.67201  1.0000
  H   H361      1.0  0.08454  0.92311  0.93037  1.0000
  C   C453      1.0  0.02059  0.54379  0.73068  1.0000
  H   H362      1.0  0.06526  0.55801  0.80230  1.0000
  C   C454      1.0  0.97591  0.58104  0.78657  1.0000
  C   C455      1.0  0.24864  0.63537  0.67859  1.0000
  H   H363      1.0  0.41384  0.87234  0.80181  1.0000
  C   C456      1.0  0.98259  0.73881  0.75674  1.0000
  C   C457      1.0  0.32520  0.50676  0.84674  1.0000
  H   H364      1.0  0.19749  0.92267  0.81804  1.0000
  C   C458      1.0  0.97746  0.75553  0.72564  1.0000
  C   C459      1.0  0.98202  0.95492  0.84421  1.0000
  C   C460      1.0  0.25902  0.52298  0.80273  1.0000
  H   H365      1.0  0.96732  0.58972  0.81465  1.0000
  H   H366      1.0  0.28586  0.49473  0.68115  1.0000
  C   C461      1.0  0.15456  0.50855  0.91441  1.0000
  C   C462      1.0  0.00663  0.68983  0.70432  1.0000
  C   C463      1.0  0.98752  0.96369  0.82598  1.0000
  C   C464      1.0  0.00012  0.51951  0.71464  1.0000
  H   H367      1.0  0.08171  0.90897  0.83865  1.0000
  H   H368      1.0  0.99729  0.73968  0.66654  1.0000
  C   C465      1.0  0.39738  0.50879  0.78805  1.0000
  H   H369      1.0  0.29519  0.94667  0.76522  1.0000
  C   C466      1.0  0.06635  0.48496  0.78186  1.0000
  C   C467      1.0  0.42576  0.82708  0.78437  1.0000
  H   H370      1.0  0.98419  0.91338  0.86540  1.0000
  C   C468      1.0  0.02707  0.47688  0.73905  1.0000
  C   C469      1.0  0.13030  0.48087  0.78695  1.0000
  H   H371      1.0  0.42969  0.78018  0.76474  1.0000
  C   C470      1.0  0.17196  0.96952  0.96718  1.0000
  C   C471      1.0  0.45162  0.57101  0.73817  1.0000
  S   S63       1.0  0.44589  0.61990  0.83910  1.0000
  H   H372      1.0  0.17363  0.94115  0.97348  1.0000
  C   C472      1.0  0.13196  0.96521  0.96421  1.0000
  C   C473      1.0  0.12047  0.59005  0.65606  1.0000
  H   H373      1.0  0.45103  0.50160  0.79632  1.0000
  C   C474      1.0  0.24129  0.47979  0.79299  1.0000
  H   H374      1.0  0.45747  0.81592  0.89751  1.0000
  Fe  Fe28      1.0  0.69179  0.16187  0.15649  1.0000
  S   S64       1.0  0.66276  0.15954  0.18310  1.0000
  S   S65       1.0  0.71473  0.22151  0.13716  1.0000
  Fe  Fe29      1.0  0.68998  0.06804  0.16040  1.0000
  S   S66       1.0  0.65974  0.05843  0.18740  1.0000
  H   H375      1.0  0.52918  0.05534  0.14932  1.0000
  Fe  Fe30      1.0  0.61714  0.08215  0.17562  1.0000
  C   C475      1.0  0.90477  0.44556  0.27017  1.0000
  Fe  Fe31      1.0  0.70693  0.13570  0.19298  1.0000
  S   S67       1.0  0.74570  0.16621  0.21876  1.0000
  S   S68       1.0  0.64299  0.08556  0.14800  1.0000
  S   S69       1.0  0.74033  0.14458  0.16686  1.0000
  H   H376      1.0  0.52682  0.37815  0.14021  1.0000
  H   H377      1.0  0.73463  0.41203  0.26720  1.0000
  S   S70       1.0  0.68266  0.03948  0.28709  1.0000
  C   C476      1.0  0.75832  0.01425  0.25366  1.0000
  S   S71       1.0  0.65379  0.40989  0.18342  1.0000
  S   S72       1.0  0.55066  0.41733  0.17627  1.0000
  C   C477      1.0  0.47210  0.04377  0.18684  1.0000
  C   C478      1.0  0.84618  0.42651  0.30588  1.0000
  S   S73       1.0  0.73368  0.42541  0.14373  1.0000
  C   C479      1.0  0.50582  0.35090  0.14925  1.0000
  C   C480      1.0  0.81865  0.34156  0.24792  1.0000
  H   H378      1.0  0.79916  0.32993  0.18170  1.0000
  C   C481      1.0  0.59077  0.36421  0.28659  1.0000
  H   H379      1.0  0.79860  0.27654  0.23238  1.0000
  C   C482      1.0  0.71733  0.27670  0.14009  1.0000
  C   C483      1.0  0.73872  0.31037  0.12706  1.0000
  C   C484      1.0  0.74281  0.35518  0.12849  1.0000
  C   C485      1.0  0.72503  0.36705  0.14283  1.0000
  C   C486      1.0  0.70236  0.33305  0.15579  1.0000
  C   C487      1.0  0.69881  0.28785  0.15447  1.0000
  H   H380      1.0  0.75286  0.30200  0.11587  1.0000
  H   H381      1.0  0.76018  0.38099  0.11841  1.0000
  H   H382      1.0  0.68834  0.34185  0.16688  1.0000
  H   H383      1.0  0.68213  0.26178  0.16450  1.0000
  C   C488      1.0  0.72847  0.12925  0.23730  1.0000
  C   C489      1.0  0.69003  0.08493  0.23677  1.0000
  C   C490      1.0  0.67616  0.05741  0.25207  1.0000
  C   C491      1.0  0.70017  0.07455  0.26809  1.0000
  C   C492      1.0  0.73888  0.11853  0.26856  1.0000
  C   C493      1.0  0.75333  0.14533  0.25313  1.0000
  H   H384      1.0  0.67048  0.07215  0.22472  1.0000
  H   H385      1.0  0.64635  0.02322  0.25158  1.0000
  H   H386      1.0  0.75808  0.13157  0.28074  1.0000
  H   H387      1.0  0.78363  0.17900  0.25354  1.0000
  C   C494      1.0  0.76683  0.26254  0.25758  1.0000
  C   C495      1.0  0.58349  0.18651  0.31268  1.0000
  H   H388      1.0  0.67457  0.43618  0.26665  1.0000
  H   H389      1.0  0.78156  0.34520  0.28951  1.0000
  H   H390      1.0  0.56913  0.14963  0.18209  1.0000
  H   H391      1.0  0.74835  0.22439  0.25501  1.0000
  C   C496      1.0  0.77580  0.04835  0.13114  1.0000
  C   C497      1.0  0.80605  0.00734  0.27429  1.0000
  C   C498      1.0  0.49099  0.17675  0.17692  1.0000
  C   C499      1.0  0.80930  0.04702  0.12199  1.0000
  H   H392      1.0  0.77249  0.07926  0.13041  1.0000
  C   C500      1.0  0.62010  0.37941  0.30087  1.0000
  S   S74       1.0  0.85473  0.00596  0.10941  1.0000
  C   C501      1.0  0.49283  0.16037  0.23656  1.0000
  C   C502      1.0  0.59494  0.28037  0.18421  1.0000
  C   C503      1.0  0.56550  0.29093  0.19172  1.0000
  C   C504      1.0  0.56257  0.29339  0.21027  1.0000
  C   C505      1.0  0.59005  0.28670  0.22137  1.0000
  C   C506      1.0  0.62007  0.27673  0.21386  1.0000
  C   C507      1.0  0.62124  0.27204  0.19520  1.0000
  P   P16       1.0  0.65594  0.26777  0.22769  1.0000
  C   C508      1.0  0.70486  0.29004  0.21497  1.0000
  C   C509      1.0  0.66776  0.30074  0.24890  1.0000
  C   C510      1.0  0.69813  0.34977  0.25001  1.0000
  C   C511      1.0  0.71053  0.37435  0.26656  1.0000
  C   C512      1.0  0.69154  0.35066  0.28216  1.0000
  C   C513      1.0  0.65997  0.30221  0.28120  1.0000
  C   C514      1.0  0.64794  0.27736  0.26465  1.0000
  C   C515      1.0  0.72276  0.26152  0.21156  1.0000
  C   C516      1.0  0.75691  0.27614  0.19975  1.0000
  C   C517      1.0  0.77371  0.31948  0.19131  1.0000
  C   C518      1.0  0.75644  0.34838  0.19471  1.0000
  C   C519      1.0  0.72199  0.33363  0.20636  1.0000
  C   C520      1.0  0.63247  0.20502  0.23172  1.0000
  C   C521      1.0  0.59518  0.17049  0.22242  1.0000
  C   C522      1.0  0.57765  0.12205  0.22547  1.0000
  C   C523      1.0  0.59741  0.10771  0.23774  1.0000
  C   C524      1.0  0.63421  0.14192  0.24727  1.0000
  C   C525      1.0  0.65161  0.19034  0.24428  1.0000
  H   H393      1.0  0.59732  0.27824  0.16984  1.0000
  H   H394      1.0  0.53927  0.30109  0.21592  1.0000
  H   H395      1.0  0.53791  0.16009  0.25518  1.0000
  H   H396      1.0  0.58820  0.28959  0.23571  1.0000
  H   H397      1.0  0.64277  0.26230  0.18907  1.0000
  H   H398      1.0  0.71232  0.36939  0.23816  1.0000
  C   C526      1.0  0.63144  0.36920  0.12616  1.0000
  H   H399      1.0  0.70101  0.36999  0.29496  1.0000
  H   H400      1.0  0.64512  0.28389  0.29333  1.0000
  H   H401      1.0  0.62358  0.23984  0.26428  1.0000
  H   H402      1.0  0.70967  0.22714  0.21746  1.0000
  H   H403      1.0  0.76949  0.25300  0.19679  1.0000
  H   H404      1.0  0.76839  0.38115  0.18762  1.0000
  H   H405      1.0  0.70733  0.35519  0.20787  1.0000
  H   H406      1.0  0.57975  0.18081  0.21276  1.0000
  H   H407      1.0  0.54916  0.09545  0.21807  1.0000
  H   H408      1.0  0.58447  0.07008  0.23972  1.0000
  H   H409      1.0  0.64965  0.13083  0.25677  1.0000
  H   H410      1.0  0.68007  0.21640  0.25170  1.0000
  C   C527      1.0  0.78597  0.33134  0.27694  1.0000
  Fe  Fe32      1.0  0.69745  0.08210  0.31313  1.0000
  H   H411      1.0  0.73994  0.25887  0.28352  1.0000
  H   H412      1.0  0.89915  0.99215  0.99926  1.0000
  C   C528      1.0  0.92101  0.41784  0.26304  1.0000
  C   C529      1.0  0.57044  0.36819  0.24391  1.0000
  H   H413      1.0  0.52363  0.24937  0.29839  1.0000
  H   H414      1.0  0.50059  0.12255  0.10093  1.0000
  C   C530      1.0  0.48215  0.22457  0.10838  1.0000
  S   S75       1.0  0.94044  0.97848  0.09258  1.0000
  C   C531      1.0  0.46887  0.28500  0.27885  1.0000
  H   H415      1.0  0.72914  0.32708  0.31318  1.0000
  H   H416      1.0  0.48928  0.33095  0.19356  1.0000
  C   C532      1.0  0.83988  0.45775  0.25146  1.0000
  Fe  Fe33      1.0  0.62359  0.45168  0.17561  1.0000
  C   C533      1.0  0.55025  0.10825  0.09463  1.0000
  H   H417      1.0  0.62559  0.21732  0.12570  1.0000
  C   C534      1.0  0.55142  0.28531  0.29856  1.0000
  C   C535      1.0  0.76196  0.28206  0.27358  1.0000
  C   C536      1.0  0.79510  0.29217  0.24476  1.0000
  H   H418      1.0  0.86065  0.40467  0.30501  1.0000
  C   C537      1.0  0.59333  0.12185  0.09716  1.0000
  H   H419      1.0  0.83150  0.07711  0.11426  1.0000
  H   H420      1.0  0.50897  0.26041  0.10667  1.0000
  C   C538      1.0  0.77486  0.01764  0.32074  1.0000
  C   C539      1.0  0.58072  0.30091  0.31296  1.0000
  H   H421      1.0  0.77416  0.44058  0.21572  1.0000
  H   H422      1.0  0.52923  0.07731  0.08616  1.0000
  H   H423      1.0  0.59404  0.37205  0.14793  1.0000
  C   C540      1.0  0.54979  0.16190  0.17584  1.0000
  C   C541      1.0  0.54584  0.40666  0.22407  1.0000
  H   H424      1.0  0.58245  0.17388  0.15115  1.0000
  C   C542      1.0  0.81509  0.36158  0.26424  1.0000
  H   H425      1.0  0.49251  0.35961  0.28497  1.0000
  H   H426      1.0  0.61349  0.26859  0.10394  1.0000
  C   C543      1.0  0.50399  0.37861  0.23029  1.0000
  C   C544      1.0  0.55699  0.17532  0.15808  1.0000
  C   C545      1.0  0.77719  0.04622  0.18848  1.0000
  Fe  Fe34      1.0  0.69427  0.47151  0.20255  1.0000
  C   C546      1.0  0.59799  0.34919  0.13834  1.0000
  H   H427      1.0  0.54380  0.28507  0.14764  1.0000
  H   H428      1.0  0.59652  0.36384  0.24852  1.0000
  H   H429      1.0  0.79145  0.08651  0.23193  1.0000
  H   H430      1.0  0.82877  0.16327  0.21752  1.0000
  S   S76       1.0  0.54907  0.04660  0.18631  1.0000
  C   C547      1.0  0.52974  0.22011  0.26032  1.0000
  C   C548      1.0  0.81540  0.13056  0.20942  1.0000
  C   C549      1.0  0.56990  0.29979  0.13825  1.0000
  H   H431      1.0  0.65358  0.40744  0.12638  1.0000
  H   H432      1.0  0.79974  0.09174  0.16596  1.0000
  C   C550      1.0  0.52871  0.34084  0.25070  1.0000
  C   C551      1.0  0.79377  0.08654  0.21758  1.0000
  C   C552      1.0  0.81785  0.13248  0.19085  1.0000
  H   H433      1.0  0.83345  0.16662  0.18454  1.0000
  H   H434      1.0  0.59378  0.39066  0.27752  1.0000
  H   H435      1.0  0.60588  0.10159  0.09069  1.0000
  H   H436      1.0  0.50998  0.14994  0.19868  1.0000
  H   H437      1.0  0.76205  0.01404  0.18005  1.0000
  C   C553      1.0  0.49818  0.19044  0.15919  1.0000
  S   S77       1.0  0.70136  0.00746  0.15160  1.0000
  H   H438      1.0  0.47822  0.38205  0.22468  1.0000
  C   C554      1.0  0.63690  0.33988  0.11388  1.0000
  P   P17       1.0  0.53946  0.20605  0.12649  1.0000
  C   C555      1.0  0.49536  0.34573  0.24351  1.0000
  C   C556      1.0  0.81539  0.46818  0.29180  1.0000
  C   C557      1.0  0.46894  0.30929  0.14250  1.0000
  C   C558      1.0  0.51336  0.35918  0.16769  1.0000
  Fe  Fe35      1.0  0.70388  0.45275  0.16349  1.0000
  C   C559      1.0  0.55704  0.31649  0.28490  1.0000
  C   C560      1.0  0.62026  0.16144  0.10821  1.0000
  C   C561      1.0  0.53405  0.13416  0.10318  1.0000
  C   C562      1.0  0.53096  0.18926  0.14953  1.0000
  H   H439      1.0  0.65364  0.17178  0.11019  1.0000
  S   S78       1.0  0.69760  0.44785  0.23017  1.0000
  C   C563      1.0  0.51654  0.16213  0.18519  1.0000
  C   C564      1.0  0.47223  0.18419  0.23112  1.0000
  C   C565      1.0  0.57561  0.26991  0.12617  1.0000
  C   C566      1.0  0.56083  0.17398  0.11445  1.0000
  C   C567      1.0  0.60416  0.18725  0.11692  1.0000
  C   C568      1.0  0.79876  0.09031  0.18039  1.0000
  C   C569      1.0  0.57891  0.40121  0.23077  1.0000
  C   C570      1.0  0.77478  0.04385  0.20717  1.0000
  H   H440      1.0  0.47337  0.04007  0.20108  1.0000
  H   H441      1.0  0.61106  0.42220  0.22553  1.0000
  P   P18       1.0  0.84782  0.42537  0.26877  1.0000
  C   C571      1.0  0.60886  0.29044  0.11372  1.0000
  H   H442      1.0  0.83990  0.36407  0.23768  1.0000
  C   C572      1.0  0.74598  0.00919  0.14076  1.0000
  H   H443      1.0  0.66347  0.35556  0.10470  1.0000
  H   H444      1.0  0.78666  0.39536  0.23803  1.0000
  H   H445      1.0  0.54495  0.29708  0.18314  1.0000
  P   P19       1.0  0.74771  0.98643  0.21747  1.0000
  P   P20       1.0  0.51677  0.29672  0.26725  1.0000
  H   H446      1.0  0.46254  0.32380  0.24789  1.0000
  H   H447      1.0  0.68722  0.98125  0.19035  1.0000
  C   C573      1.0  0.50359  0.05226  0.15769  1.0000
  H   H448      1.0  0.65109  0.21141  0.31577  1.0000
  H   H449      1.0  0.55259  0.23346  0.27135  1.0000
  C   C574      1.0  0.48769  0.19082  0.11720  1.0000
  C   C575      1.0  0.48453  0.32427  0.17928  1.0000
  C   C576      1.0  0.50574  0.04807  0.17613  1.0000
  C   C577      1.0  0.80725  0.43368  0.23833  1.0000
  C   C578      1.0  0.50835  0.24368  0.25524  1.0000
  H   H450      1.0  0.75971  0.03812  0.31812  1.0000
  C   C579      1.0  0.47997  0.22565  0.24041  1.0000
  C   C580      1.0  0.83511  0.44094  0.29029  1.0000
  C   C581      1.0  0.61534  0.34783  0.31402  1.0000
  H   H451      1.0  0.90017  0.38351  0.25654  1.0000
  H   H452      1.0  0.84168  0.97677  0.26320  1.0000
  C   C582      1.0  0.52183  0.17855  0.25105  1.0000
  H   H453      1.0  0.58224  0.17719  0.29860  1.0000
  H   H454      1.0  0.64508  0.41651  0.30220  1.0000
  C   C583      1.0  0.81374  0.00679  0.12242  1.0000
  H   H455      1.0  0.72821  0.00555  0.09538  1.0000
  H   H456      1.0  0.82027  0.01328  0.28754  1.0000
  C   C584      1.0  0.80000  0.97971  0.24340  1.0000
  H   H457      1.0  0.47771  0.20136  0.15303  1.0000
  C   C585      1.0  0.77612  0.02098  0.27082  1.0000
  H   H458      1.0  0.55265  0.43220  0.21383  1.0000
  S   S79       1.0  0.66099  0.11746  0.32169  1.0000
  H   H459      1.0  0.76681  0.03728  0.28133  1.0000
  H   H460      1.0  0.46158  0.42117  0.18871  1.0000
  H   H461      1.0  0.82144  0.99710  0.19723  1.0000
  C   C586      1.0  0.70237  0.47166  0.26549  1.0000
  H   H462      1.0  0.73577  0.02583  0.25115  1.0000
  C   C587      1.0  0.76992  0.99342  0.23980  1.0000
  C   C588      1.0  0.81801  0.98672  0.26058  1.0000
  H   H463      1.0  0.46516  0.17679  0.18413  1.0000
  S   S80       1.0  0.76212  0.14538  0.32037  1.0000
  C   C589      1.0  0.92346  0.97513  0.31818  1.0000
  H   H464      1.0  0.46380  0.24367  0.23601  1.0000
  H   H465      1.0  0.78756  0.99741  0.08294  1.0000
  H   H466      1.0  0.48615  0.12764  0.22962  1.0000
  H   H467      1.0  0.52586  0.35428  0.31458  1.0000
  C   C590      1.0  0.54627  0.17878  0.32125  1.0000
  H   H468      1.0  0.46220  0.30461  0.12827  1.0000
  H   H469      1.0  0.51604  0.16358  0.31383  1.0000
  H   H470      1.0  0.46524  0.05218  0.13566  1.0000
  C   C591      1.0  0.46743  0.05076  0.14999  1.0000
  C   C592      1.0  0.46635  0.32318  0.28647  1.0000
  C   C593      1.0  0.80009  0.45916  0.22554  1.0000
  H   H471      1.0  0.65919  0.28085  0.39902  1.0000
  C   C594      1.0  0.81520  0.21053  0.40352  1.0000
  H   H472      1.0  0.62765  0.02813  0.39867  1.0000
  C   C595      1.0  0.59055  0.29490  0.39352  1.0000
  Fe  Fe36      1.0  0.75325  0.11221  0.34716  1.0000
  S   S81       1.0  0.69022  0.04658  0.33915  1.0000
  S   S82       1.0  0.81453  0.11654  0.35803  1.0000
  Fe  Fe37      1.0  0.65876  0.08766  0.34837  1.0000
  S   S83       1.0  0.59795  0.05049  0.36484  1.0000
  C   C596      1.0  0.52426  0.13896  0.38963  1.0000
  S   S84       1.0  0.72170  0.15120  0.35875  1.0000
  H   H473      1.0  0.73275  0.39441  0.33054  1.0000
  C   C597      1.0  0.51424  0.01738  0.37314  1.0000
  C   C598      1.0  0.84182  0.24039  0.37409  1.0000
  Fe  Fe38      1.0  0.72539  0.17862  0.33127  1.0000
  H   H474      1.0  0.71910  0.99707  0.58890  1.0000
  C   C599      1.0  0.66054  0.05326  0.40312  1.0000
  C   C600      1.0  0.73951  0.29552  0.33593  1.0000
  C   C601      1.0  0.74535  0.29882  0.35450  1.0000
  C   C602      1.0  0.74858  0.33801  0.36433  1.0000
  C   C603      1.0  0.74495  0.37339  0.35572  1.0000
  C   C604      1.0  0.73611  0.36802  0.33735  1.0000
  C   C605      1.0  0.74359  0.99119  0.59438  1.0000
  H   H475      1.0  0.74879  0.27211  0.36115  1.0000
  H   H476      1.0  0.75472  0.34144  0.37859  1.0000
  H   H477      1.0  0.75931  0.01959  0.37122  1.0000
  H   H478      1.0  0.63691  0.30840  0.35276  1.0000
  H   H479      1.0  0.83118  0.03469  0.42331  1.0000
  C   C606      1.0  0.79267  0.03036  0.37348  1.0000
  C   C607      1.0  0.54763  0.04721  0.36189  1.0000
  C   C608      1.0  0.62366  0.21638  0.34067  1.0000
  C   C609      1.0  0.62668  0.31723  0.36511  1.0000
  C   C610      1.0  0.83303  0.23691  0.44669  1.0000
  H   H480      1.0  0.56542  0.09668  0.34061  1.0000
  H   H481      1.0  0.85638  0.23810  0.36173  1.0000
  C   C611      1.0  0.55577  0.38539  0.34011  1.0000
  H   H482      1.0  0.94111  0.17453  0.41653  1.0000
  P   P21       1.0  0.58786  0.22125  0.37311  1.0000
  H   H483      1.0  0.51705  0.33248  0.37978  1.0000
  C   C612      1.0  0.74574  0.11982  0.41402  1.0000
  C   C613      1.0  0.82540  0.07513  0.36814  1.0000
  C   C614      1.0  0.86861  0.08823  0.37111  1.0000
  C   C615      1.0  0.87910  0.05739  0.37949  1.0000
  H   H484      1.0  0.95005  0.07769  0.61550  1.0000
  C   C616      1.0  0.80112  0.24312  0.40541  1.0000
  H   H485      1.0  0.89423  0.12275  0.36704  1.0000
  H   H486      1.0  0.91246  0.06845  0.38194  1.0000
  H   H487      1.0  0.82972  0.09447  0.61896  1.0000
  H   H488      1.0  0.49318  0.08984  0.33895  1.0000
  C   C617      1.0  0.50423  0.19629  0.38187  1.0000
  C   C618      1.0  0.62222  0.20564  0.32237  1.0000
  H   H489      1.0  0.76356  0.09549  0.39018  1.0000
  C   C619      1.0  0.60189  0.28200  0.37728  1.0000
  C   C620      1.0  0.58622  0.20784  0.34945  1.0000
  H   H490      1.0  0.57227  0.26839  0.40329  1.0000
  C   C621      1.0  0.46607  0.04003  0.36001  1.0000
  H   H491      1.0  0.65386  0.23070  0.34799  1.0000
  H   H492      1.0  0.87178  0.03432  0.33329  1.0000
  H   H493      1.0  0.51853  0.18338  0.34595  1.0000
  C   C622      1.0  0.53512  0.18256  0.38220  1.0000
  H   H494      1.0  0.65872  0.39180  0.35971  1.0000
  H   H495      1.0  0.54652  0.12636  0.38961  1.0000
  H   H496      1.0  0.85869  0.29170  0.46763  1.0000
  C   C623      1.0  0.55335  0.37883  0.35850  1.0000
  H   H497      1.0  0.78438  0.24385  0.41726  1.0000
  H   H498      1.0  0.83111  0.29540  0.36514  1.0000
  H   H499      1.0  0.85053  0.26196  0.43639  1.0000
  C   C624      1.0  0.48789  0.30032  0.35412  1.0000
  C   C625      1.0  0.83587  0.20970  0.38781  1.0000
  H   H500      1.0  0.79568  0.29853  0.39302  1.0000
  C   C626      1.0  0.52431  0.34911  0.32877  1.0000
  C   C627      1.0  0.60322  0.34231  0.39742  1.0000
  C   C628      1.0  0.69491  0.05813  0.39302  1.0000
  C   C629      1.0  0.82744  0.27247  0.37599  1.0000
  C   C630      1.0  0.88911  0.10263  0.42016  1.0000
  C   C631      1.0  0.80315  0.99983  0.38213  1.0000
  C   C632      1.0  0.62781  0.37719  0.38526  1.0000
  H   H501      1.0  0.59407  0.35205  0.40987  1.0000
  C   C633      1.0  0.90664  0.15142  0.41797  1.0000
  C   C634      1.0  0.51938  0.33665  0.36548  1.0000
  C   C635      1.0  0.83815  0.25389  0.46443  1.0000
  H   H502      1.0  0.51950  0.99684  0.38276  1.0000
  C   C636      1.0  0.91732  0.99597  0.34891  1.0000
  H   H503      1.0  0.57660  0.40709  0.36740  1.0000
  H   H504      1.0  0.77615  0.14845  0.48464  1.0000
  H   H505      1.0  0.46687  0.27875  0.32678  1.0000
  P   P22       1.0  0.80068  0.16522  0.41975  1.0000
  H   H506      1.0  0.51111  0.22903  0.37577  1.0000
  C   C637      1.0  0.81731  0.22209  0.47808  1.0000
  H   H507      1.0  0.68857  0.03675  0.38080  1.0000
  C   C638      1.0  0.54003  0.07356  0.34945  1.0000
  C   C639      1.0  0.80737  0.27409  0.39171  1.0000
  C   C640      1.0  0.84637  0.01323  0.38534  1.0000
  H   H508      1.0  0.63755  0.41382  0.38843  1.0000
  H   H509      1.0  0.82148  0.23526  0.49184  1.0000
  C   C641      1.0  0.49097  0.30632  0.33566  1.0000
  C   C642      1.0  0.63941  0.36469  0.36909  1.0000
  C   C643      1.0  0.73412  0.32975  0.32749  1.0000
  H   H510      1.0  0.78327  0.06730  0.42280  1.0000
  S   S85       1.0  0.75445  0.42519  0.36801  1.0000
  H   H511      1.0  0.63719  0.36031  0.32546  1.0000
  H   H512      1.0  0.71170  0.26721  0.41416  1.0000
  C   C644      1.0  0.47388  0.01342  0.37207  1.0000
  P   P23       1.0  0.80605  0.01351  0.64247  1.0000
  H   H513      1.0  0.89805  0.99257  0.36046  1.0000
  C   C645      1.0  0.62790  0.21300  0.38403  1.0000
  C   C646      1.0  0.65827  0.24777  0.39620  1.0000
  C   C647      1.0  0.68834  0.24023  0.40486  1.0000
  C   C648      1.0  0.68805  0.19790  0.40153  1.0000
  C   C649      1.0  0.65841  0.16362  0.38932  1.0000
  C   C650      1.0  0.62907  0.17153  0.38033  1.0000
  C   C651      1.0  0.49928  0.07010  0.34859  1.0000
  H   H514      1.0  0.84615  0.18423  0.38585  1.0000
  H   H515      1.0  0.71079  0.19152  0.40827  1.0000
  H   H516      1.0  0.65825  0.13087  0.38667  1.0000
  H   H517      1.0  0.60697  0.14506  0.37061  1.0000
  C   C652      1.0  0.54771  0.18983  0.33954  1.0000
  C   C653      1.0  0.78903  0.99682  0.61939  1.0000
  H   H518      1.0  0.89380  0.20825  0.41609  1.0000
  S   S86       1.0  0.70994  0.46445  0.32857  1.0000
  H   H519      1.0  0.76726  0.11806  0.45338  1.0000
  H   H520      1.0  0.89557  0.03743  0.63989  1.0000
  C   C654      1.0  0.84465  0.07264  0.42189  1.0000
  C   C655      1.0  0.75773  0.00498  0.61212  1.0000
  H   H521      1.0  0.93352  0.99755  0.64955  1.0000
  C   C656      1.0  0.83812  0.01503  0.32926  1.0000
  C   C657      1.0  0.71100  0.11537  0.42394  1.0000
  C   C658      1.0  0.79167  0.17321  0.47402  1.0000
  S   S87       1.0  0.59484  0.44016  0.33100  1.0000
  C   C659      1.0  0.87970  0.17028  0.41756  1.0000
  C   C660      1.0  0.48345  0.11008  0.39680  1.0000
  C   C661      1.0  0.84368  0.07716  0.64488  1.0000
  H   H522      1.0  0.71636  0.13832  0.43556  1.0000
  H   H523      1.0  0.90980  0.08773  0.42023  1.0000
  C   C662      1.0  0.84894  0.10786  0.63112  1.0000
  H   H524      1.0  0.88492  0.17987  0.62199  1.0000
  C   C663      1.0  0.78647  0.15615  0.45629  1.0000
  H   H525      1.0  0.83706  0.07978  0.32663  1.0000
  C   C664      1.0  0.66857  0.08191  0.41856  1.0000
  C   C665      1.0  0.81758  0.09126  0.42136  1.0000
  C   C666      1.0  0.83491  0.14022  0.41903  1.0000
  H   H526      1.0  0.74401  0.02166  0.62022  1.0000
  H   H527      1.0  0.84572  0.42752  0.33470  1.0000
  C   C667      1.0  0.80626  0.18800  0.44245  1.0000
  H   H528      1.0  0.64174  0.07880  0.42608  1.0000
  H   H529      1.0  0.47472  0.07578  0.40198  1.0000
  C   C668      1.0  0.88031  0.15645  0.63276  1.0000
  C   C669      1.0  0.81856  0.04113  0.32546  1.0000
  C   C670      1.0  0.73731  0.09142  0.39838  1.0000
  H   H530      1.0  0.57565  0.27741  0.32372  1.0000
  H   H531      1.0  0.93227  0.21196  0.64902  1.0000
  C   C671      1.0  0.81954  0.46775  0.32410  1.0000
  C   C672      1.0  0.46386  0.16779  0.38934  1.0000
  C   C673      1.0  0.83818  0.43968  0.32270  1.0000
  C   C674      1.0  0.90683  0.17467  0.64803  1.0000
  C   C675      1.0  0.87780  0.00442  0.64685  1.0000
  C   C676      1.0  0.89952  0.98190  0.65235  1.0000
  C   C677      1.0  0.83353  0.98400  0.65001  1.0000
  S   S88       1.0  0.74212  0.25189  0.32246  1.0000
  C   C678      1.0  0.75765  0.99609  0.65492  1.0000
  C   C679      1.0  0.91111  0.28666  0.89964  1.0000
  H   H532      1.0  0.80127  0.07770  0.89392  1.0000
  H   H533      1.0  0.86705  0.07293  0.67098  1.0000
  H   H534      1.0  0.94912  0.21968  0.92027  1.0000
  C   C680      1.0  0.75500  0.02815  0.66698  1.0000
  H   H535      1.0  0.84004  0.32068  0.88841  1.0000
  H   H536      1.0  0.69549  0.06932  0.72927  1.0000
  C   C681      1.0  0.70229  0.04085  0.72766  1.0000
  C   C682      1.0  0.85310  0.27403  0.87231  1.0000
  H   H537      1.0  0.78188  0.02153  0.71418  1.0000
  H   H538      1.0  0.87270  0.22937  0.85908  1.0000
  H   H539      1.0  0.82429  0.03396  0.86004  1.0000
  H   H540      1.0  0.71383  0.04007  0.68440  1.0000
  C   C683      1.0  0.86017  0.14354  0.88871  1.0000
  H   H541      1.0  0.83083  0.26939  0.86167  1.0000
  C   C684      1.0  0.84885  0.98666  0.85774  1.0000
  C   C685      1.0  0.85699  0.07151  0.89799  1.0000
  C   C686      1.0  0.71611  0.01493  0.67544  1.0000
  H   H542      1.0  0.92312  0.15859  0.67340  1.0000
  C   C687      1.0  0.87695  0.25151  0.87087  1.0000
  H   H543      1.0  0.76638  0.08675  0.71790  1.0000
  C   C688      1.0  0.74223  0.05068  0.72128  1.0000
  C   C689      1.0  0.90190  0.09487  0.89759  1.0000
  Fe  Fe39      1.0  0.93431  0.98564  0.89762  1.0000
  C   C690      1.0  0.85828  0.30292  0.88736  1.0000
  H   H544      1.0  0.91817  0.07607  0.90101  1.0000
  C   C691      1.0  0.83612  0.09583  0.89355  1.0000
  H   H545      1.0  0.84337  0.16169  0.88540  1.0000
  H   H546      1.0  0.83846  0.03456  0.90176  1.0000
  C   C692      1.0  0.87003  0.09599  0.66032  1.0000
  H   H547      1.0  0.94657  0.16286  0.85757  1.0000
  C   C693      1.0  0.92600  0.14246  0.89274  1.0000
  C   C694      1.0  0.78924  0.97798  0.84003  1.0000
  C   C695      1.0  0.90645  0.25800  0.88446  1.0000
  C   C696      1.0  0.67117  0.99439  0.73212  1.0000
  P   P24       1.0  0.93733  0.22901  0.88232  1.0000
  C   C697      1.0  0.75099  0.01397  0.71921  1.0000
  H   H548      1.0  0.87356  0.00573  0.86799  1.0000
  C   C698      1.0  0.90538  0.16724  0.88830  1.0000
  H   H549      1.0  0.78246  0.06363  0.66956  1.0000
  H   H550      1.0  0.89129  0.33167  0.91268  1.0000
  C   C699      1.0  0.95429  0.23311  0.85941  1.0000
  C   C700      1.0  0.90166  0.14446  0.66180  1.0000
  C   C701      1.0  0.88718  0.30912  0.90103  1.0000
  C   C702      1.0  0.82107  0.00257  0.85326  1.0000
  H   H551      1.0  0.76747  0.99010  0.83663  1.0000
  H   H552      1.0  0.93347  0.29229  0.91034  1.0000
  H   H553      1.0  0.64061  0.98760  0.73723  1.0000
  H   H554      1.0  0.91959  0.98659  0.78522  1.0000
  C   C703      1.0  0.95490  0.19492  0.85066  1.0000
  Fe  Fe40      1.0  0.85827  0.84833  0.10543  1.0000
  S   S89       1.0  0.88404  0.90965  0.12563  1.0000
  S   S90       1.0  0.80900  0.76863  0.10806  1.0000
  Fe  Fe41      1.0  0.90983  0.91237  0.07436  1.0000
  H   H555      1.0  0.66079  0.77543  0.04842  1.0000
  S   S91       1.0  0.92305  0.90031  0.04490  1.0000
  H   H556      1.0  0.58526  0.71611  0.04049  1.0000
  C   C704      1.0  0.75576  0.94489  0.20405  1.0000
  H   H557      1.0  0.62604  0.77097  0.10381  1.0000
  S   S92       1.0  0.92348  0.87079  0.09428  1.0000
  S   S93       1.0  0.84351  0.88721  0.08483  1.0000
  Fe  Fe42      1.0  0.71148  0.54691  0.17494  1.0000
  C   C705      1.0  0.93022  0.77974  0.06791  1.0000
  S   S94       1.0  0.75045  0.62865  0.17371  1.0000
  C   C706      1.0  0.67779  0.88441  0.09281  1.0000
  H   H558      1.0  0.76786  0.87915  0.11095  1.0000
  Fe  Fe43      1.0  0.87439  0.95027  0.10437  1.0000
  H   H559      1.0  0.64740  0.85367  0.09627  1.0000
  C   C707      1.0  0.82557  0.88747  0.31337  1.0000
  H   H560      1.0  0.73469  0.87042  0.04899  1.0000
  C   C708      1.0  0.61757  0.75924  0.08993  1.0000
  H   H561      1.0  0.67061  0.57076  0.30285  1.0000
  H   H562      1.0  0.60333  0.91110  0.24494  1.0000
  C   C709      1.0  0.57469  0.72564  0.08531  1.0000
  C   C710      1.0  0.86581  0.71955  0.09109  1.0000
  C   C711      1.0  0.72834  0.86551  0.19075  1.0000
  C   C712      1.0  0.79559  0.73011  0.12634  1.0000
  C   C713      1.0  0.81219  0.74708  0.14363  1.0000
  C   C714      1.0  0.79833  0.71544  0.15788  1.0000
  C   C715      1.0  0.76822  0.66638  0.15503  1.0000
  C   C716      1.0  0.75251  0.64926  0.13765  1.0000
  C   C717      1.0  0.76594  0.68099  0.12345  1.0000
  H   H563      1.0  0.83496  0.78470  0.14610  1.0000
  H   H564      1.0  0.81083  0.72910  0.17124  1.0000
  H   H565      1.0  0.72947  0.61169  0.13521  1.0000
  H   H566      1.0  0.75288  0.66740  0.11015  1.0000
  H   H567      1.0  0.66903  0.53835  0.27263  1.0000
  H   H568      1.0  0.90293  0.97008  0.03044  1.0000
  Fe  Fe44      1.0  0.94895  0.93489  0.11313  1.0000
  C   C718      1.0  0.91755  0.91628  0.02272  1.0000
  C   C719      1.0  0.92403  0.89305  0.00794  1.0000
  H   H569      1.0  0.79501  0.86934  0.26931  1.0000
  H   H570      1.0  0.80298  0.59803  0.26172  1.0000
  C   C720      1.0  0.79526  0.96038  0.19560  1.0000
  H   H571      1.0  0.79635  0.79532  0.27375  1.0000
  C   C721      1.0  0.75091  0.92060  0.08226  1.0000
  C   C722      1.0  0.71109  0.87934  0.08558  1.0000
  P   P25       1.0  0.70466  0.82083  0.08283  1.0000
  C   C723      1.0  0.73936  0.82015  0.06559  1.0000
  C   C724      1.0  0.74894  0.84872  0.05065  1.0000
  C   C725      1.0  0.77815  0.85062  0.03798  1.0000
  C   C726      1.0  0.79727  0.82328  0.03992  1.0000
  C   C727      1.0  0.78647  0.79323  0.05432  1.0000
  C   C728      1.0  0.75751  0.79145  0.06708  1.0000
  C   C729      1.0  0.71876  0.80629  0.10387  1.0000
  C   C730      1.0  0.75057  0.84259  0.11505  1.0000
  C   C731      1.0  0.76106  0.83181  0.13152  1.0000
  C   C732      1.0  0.74002  0.78464  0.13688  1.0000
  C   C733      1.0  0.70913  0.74809  0.12561  1.0000
  C   C734      1.0  0.69874  0.75876  0.10909  1.0000
  C   C735      1.0  0.76753  0.88136  0.18222  1.0000
  H   H572      1.0  0.77820  0.91824  0.07783  1.0000
  C   C736      1.0  0.86686  0.66223  0.14231  1.0000
  H   H573      1.0  0.81004  0.96419  0.23295  1.0000
  H   H574      1.0  0.80174  0.77259  0.05595  1.0000
  H   H575      1.0  0.75083  0.76910  0.07844  1.0000
  H   H576      1.0  0.78626  0.85995  0.13988  1.0000
  H   H577      1.0  0.74884  0.77606  0.14943  1.0000
  H   H578      1.0  0.69438  0.71134  0.12946  1.0000
  H   H579      1.0  0.67569  0.72983  0.10033  1.0000
  C   C737      1.0  0.88722  0.76479  0.06414  1.0000
  C   C738      1.0  0.81612  0.81263  0.30144  1.0000
  C   C739      1.0  0.62175  0.92611  0.23301  1.0000
  C   C740      1.0  0.71907  0.48822  0.24864  1.0000
  H   H580      1.0  0.72625  0.76174  0.30713  1.0000
  P   P26       1.0  0.67999  0.66124  0.31618  1.0000
  H   H581      1.0  0.70881  0.48699  0.29376  1.0000
  C   C741      1.0  0.66599  0.94306  0.23304  1.0000
  C   C742      1.0  0.62511  0.94827  0.20231  1.0000
  C   C743      1.0  0.90587  0.96416  0.00157  1.0000
  C   C744      1.0  0.80792  0.58085  0.13705  1.0000
  H   H582      1.0  0.86029  0.62724  0.09849  1.0000
  C   C745      1.0  0.80096  0.92878  0.18463  1.0000
  C   C746      1.0  0.72242  0.89709  0.20164  1.0000
  C   C747      1.0  0.81812  0.58366  0.11897  1.0000
  H   H583      1.0  0.68311  0.69682  0.28008  1.0000
  C   C748      1.0  0.56304  0.71007  0.06751  1.0000
  S   S95       1.0  0.66115  0.51112  0.19611  1.0000
  C   C749      1.0  0.67264  0.59138  0.29149  1.0000
  H   H584      1.0  0.72827  0.93894  0.14898  1.0000
  H   H585      1.0  0.67508  0.58452  0.24612  1.0000
  C   C750      1.0  0.67183  0.57282  0.27434  1.0000
  H   H586      1.0  0.82104  0.82602  0.03044  1.0000
  H   H587      1.0  0.76749  0.54763  0.23423  1.0000
  C   C751      1.0  0.75879  0.54534  0.27971  1.0000
  C   C752      1.0  0.80451  0.82101  0.28477  1.0000
  C   C753      1.0  0.92256  0.79829  0.13027  1.0000
  H   H588      1.0  0.69164  0.88425  0.20797  1.0000
  H   H589      1.0  0.68170  0.66355  0.24994  1.0000
  C   C754      1.0  0.77471  0.56287  0.26279  1.0000
  C   C755      1.0  0.68388  0.92976  0.09620  1.0000
  H   H590      1.0  0.79312  0.50297  0.30978  1.0000
  H   H591      1.0  0.82374  0.61811  0.16265  1.0000
  H   H592      1.0  0.71672  0.94991  0.31596  1.0000
  H   H593      1.0  0.59708  0.57153  0.31079  1.0000
  C   C756      1.0  0.67664  0.63626  0.29388  1.0000
  H   H594      1.0  0.78092  0.54835  0.14204  1.0000
  C   C757      1.0  0.87760  0.66524  0.12418  1.0000
  H   H595      1.0  0.52981  0.68393  0.06395  1.0000
  C   C758      1.0  0.83229  0.62010  0.14869  1.0000
  C   C759      1.0  0.67981  0.66215  0.27874  1.0000
  H   H596      1.0  0.87907  0.77785  0.05255  1.0000
  H   H597      1.0  0.75284  0.64807  0.30753  1.0000
  C   C760      1.0  0.80373  0.86268  0.28229  1.0000
  H   H598      1.0  0.92173  0.51070  0.28528  1.0000
  S   S96       1.0  0.67088  0.49078  0.15378  1.0000
  C   C761      1.0  0.64923  0.77755  0.07675  1.0000
  C   C762      1.0  0.90888  0.73406  0.09495  1.0000
  C   C763      1.0  0.63979  0.77379  0.31443  1.0000
  H   H599      1.0  0.70232  0.82882  0.18875  1.0000
  C   C764      1.0  0.85775  0.53317  0.23869  1.0000
  H   H600      1.0  0.83116  0.94126  0.17780  1.0000
  C   C765      1.0  0.63719  0.76188  0.05887  1.0000
  H   H601      1.0  0.79900  0.55315  0.10999  1.0000
  C   C766      1.0  0.60137  0.92899  0.21768  1.0000
  H   H602      1.0  0.55050  0.71165  0.09557  1.0000
  C   C767      1.0  0.75459  0.53449  0.24722  1.0000
  C   C768      1.0  0.85278  0.62566  0.11254  1.0000
  H   H603      1.0  0.60932  0.95027  0.19034  1.0000
  C   C769      1.0  0.75068  0.96787  0.31956  1.0000
  H   H604      1.0  0.90914  0.95592  0.30566  1.0000
  S   S97       1.0  0.78557  0.57918  0.29931  1.0000
  H   H605      1.0  0.65861  0.93358  0.10226  1.0000
  H   H606      1.0  0.56720  0.91639  0.21768  1.0000
  C   C770      1.0  0.69055  0.96470  0.21789  1.0000
  C   C771      1.0  0.59426  0.72821  0.05430  1.0000
  C   C772      1.0  0.90804  0.95174  0.01935  1.0000
  C   C773      1.0  0.86505  0.50782  0.25152  1.0000
  C   C774      1.0  0.72200  0.50016  0.28092  1.0000
  H   H607      1.0  0.77192  0.85697  0.17366  1.0000
  C   C775      1.0  0.82660  0.84565  0.31569  1.0000
  H   H608      1.0  0.81689  0.78039  0.30336  1.0000
  H   H609      1.0  0.78836  0.93777  0.13346  1.0000
  C   C776      1.0  0.92118  0.90494  0.99016  1.0000
  C   C777      1.0  0.94108  0.76462  0.08326  1.0000
  P   P27       1.0  0.92315  0.71903  0.11588  1.0000
  C   C778      1.0  0.69382  0.75189  0.31067  1.0000
  H   H610      1.0  0.89825  0.79106  0.12021  1.0000
  H   H611      1.0  0.88471  0.69231  0.15158  1.0000
  C   C779      1.0  0.67522  0.59888  0.25939  1.0000
  C   C780      1.0  0.81450  0.89594  0.29647  1.0000
  H   H612      1.0  0.84050  0.69822  0.10030  1.0000
  C   C781      1.0  0.85504  0.73446  0.07568  1.0000
  H   H613      1.0  0.87667  0.57178  0.23901  1.0000
  H   H614      1.0  0.78679  0.87406  0.02684  1.0000
  C   C782      1.0  0.80799  0.48171  0.30867  1.0000
  S   S98       1.0  0.74749  0.51105  0.18324  1.0000
  H   H615      1.0  0.82179  0.72396  0.07319  1.0000
  C   C783      1.0  0.67907  0.64345  0.26158  1.0000
  H   H616      1.0  0.82595  0.68455  0.31994  1.0000
  C   C784      1.0  0.93765  0.83854  0.14167  1.0000
  C   C785      1.0  0.66950  0.96614  0.20240  1.0000
  C   C786      1.0  0.82532  0.50881  0.22569  1.0000
  H   H617      1.0  0.70468  0.82181  0.30602  1.0000
  C   C787      1.0  0.68168  0.78599  0.31002  1.0000
  C   C788      1.0  0.93339  0.48920  0.27914  1.0000
  C   C789      1.0  0.72313  0.97041  0.09232  1.0000
  C   C790      1.0  0.60998  0.72737  0.31938  1.0000
  H   H618      1.0  0.81437  0.92833  0.29419  1.0000
  H   H619      1.0  0.93029  0.63305  0.11139  1.0000
  C   C791      1.0  0.76314  0.67583  0.31787  1.0000
  H   H620      1.0  0.68065  0.93935  0.24496  1.0000
  H   H621      1.0  0.88961  0.52756  0.26169  1.0000
  C   C792      1.0  0.66420  0.70529  0.31580  1.0000
  C   C793      1.0  0.93927  0.76826  0.13174  1.0000
  C   C794      1.0  0.75650  0.96579  0.08527  1.0000
  H   H622      1.0  0.93138  0.86554  0.01025  1.0000
  C   C795      1.0  0.62200  0.69312  0.31997  1.0000
  H   H623      1.0  0.92560  0.86236  0.14022  1.0000
  H   H624      1.0  0.81904  0.52837  0.21593  1.0000
  C   C796      1.0  0.75090  0.96932  0.14148  1.0000
  C   C797      1.0  0.78480  0.96833  0.13256  1.0000
  H   H625      1.0  0.63032  0.80022  0.31396  1.0000
  H   H626      1.0  0.80588  0.47944  0.28011  1.0000
  H   H627      1.0  0.95519  0.80421  0.05916  1.0000
  S   S99       1.0  0.47507  0.72549  0.64826  1.0000
  Fe  Fe45      1.0  0.94871  0.96788  0.60699  1.0000
  S   S100      1.0  0.70531  0.56055  0.33564  1.0000
  C   C798      1.0  0.63141  0.58028  0.36048  1.0000
  H   H628      1.0  0.57515  0.50991  0.36220  1.0000
  H   H629      1.0  0.81896  0.63431  0.43360  1.0000
  H   H630      1.0  0.79012  0.83310  0.39709  1.0000
  S   S101      1.0  0.60108  0.80399  0.63981  1.0000
  C   C799      1.0  0.89185  0.91630  0.50536  1.0000
  C   C800      1.0  0.89770  0.96976  0.33298  1.0000
  C   C801      1.0  0.83729  0.86090  0.37641  1.0000
  C   C802      1.0  0.81905  0.73158  0.33865  1.0000
  H   H631      1.0  0.81304  0.47764  0.33716  1.0000
  S   S102      1.0  0.92857  0.82454  0.38939  1.0000
  S   S103      1.0  0.69226  0.49318  0.36890  1.0000
  H   H632      1.0  0.80151  0.77092  0.35667  1.0000
  S   S104      1.0  0.90370  0.90989  0.42226  1.0000
  S   S105      1.0  0.91510  0.90352  0.62394  1.0000
  H   H633      1.0  0.64167  0.58192  0.37423  1.0000
  S   S106      1.0  0.86723  0.84157  0.58754  1.0000
  C   C803      1.0  0.80484  0.71674  0.45663  1.0000
  Fe  Fe46      1.0  0.85443  0.88377  0.60833  1.0000
  S   S107      1.0  0.79348  0.84805  0.62569  1.0000
  H   H634      1.0  0.68634  0.64781  0.35482  1.0000
  Fe  Fe47      1.0  0.73785  0.56970  0.36217  1.0000
  C   C804      1.0  0.76369  0.64183  0.43089  1.0000
  S   S108      1.0  0.74769  0.63023  0.38120  1.0000
  H   H635      1.0  0.74932  0.95795  0.57008  1.0000
  C   C805      1.0  0.87833  0.77027  0.38813  1.0000
  C   C806      1.0  0.87503  0.73183  0.37789  1.0000
  C   C807      1.0  0.83530  0.68864  0.37576  1.0000
  C   C808      1.0  0.79850  0.68346  0.38395  1.0000
  C   C809      1.0  0.80202  0.72153  0.39455  1.0000
  C   C810      1.0  0.84180  0.76472  0.39672  1.0000
  H   H636      1.0  0.90320  0.73569  0.37132  1.0000
  H   H637      1.0  0.83306  0.65955  0.36764  1.0000
  H   H638      1.0  0.77379  0.71765  0.40107  1.0000
  H   H639      1.0  0.84410  0.79361  0.40499  1.0000
  P   P28       1.0  0.83977  0.93077  0.33167  1.0000
  Fe  Fe48      1.0  0.94221  0.89470  0.40256  1.0000
  H   H640      1.0  0.91821  0.81735  0.65017  1.0000
  C   C811      1.0  0.91603  0.92439  0.52125  1.0000
  C   C812      1.0  0.79111  0.74534  0.34550  1.0000
  H   H641      1.0  0.85111  0.74698  0.34441  1.0000
  Fe  Fe49      1.0  0.75306  0.54306  0.32485  1.0000
  C   C813      1.0  0.80730  0.86950  0.45721  1.0000
  H   H642      1.0  0.85722  0.89982  0.50605  1.0000
  C   C814      1.0  0.65347  0.81319  0.63546  1.0000
  C   C815      1.0  0.67262  0.79445  0.64607  1.0000
  C   C816      1.0  0.71530  0.80559  0.64287  1.0000
  C   C817      1.0  0.73930  0.83468  0.62876  1.0000
  C   C818      1.0  0.71975  0.85248  0.61788  1.0000
  C   C819      1.0  0.67742  0.84221  0.62132  1.0000
  H   H643      1.0  0.89386  0.68255  0.32636  1.0000
  C   C820      1.0  0.82307  0.89921  0.35229  1.0000
  H   H644      1.0  0.73720  0.87414  0.60681  1.0000
  H   H645      1.0  0.66309  0.85684  0.61292  1.0000
  H   H646      1.0  0.81412  0.67701  0.48791  1.0000
  C   C821      1.0  0.88884  0.80192  0.46515  1.0000
  C   C822      1.0  0.92205  0.82956  0.47769  1.0000
  C   C823      1.0  0.72105  0.95063  0.65167  1.0000
  P   P29       1.0  0.83340  0.76746  0.47206  1.0000
  C   C824      1.0  0.65686  0.61781  0.34930  1.0000
  C   C825      1.0  0.89895  0.80313  0.44696  1.0000
  C   C826      1.0  0.81019  0.80467  0.47075  1.0000
  C   C827      1.0  0.77438  0.86272  0.46871  1.0000
  C   C828      1.0  0.75885  0.82657  0.48106  1.0000
  C   C829      1.0  0.77645  0.79740  0.48201  1.0000
  H   H647      1.0  0.85526  0.69977  0.45644  1.0000
  H   H648      1.0  0.91535  0.83091  0.49168  1.0000
  C   C830      1.0  0.81980  0.69001  0.51629  1.0000
  C   C831      1.0  0.79883  0.85073  0.38445  1.0000
  H   H649      1.0  0.93277  0.83919  0.53005  1.0000
  H   H650      1.0  0.87396  0.78329  0.43688  1.0000
  H   H651      1.0  0.76102  0.88559  0.46807  1.0000
  H   H652      1.0  0.73334  0.82133  0.48999  1.0000
  H   H653      1.0  0.76383  0.76941  0.49160  1.0000
  C   C832      1.0  0.82502  0.84050  0.45819  1.0000
  H   H654      1.0  0.82748  0.71287  0.54410  1.0000
  H   H655      1.0  0.72773  0.73505  0.34424  1.0000
  C   C833      1.0  0.74395  0.66688  0.43659  1.0000
  H   H656      1.0  0.87947  0.89261  0.35453  1.0000
  C   C834      1.0  0.59400  0.53985  0.35375  1.0000
  C   C835      1.0  0.77249  0.86489  0.37651  1.0000
  C   C836      1.0  0.83981  0.78233  0.50910  1.0000
  H   H657      1.0  0.74870  0.72348  0.45344  1.0000
  C   C837      1.0  0.84927  0.88477  0.36039  1.0000
  H   H658      1.0  0.71319  0.65789  0.43074  1.0000
  S   S109      1.0  0.78852  0.55628  0.35113  1.0000
  H   H659      1.0  0.76442  0.90127  0.35503  1.0000
  C   C838      1.0  0.76057  0.96919  0.58377  1.0000
  H   H660      1.0  0.82867  0.96621  0.61412  1.0000
  Fe  Fe50      1.0  0.92972  0.86546  0.60240  1.0000
  Fe  Fe51      1.0  0.66413  0.48276  0.34130  1.0000
  C   C839      1.0  0.83844  0.76913  0.52676  1.0000
  C   C840      1.0  0.83113  0.74950  0.49484  1.0000
  H   H661      1.0  0.77755  0.96583  0.38661  1.0000
  H   H662      1.0  0.55309  0.50530  0.33064  1.0000
  H   H663      1.0  0.85849  0.85135  0.38275  1.0000
  Fe  Fe52      1.0  0.90373  0.90972  0.57238  1.0000
  C   C841      1.0  0.58156  0.53730  0.33590  1.0000
  C   C842      1.0  0.91191  0.92950  0.48857  1.0000
  H   H664      1.0  0.89280  0.92327  0.47661  1.0000
  C   C843      1.0  0.82851  0.72300  0.53037  1.0000
  H   H665      1.0  0.84514  0.79487  0.53765  1.0000
  C   C844      1.0  0.94146  0.83156  0.44146  1.0000
  H   H666      1.0  0.74834  0.61378  0.42058  1.0000
  H   H667      1.0  0.84773  0.81830  0.50662  1.0000
  C   C845      1.0  0.80358  0.65353  0.43821  1.0000
  H   H668      1.0  0.81954  0.89764  0.44765  1.0000
  C   C846      1.0  0.93249  0.75912  0.33019  1.0000
  H   H669      1.0  0.81198  0.65420  0.51913  1.0000
  S   S110      1.0  0.85730  0.97475  0.39768  1.0000
  H   H670      1.0  0.93207  0.83018  0.56283  1.0000
  C   C847      1.0  0.76432  0.70413  0.44945  1.0000
  C   C848      1.0  0.78460  0.88927  0.36053  1.0000
  S   S111      1.0  0.88753  0.95134  0.59256  1.0000
  H   H671      1.0  0.80402  0.94281  0.58278  1.0000
  S   S112      1.0  0.94583  0.80835  0.60905  1.0000
  S   S113      1.0  0.88826  0.90516  0.54202  1.0000
  C   C849      1.0  0.82107  0.70314  0.49858  1.0000
  C   C850      1.0  0.82400  0.69062  0.45111  1.0000
  H   H672      1.0  0.85067  0.84659  0.44929  1.0000
  H   H673      1.0  0.74339  0.85839  0.38307  1.0000
  H   H674      1.0  0.94883  0.83325  0.42739  1.0000
  H   H675      1.0  0.94308  0.66792  0.34426  1.0000
  C   C851      1.0  0.79163  0.96089  0.59091  1.0000
  C   C852      1.0  0.80501  0.69669  0.32489  1.0000
  C   C853      1.0  0.64535  0.61485  0.33116  1.0000
  C   C854      1.0  0.74926  0.72473  0.33846  1.0000
  S   S114      1.0  0.95184  0.95195  0.38415  1.0000
  Fe  Fe53      1.0  0.91740  0.97111  0.40465  1.0000
  H   H676      1.0  0.83569  0.83841  0.32840  1.0000
  H   H677      1.0  0.72220  0.92560  0.64224  1.0000
  C   C855      1.0  0.92288  0.71243  0.33240  1.0000
  C   C856      1.0  0.80568  0.97440  0.60869  1.0000
  C   C857      1.0  0.81417  0.96495  0.32802  1.0000
  C   C858      1.0  0.95672  0.95143  0.48730  1.0000
  C   C859      1.0  0.95068  0.70416  0.34248  1.0000
  H   H678      1.0  0.72972  0.79114  0.65130  1.0000
  Fe  Fe54      1.0  0.74036  0.47848  0.35572  1.0000
  C   C860      1.0  0.77024  0.94157  0.32312  1.0000
  C   C861      1.0  0.73488  0.68966  0.32460  1.0000
  H   H679      1.0  0.59834  0.65733  0.32375  1.0000
  C   C862      1.0  0.60693  0.57469  0.32466  1.0000
  H   H680      1.0  0.75112  0.90303  0.32213  1.0000
  H   H681      1.0  0.91102  0.76553  0.32232  1.0000
  H   H682      1.0  0.57744  0.71787  0.32274  1.0000
  Fe  Fe55      1.0  0.51429  0.69859  0.69180  1.0000
  S   S115      1.0  0.53260  0.68170  0.71821  1.0000
  C   C863      1.0  0.48641  0.72577  0.97058  1.0000
  S   S116      1.0  0.52875  0.67846  0.66483  1.0000
  S   S117      1.0  0.50551  0.79489  0.78152  1.0000
  C   C864      1.0  0.68581  0.80339  0.92388  1.0000
  S   S118      1.0  0.52404  0.83428  0.83139  1.0000
  C   C865      1.0  0.50271  0.79676  0.90694  1.0000
  Fe  Fe56      1.0  0.55485  0.79822  0.84492  1.0000
  S   S119      1.0  0.62566  0.85070  0.85319  1.0000
  H   H683      1.0  0.64926  0.78770  0.82944  1.0000
  C   C866      1.0  0.84480  0.94609  0.84906  1.0000
  S   S120      1.0  0.53694  0.74330  0.82263  1.0000
  C   C867      1.0  0.49912  0.76335  0.74708  1.0000
  S   S121      1.0  0.89875  0.91352  0.88345  1.0000
  H   H684      1.0  0.62220  0.86876  0.92772  1.0000
  S   S122      1.0  0.87466  0.86593  0.92235  1.0000
  C   C868      1.0  0.78514  0.93741  0.83131  1.0000
  C   C869      1.0  0.55082  0.71986  0.88520  1.0000
  Fe  Fe57      1.0  0.84575  0.89353  0.90293  1.0000
  S   S123      1.0  0.77480  0.84098  0.89517  1.0000
  Fe  Fe58      1.0  0.47447  0.69952  0.83708  1.0000
  H   H685      1.0  0.90778  0.83003  0.85460  1.0000
  H   H686      1.0  0.77827  0.75731  0.87346  1.0000
  H   H687      1.0  0.51029  0.60320  0.87313  1.0000
  C   C870      1.0  0.84610  0.88726  0.80673  1.0000
  C   C871      1.0  0.73438  0.84484  0.88313  1.0000
  C   C872      1.0  0.73996  0.88823  0.87785  1.0000
  C   C873      1.0  0.70620  0.88923  0.86883  1.0000
  C   C874      1.0  0.66658  0.84700  0.86491  1.0000
  C   C875      1.0  0.66128  0.80356  0.86996  1.0000
  C   C876      1.0  0.69493  0.80258  0.87903  1.0000
  H   H688      1.0  0.77007  0.92099  0.88087  1.0000
  H   H689      1.0  0.71080  0.92303  0.86491  1.0000
  H   H690      1.0  0.63158  0.77066  0.86669  1.0000
  H   H691      1.0  0.69031  0.76878  0.88298  1.0000
  C   C877      1.0  0.52278  0.71041  0.73616  1.0000
  C   C878      1.0  0.50549  0.73897  0.73292  1.0000
  Fe  Fe59      1.0  0.91097  0.94039  0.93460  1.0000
  C   C879      1.0  0.50923  0.75880  0.76465  1.0000
  C   C880      1.0  0.52536  0.72906  0.76808  1.0000
  C   C881      1.0  0.53247  0.70514  0.75379  1.0000
  C   C882      1.0  0.50355  0.87425  0.73276  1.0000
  C   C883      1.0  0.71999  0.96751  0.72368  1.0000
  H   H692      1.0  0.53341  0.72552  0.78161  1.0000
  H   H693      1.0  0.54571  0.68287  0.75638  1.0000
  C   C884      1.0  0.91252  0.94105  0.98678  1.0000
  H   H694      1.0  0.65629  0.89677  0.69838  1.0000
  C   C885      1.0  0.75290  0.83132  0.81616  1.0000
  H   H695      1.0  0.86442  0.96171  0.80831  1.0000
  H   H696      1.0  0.50657  0.59664  0.90612  1.0000
  C   C886      1.0  0.70059  0.91796  0.78566  1.0000
  C   C887      1.0  0.54596  0.71610  0.90375  1.0000
  P   P30       1.0  0.56034  0.76858  0.91761  1.0000
  C   C888      1.0  0.53160  0.75164  0.93841  1.0000
  C   C889      1.0  0.61785  0.80118  0.92192  1.0000
  C   C890      1.0  0.64125  0.77789  0.92073  1.0000
  C   C891      1.0  0.68238  0.93743  0.66023  1.0000
  H   H697      1.0  0.92617  0.88645  0.97913  1.0000
  C   C892      1.0  0.46570  0.70183  0.95456  1.0000
  C   C893      1.0  0.63963  0.85014  0.92659  1.0000
  C   C894      1.0  0.48815  0.71466  0.93854  1.0000
  H   H698      1.0  0.92415  0.70966  0.77167  1.0000
  C   C895      1.0  0.70737  0.85224  0.92814  1.0000
  C   C896      1.0  0.54468  0.80477  0.90566  1.0000
  Fe  Fe60      1.0  0.46264  0.78356  0.84503  1.0000
  H   H699      1.0  0.51306  0.89832  0.76038  1.0000
  C   C897      1.0  0.67984  0.96963  0.67208  1.0000
  C   C898      1.0  0.56119  0.86614  0.88425  1.0000
  C   C899      1.0  0.57372  0.83960  0.89413  1.0000
  H   H700      1.0  0.76999  0.82110  0.78931  1.0000
  Fe  Fe61      1.0  0.92991  0.89037  0.90323  1.0000
  H   H701      1.0  0.62547  0.74028  0.91711  1.0000
  H   H702      1.0  0.77691  0.92250  0.66049  1.0000
  C   C900      1.0  0.87713  0.93847  0.66084  1.0000
  H   H703      1.0  0.47150  0.69588  0.92622  1.0000
  C   C901      1.0  0.91289  0.76360  0.66770  1.0000
  H   H704      1.0  0.92253  0.67247  0.82471  1.0000
  H   H705      1.0  0.50259  0.84974  0.70564  1.0000
  H   H706      1.0  0.49743  0.74284  0.71944  1.0000
  C   C902      1.0  0.52135  0.86417  0.71796  1.0000
  H   H707      1.0  0.76046  0.91914  0.82103  1.0000
  H   H708      1.0  0.58353  0.89216  0.87510  1.0000
  H   H709      1.0  0.60576  0.84551  0.89232  1.0000
  C   C903      1.0  0.63423  0.77668  0.71628  1.0000
  C   C904      1.0  0.64184  0.78591  0.69816  1.0000
  C   C905      1.0  0.65025  0.82951  0.69183  1.0000
  C   C906      1.0  0.65096  0.86381  0.70363  1.0000
  C   C907      1.0  0.64329  0.85482  0.72191  1.0000
  C   C908      1.0  0.63434  0.81064  0.72810  1.0000
  P   P31       1.0  0.64064  0.89782  0.73674  1.0000
  C   C909      1.0  0.65263  0.89089  0.75956  1.0000
  C   C910      1.0  0.93271  0.80969  0.66128  1.0000
  C   C911      1.0  0.92474  0.73951  0.82443  1.0000
  S   S124      1.0  0.87872  0.96701  0.91604  1.0000
  S   S125      1.0  0.91204  0.96083  0.96464  1.0000
  H   H710      1.0  0.81528  0.88286  0.66965  1.0000
  H   H711      1.0  0.93396  0.92749  0.77038  1.0000
  C   C912      1.0  0.52960  0.76255  0.97059  1.0000
  H   H712      1.0  0.58660  0.91263  0.76252  1.0000
  C   C913      1.0  0.66782  0.88247  0.79572  1.0000
  C   C914      1.0  0.62784  0.85069  0.78766  1.0000
  C   C915      1.0  0.62050  0.85470  0.76966  1.0000
  C   C916      1.0  0.58696  0.88873  0.73519  1.0000
  H   H713      1.0  0.89373  0.72575  0.83068  1.0000
  H   H714      1.0  0.56410  0.75414  0.87917  1.0000
  C   C917      1.0  0.68428  0.87558  0.92957  1.0000
  H   H715      1.0  0.47861  0.62873  0.80317  1.0000
  C   C918      1.0  0.56894  0.89928  0.74996  1.0000
  H   H716      1.0  0.62637  0.74222  0.72104  1.0000
  H   H717      1.0  0.64002  0.75870  0.68895  1.0000
  C   C919      1.0  0.50009  0.62072  0.79591  1.0000
  H   H718      1.0  0.54564  0.78121  0.98301  1.0000
  H   H719      1.0  0.62637  0.80159  0.74188  1.0000
  H   H720      1.0  0.48655  0.78609  0.74434  1.0000
  C   C920      1.0  0.82157  0.83691  0.84020  1.0000
  C   C921      1.0  0.48501  0.58861  0.78110  1.0000
  H   H721      1.0  0.86699  0.93474  0.85255  1.0000
  Fe  Fe62      1.0  0.50271  0.77617  0.81026  1.0000
  C   C922      1.0  0.83304  0.91765  0.66388  1.0000
  H   H722      1.0  0.50265  0.55286  0.76101  1.0000
  H   H723      1.0  0.67309  0.87977  0.80979  1.0000
  H   H724      1.0  0.60206  0.82345  0.79542  1.0000
  H   H725      1.0  0.58935  0.83029  0.76363  1.0000
  C   C923      1.0  0.86406  0.84615  0.84132  1.0000
  H   H726      1.0  0.65493  0.83608  0.67766  1.0000
  H   H727      1.0  0.88289  0.73572  0.66157  1.0000
  C   C924      1.0  0.51358  0.57828  0.77223  1.0000
  C   C925      1.0  0.55675  0.60064  0.77784  1.0000
  C   C926      1.0  0.57151  0.63271  0.79256  1.0000
  C   C927      1.0  0.54310  0.64245  0.80165  1.0000
  C   C928      1.0  0.67571  0.79436  0.82079  1.0000
  H   H728      1.0  0.85296  0.77304  0.87485  1.0000
  Fe  Fe63      1.0  0.46398  0.74086  0.67659  1.0000
  C   C929      1.0  0.52122  0.63474  0.88174  1.0000
  H   H729      1.0  0.57865  0.59282  0.77081  1.0000
  H   H730      1.0  0.60483  0.64967  0.79702  1.0000
  H   H731      1.0  0.55419  0.66649  0.81329  1.0000
  H   H732      1.0  0.91402  0.73928  0.71704  1.0000
  H   H733      1.0  0.88051  0.71024  0.74614  1.0000
  C   C930      1.0  0.85436  0.85402  0.79821  1.0000
  S   S126      1.0  0.53387  0.77300  0.68461  1.0000
  C   C931      1.0  0.70159  0.78650  0.79189  1.0000
  P   P32       1.0  0.80779  0.86859  0.82466  1.0000
  H   H734      1.0  0.88929  0.87277  0.83326  1.0000
  H   H735      1.0  0.52971  0.66819  0.92565  1.0000
  H   H736      1.0  0.58551  0.80416  0.95495  1.0000
  H   H737      1.0  0.83677  0.81701  0.80191  1.0000
  C   C932      1.0  0.94091  0.70949  0.82108  1.0000
  C   C933      1.0  0.80186  0.78088  0.86406  1.0000
  H   H738      1.0  0.47710  0.60660  0.74217  1.0000
  C   C934      1.0  0.52729  0.89171  0.74876  1.0000
  C   C935      1.0  0.66737  0.77685  0.80310  1.0000
  H   H739      1.0  0.69504  0.77335  0.77810  1.0000
  C   C936      1.0  0.71820  0.82147  0.82727  1.0000
  C   C937      1.0  0.53782  0.67923  0.87422  1.0000
  H   H740      1.0  0.73156  0.94266  0.79192  1.0000
  C   C938      1.0  0.91450  0.72321  0.74453  1.0000
  H   H741      1.0  0.70408  0.78572  0.92246  1.0000
  H   H742      1.0  0.91795  0.71659  0.68550  1.0000
  C   C939      1.0  0.86975  0.93516  0.80189  1.0000
  H   H743      1.0  0.63441  0.75640  0.79803  1.0000
  H   H744      1.0  0.75818  0.79740  0.85186  1.0000
  C   C940      1.0  0.56288  0.87146  0.71914  1.0000
  C   C941      1.0  0.55215  0.77550  0.95459  1.0000
  C   C942      1.0  0.84391  0.78985  0.86489  1.0000
  C   C943      1.0  0.74419  0.81360  0.79836  1.0000
  H   H745      1.0  0.72404  0.83572  0.84090  1.0000
  C   C944      1.0  0.53150  0.67168  0.91131  1.0000
  C   C945      1.0  0.87490  0.82217  0.85344  1.0000
  C   C946      1.0  0.49022  0.82314  0.89693  1.0000
  H   H746      1.0  0.65464  0.77151  0.65680  1.0000
  H   H747      1.0  0.57567  0.86298  0.70753  1.0000
  C   C947      1.0  0.79064  0.80415  0.85177  1.0000
  C   C948      1.0  0.94890  0.78750  0.82004  1.0000
  C   C949      1.0  0.51875  0.63107  0.90030  1.0000
  S   S127      1.0  0.49445  0.75167  0.86050  1.0000
  S   S128      1.0  0.94532  0.83521  0.89158  1.0000
  H   H748      1.0  0.89365  0.92019  0.66452  1.0000
  C   C950      1.0  0.90939  0.91624  0.78046  1.0000
  H   H749      1.0  0.89213  0.84270  0.77868  1.0000
  H   H750      1.0  0.46887  0.58110  0.71040  1.0000
  H   H751      1.0  0.53984  0.68207  0.85982  1.0000
  C   C951      1.0  0.88585  0.86849  0.78513  1.0000
  H   H752      1.0  0.47908  0.76960  0.91528  1.0000
  C   C952      1.0  0.81124  0.94024  0.65849  1.0000
  H   H753      1.0  0.72753  0.93959  0.72225  1.0000
  C   C953      1.0  0.81256  0.92074  0.83596  1.0000
  H   H754      1.0  0.50917  0.87713  0.87745  1.0000
  C   C954      1.0  0.93366  0.73967  0.72798  1.0000
  C   C955      1.0  0.51941  0.85777  0.88558  1.0000
  C   C956      1.0  0.69308  0.92228  0.76766  1.0000
  H   H755      1.0  0.70115  0.91352  0.93279  1.0000
  H   H756      1.0  0.47104  0.86754  0.73190  1.0000
  C   C957      1.0  0.90127  0.94951  0.78881  1.0000
  H   H757      1.0  0.93571  0.81009  0.82271  1.0000
  H   H758      1.0  0.71866  0.95052  0.76026  1.0000
  C   C958      1.0  0.67980  0.95737  0.73015  1.0000
  H   H759      1.0  0.74214  0.87201  0.93002  1.0000
  C   C959      1.0  0.93896  0.72280  0.75890  1.0000
  H   H760      1.0  0.93236  0.84955  0.94889  1.0000
  H   H761      1.0  0.95796  0.76544  0.87322  1.0000
  H   H762      1.0  0.64960  0.95958  0.67847  1.0000
  H   H763      1.0  0.95158  0.80998  0.78137  1.0000
  H   H764      1.0  0.46895  0.71591  0.98299  1.0000
  H   H765      1.0  0.94041  0.82171  0.74985  1.0000
  C   C960      1.0  0.93271  0.75307  0.68136  1.0000
  H   H766      1.0  0.65417  0.90240  0.65737  1.0000
  H   H767      1.0  0.95535  0.80314  0.93016  1.0000
  H   H768      1.0  0.95199  0.58924  0.78231  1.0000
  Fe  Fe64      1.0  0.54413  0.75144  0.65699  1.0000
