data_image0
_chemical_formula_structural       FeS2FeS3C2HCFeS2FeS2HCHC2SHC4HCSCHC3HC2HC3HC6H4C6H4C6H4C5H2C7HCHC2HCHSHCH2CHCH5CFeC3HCPCPHC6SHCPH7CHCH2CHC3HCH3CH4C4HCHCHPHC2H5C2H2CHC6H3PCH2FePC6HC3H2PC3H2CH5CH2C3H3CHCHC2H2C6HC2HC2H2CH3CHCHCHCHC2H3C4H5C2H2C2HFeS2FeS2HCHSFePSFeSFeCS2FeHSHS2HCFeS2C2H5CHC7H5CH2CH3C5H2C6H4C6H4SH2SH3CHCH3C4H3C2HCHC4HCHC2H8CFeH2CHPC2HPCPC4H2C4HC2HCH2C3HC2HC4HCHCH2C3HC2HC2HCH5C3HC7HC3HSHCHC2HCHCHC4HCHC2H3C6HC6HC3H2SHC7HC2HFeC2HC2FeCHCH2C2H4C6H3CHCH2C2HCHCH6C2SC5HC2H2C2HCHCHCHCFeS2FeSFeS3HCHFeS2FeSHFeCHS2FeS2FeS3HSC2HC2SHSCFeSC6H5C2SHC6H4C7H2CFeC2HC9H4C6H4C2H2C2SCH3FeH3C2HCH2CHC2H2SCH3CHCHFeH3C2HC2HCHCS2CH3SC2HCH2CH3CH2CSH2FeH2FeHC6PC6PCHCHSC4H8CHCHCFeHPH6CHC7PC2H5C12H4C4H10CHSH2SC5HCHC2HC2H4C6PC18H18C4SCHC3H2C6HCHFeCFeCH5FeC4HC4H3C2SC7HCHCHCHC2H6SCH2C2H2C4H2CHCH2CH2S2H2CS2HSCH2CFeS2FeS2FeHCS2FeS2FeS2FeS2C4H2C6H4C6H4C3H2C2HCHC6H4C6HCH2C6H5SFeCHFeC2HCH2C2H4CH2C7PC3Fe2CHC8H2CH2C2H2C2HCH7CSHC4H3C4HC2HC2PC22H16C2HCH2PC12H5CH5CSC2H3CHC3HCH2C2HCH3CSHC2H3CH2CSFeHC3HS2HCH2C4HC3PC5H2C3PCHSC3HCHSHC2H5CHFeH2CHC2H2CFeC3HSHCH2C2H2C2H2CPHCH2SHC3HC3HPCHCHCHCHCH3CHCH2CSH3SCFeHC2HCSC4SCSCSHCFeS2CHFeSHSH2PH2SFeS2CHCSCHC4H2FePFeCFeCHCHC2PC6H4C2HC8H3C6H10CFeCHC2SH2C2H3C5SCSH2CSC2HC2H2C2H4CHCSFeCHC4HCH2CHC2H3C2HC2HC2HCHCH4CSC2H2CPCHC5HCFeHC5HCH2C4SC2H2C2HC3H2C2H3CH2CHSC2H2PC5HC9HCHC2HC6H2CSHC3H4CFeHCHSC3SHCHCH4CH3CH2CHCHCHC4SCHCHCH3C2HFeCHSHFeH2CH4CPCH4SH4CHCHCH2SFeS2HFeSHSC2HC8H2CHC6H5CSC10H4C6H4CHCHC2HCPC2HC7SHCPSH5CH3C2H5SC3HFeH3C2HCHCH2C4SC2H3C3H3CH3FeSC8H4CHC4HSCHCHC2HCHC6HFeH3CHCSHCH2CH2FeH2CH6C7HCHCHCH3C2H3C2HSHCPH3CHCFeSCSCHCH2CHCFeS2FeSFeSFeS4HCFeS2FeS2HC2SC6H5C2HCHCHCHC7H4C6H4C6H4C6H6CH2C6PC18H6SHFeH8CH2SHCH3CH2C2PC3HCHC2HFeC12H3C3HC4H3CH2C2HC2H3C3H2CHC4H5CH3C3HCH3C5HSHCHCHC4HSHC4H3SH2CH3C2HC3HC6H3SC4PH4C2HPCHCH2C2HC4H2C2PSCHSC2H2CH2SH3C7H3C2PHC4H2CH3CH2C2H2C2FeHFeCHCH2C2SHC2H5FeH2C6H3CHCH3C3H2CHC2HCHSHCHFeS3HFePSFeCHCSHS2FeSHSFeSFeS2FeCFeS2FeS2FeS2FeSHS2C6H7CHC8H2CHC5FeHC8H4C6H4C6H4C2HCH2C5HC10H2C2HC2H2PCH3C3HC3HCH2C2HC6H2CPC2HC2H4C4H4C3H2CH4SCH2C3HCH2C3H2C4HPH4C2SH3CH3CH2C7H2CHCHCHCHC3HPH2C4HC2H3C2SCH2SH2CH3C2H2SCSCHFeHC2HCH2CHC4HC2HC5PH3CHCFeCHC9H2C2HC2H2FeHC2PC3HCFeC2HC2H2CHC2HFeC2H3CHCHC2HC2H2CHC2HCHC2H2C3SC2HCHSHFeC3HC2PCHCH6C3H3CSH6C4H5SCHFeH2C3H2C5SCH2C2HCHCHC2HSC2SC2S2FeSFeS2HC3FeS2C3FeS2FeS2FeSFeS2FeS2FeS2C7H4C2HC3H2C6H4C6H4C4H2C7H3FeC4FeCH2CHC2HCHCH2CHC2H2CHPC3H4PCHC8H2CH2CH9C2HC2HCHC3HCH2CHC2HC4H2C4HC8PC18H20C2PCH6CHCH2C3H2C3H3C4SC3HCHCH3C4SHC2H2C2HCHSCH2SC4HPH3CSHC4HC2HCHFeCH2SC3H2C2H2C3H2C3H4CHCHC3FeHCH2SCH2CFeC3HCH3C2H2SCHC3HPCH3FeH2CHC3HCSC5H2SHC3HCFeP2CH3CHCH6CHFeS2HFeSHSFeHSHS3C2FeS2FeSFe2S4H4S2HFeSC6H4CPC2HSC3FeHCHC6H4C6H4C6H4C6H2CHC2H2CH2C4HC2H2PC7HC10HC2HCHCHCHSH2C2H4CH4SH2CSFeC2HCHCHC6HC2H2C7SC2H5SH3CH4CHC5H2C3PC3HCHC2HPH2CHCFeC2SCHC5SH3C2H5C2HC3PC18HC2H19C2H2FeH2CHC4HCH3C6PC10HC7HSC2HSC2SHC2SH7CHC4H2CH4C2HCHCFeCSCSCSCH2C3PH2CHCHC2H2CH2PH2CSH2FeHC3HC2HC2H2CHC2HFeCH2C3H2CFeC2HCH3CH2C3FeC2HSCSH2CH3CH2S2FeSHC4SFe2SCH2SHSHCSHC3SHCS2CHC2SCH2C6H6CHFeHCH4C7H4C6H3C2PC2H2SHC3H2FeC2HC3HC2FeC2H2C2H2C2H2CHC2HSC8HC4HC3HPCH2C2H2C3H3CHSC2FeH2CHPC6H2C2H3CH6C2FeHPCH2C3H2CH2CH3CHC2H3SHC4HCH2CH3CFeC5H2CH2CHC4H3CHCHC2H6C2HCHCH5C2FeS2FeS3FeS2HFeSCH2CH4C3SH2C2H2C2HC6HCH5C6H6C6H4C6H4C2H3C2H3C8FeH2CHCH2C7HCH2C3PSPH2C8PC2HCHCHC6H3CH3C2HC4HC2H6C2H2PCHC3HSH3SCH2C2H2CFeCHC4SCHCH2CPHPCHC2HCHC4H3CHC2H2C2SHC4HCHC2FeHCH3CHSH3C3H3CHCH2SCFeCSFeS2FeSCSFeS2HSH2FeSHSHFeC2SHC3FeS2FeSFeSFeHS2C6H2C7H4C6H4C6H4C2SCHC6H4C5FeH2CHC2HCH2C4HCPHSC4H4CH6CFeCH3C3HC9HCH5CHC3H4C7PC18H20CH3CHCHCHC3HCHCH2CHCS2H2C2HC6H2CFeHSC3HC6PC2HCFeHCH7C2H3CHCHC3SC5H2C2H2CSH3CH2CPH2CSHC3PCH3CSHC2SC2H5CH4CSHC10HC5HC4HC5HCHPHC2SCH2C4SHC2PC3HCH2CHC2FeC4HC2FeCPCHCH2CH2CSHCH3CHC2HCSH5FeS2FeSFeSCSC2SC2FeS2FeS2FeSFeCS2H2CFeSH2CS2FeS3FeSC6H3C7H5C6H4CHC5H2C6H4C6H6CHC4HC2H3CHCHCSFeH4CH3CH3C10HC2HCHC3HCHCHC2H3CHPC3HCH3CH2C2PH2SH2CHC8H7C3H3CHC2HC3HFeH3C3H2CPSC2HC3HC2HCH2C6SC4HC5H2C3HCH6CHCH4CHCH3PC13SCHC2HC2H9CH6CSH2C5HCH2CH2CHCHPHC2H3FeC2HC2HCSHC2H2CHCH2C2HCHCSPH3C2HCH2C2H3C2HC3HC2HFeHC4HFeCSCS2CPC2SHFeSC2SFeSCHSCFeS2FeS2CHC5H2C8H7FeH6SC6H4C6H4C3H3CHC2HC2H3PHCHC4H2FeCH2C3SHC3HCH3C4H3C4HCHC2HC2HCHC3HC4H5CPHC3HCH4C4HCH3C2H4CHCH2C3HCHC3HCHCH2C3SC4SCH2PH2CH3C2HC3H3CHC2H2C2HC5H2CHCHCH2CHCHC3H5CH3CHCHCHCH3CHC3H5CSHC2SHFeS2FeSCSCHSC2FeCFeCSH2C3S2H5C2PHC4PCHCHC6H4C2HCHC6H3C7H4C3H2C4H2CHCHCHCHC2SHC2HC2HPHCH5C3HC2H4C3HFeH2C3HC4FeH2C3HCHC2H2CHC6SH3CHC7H5SH5CHC2HCH2C3HC11H4CHC6HCH2CH5CHCHCH2C2H2C3HCHCH2C2H3CHCHPHC4HC2H2C3HFeHCSC5HCHSHFeCHPSCHFeC2H3CH2CHC2HC3HSPC2H3C3HC
_chemical_formula_sum              "Fe192 S384 C2880 H2304 P96"
_cell_length_a       113.996
_cell_length_b       33.1949
_cell_length_c       58.4182
_cell_angle_alpha    87.135
_cell_angle_beta     86.852
_cell_angle_gamma    87.849

_space_group_name_H-M_alt    "P 1"
_space_group_IT_number       1

loop_
  _space_group_symop_operation_xyz
  'x, y, z'

loop_
  _atom_site_type_symbol
  _atom_site_label
  _atom_site_symmetry_multiplicity
  _atom_site_fract_x
  _atom_site_fract_y
  _atom_site_fract_z
  _atom_site_occupancy
  Fe  Fe1       1.0  0.21326  0.24736  0.08286  1.0000
  S   S1        1.0  0.21251  0.22798  0.12049  1.0000
  S   S2        1.0  0.20059  0.30140  0.07448  1.0000
  Fe  Fe2       1.0  0.21371  0.16370  0.11023  1.0000
  S   S3        1.0  0.20302  0.10807  0.12145  1.0000
  S   S4        1.0  0.21303  0.18291  0.07289  1.0000
  S   S5        1.0  0.02901  0.04260  0.16378  1.0000
  C   C1        1.0  0.14909  0.19058  0.44568  1.0000
  C   C2        1.0  0.19371  0.28148  0.21161  1.0000
  H   H1        1.0  0.13090  0.12222  0.48261  1.0000
  C   C3        1.0  0.22669  0.98373  0.14666  1.0000
  Fe  Fe3       1.0  0.98759  0.24191  0.11260  1.0000
  S   S6        1.0  0.98667  0.28923  0.13936  1.0000
  S   S7        1.0  0.99652  0.17786  0.11140  1.0000
  Fe  Fe4       1.0  0.98746  0.33604  0.10963  1.0000
  S   S8        1.0  0.99424  0.40032  0.10980  1.0000
  S   S9        1.0  0.98985  0.28891  0.08322  1.0000
  H   H2        1.0  0.22575  0.08168  0.03501  1.0000
  C   C4        1.0  0.09344  0.98154  0.47182  1.0000
  H   H3        1.0  0.22360  0.33270  0.08254  1.0000
  C   C5        1.0  0.20706  0.43036  0.99481  1.0000
  C   C6        1.0  0.98046  0.25571  0.39821  1.0000
  S   S10       1.0  0.17239  0.06604  0.21410  1.0000
  H   H4        1.0  0.02081  0.37049  0.48374  1.0000
  C   C7        1.0  0.10023  0.07005  0.15867  1.0000
  C   C8        1.0  0.14041  0.06973  0.16019  1.0000
  C   C9        1.0  0.09851  0.00270  0.14528  1.0000
  C   C10       1.0  0.04291  0.44349  0.01499  1.0000
  H   H5        1.0  0.10883  0.09454  0.11537  1.0000
  C   C11       1.0  0.13529  0.23359  0.47790  1.0000
  S   S11       1.0  0.14993  0.00386  0.25355  1.0000
  C   C12       1.0  0.18553  0.22686  0.03657  1.0000
  H   H6        1.0  0.07837  0.98134  0.20609  1.0000
  C   C13       1.0  0.00631  0.42646  0.09631  1.0000
  C   C14       1.0  0.01646  0.40651  0.08742  1.0000
  C   C15       1.0  0.03725  0.42393  0.99818  1.0000
  H   H7        1.0  0.08397  0.09977  0.17022  1.0000
  C   C16       1.0  0.12486  0.05721  0.11593  1.0000
  C   C17       1.0  0.22713  0.16300  0.19945  1.0000
  H   H8        1.0  0.01703  0.37388  0.08813  1.0000
  C   C18       1.0  0.01362  0.44243  0.01885  1.0000
  C   C19       1.0  0.20173  0.03222  0.22572  1.0000
  C   C20       1.0  0.20133  0.99024  0.22753  1.0000
  H   H9        1.0  0.16552  0.28509  0.99364  1.0000
  C   C21       1.0  0.01963  0.07932  0.14928  1.0000
  C   C22       1.0  0.01847  0.11886  0.15717  1.0000
  C   C23       1.0  0.01131  0.14907  0.14624  1.0000
  C   C24       1.0  0.00534  0.14057  0.12681  1.0000
  C   C25       1.0  0.00645  0.10098  0.11897  1.0000
  C   C26       1.0  0.01343  0.07056  0.13017  1.0000
  H   H10       1.0  0.02325  0.12633  0.17176  1.0000
  H   H11       1.0  0.01061  0.17917  0.15258  1.0000
  H   H12       1.0  0.00191  0.09380  0.10400  1.0000
  H   H13       1.0  0.01419  0.04056  0.12372  1.0000
  C   C27       1.0  0.19490  0.32612  0.04927  1.0000
  C   C28       1.0  0.19856  0.31538  0.02709  1.0000
  C   C29       1.0  0.19312  0.33370  0.00783  1.0000
  C   C30       1.0  0.18407  0.36353  0.01035  1.0000
  C   C31       1.0  0.18076  0.37556  0.03249  1.0000
  C   C32       1.0  0.18609  0.35678  0.05178  1.0000
  H   H14       1.0  0.20535  0.29215  0.02484  1.0000
  H   H15       1.0  0.14672  0.06075  0.07360  1.0000
  H   H16       1.0  0.17384  0.39842  0.03478  1.0000
  H   H17       1.0  0.18316  0.36545  0.06881  1.0000
  C   C33       1.0  0.18037  0.07770  0.18771  1.0000
  C   C34       1.0  0.18264  0.04910  0.17110  1.0000
  C   C35       1.0  0.18947  0.05904  0.15085  1.0000
  C   C36       1.0  0.19408  0.09770  0.14690  1.0000
  C   C37       1.0  0.19149  0.12668  0.16318  1.0000
  C   C38       1.0  0.18472  0.11666  0.18349  1.0000
  H   H18       1.0  0.17921  0.01925  0.17397  1.0000
  H   H19       1.0  0.19120  0.03651  0.13823  1.0000
  H   H20       1.0  0.19458  0.15693  0.15998  1.0000
  H   H21       1.0  0.18277  0.13926  0.19596  1.0000
  C   C39       1.0  0.21393  0.12650  0.02020  1.0000
  C   C40       1.0  0.21036  0.23391  0.20740  1.0000
  C   C41       1.0  0.14282  0.22572  0.43875  1.0000
  C   C42       1.0  0.09628  0.98291  0.21671  1.0000
  C   C43       1.0  0.13843  0.06787  0.08273  1.0000
  H   H22       1.0  0.02401  0.26603  0.06694  1.0000
  H   H23       1.0  0.19577  0.32410  0.99086  1.0000
  C   C44       1.0  0.17654  0.25321  0.04458  1.0000
  C   C45       1.0  0.00268  0.04696  0.21273  1.0000
  C   C46       1.0  0.01011  0.01422  0.21936  1.0000
  C   C47       1.0  0.02143  0.02073  0.22610  1.0000
  C   C48       1.0  0.02555  0.05983  0.22574  1.0000
  C   C49       1.0  0.01829  0.09256  0.21891  1.0000
  C   C50       1.0  0.00690  0.08624  0.21242  1.0000
  H   H24       1.0  0.98950  0.45227  0.05562  1.0000
  C   C51       1.0  0.19457  0.12889  0.25248  1.0000
  H   H25       1.0  0.14456  0.06860  0.14318  1.0000
  C   C52       1.0  0.21195  0.24702  0.18430  1.0000
  C   C53       1.0  0.22078  0.15057  0.18132  1.0000
  H   H26       1.0  0.98649  0.05910  0.15467  1.0000
  C   C54       1.0  0.98868  0.99462  0.18694  1.0000
  H   H27       1.0  0.98174  0.28481  0.40514  1.0000
  S   S12       1.0  0.15217  0.99224  0.46919  1.0000
  H   H28       1.0  0.20010  0.24302  0.23917  1.0000
  C   C55       1.0  0.03310  0.35197  0.03800  1.0000
  H   H29       1.0  0.00679  0.33789  0.01493  1.0000
  H   H30       1.0  0.21906  0.23450  0.17356  1.0000
  C   C56       1.0  0.98024  0.12104  0.46529  1.0000
  H   H31       1.0  0.19649  0.16645  0.22170  1.0000
  C   C57       1.0  0.21108  0.22250  0.99713  1.0000
  H   H32       1.0  0.97950  0.12037  0.13358  1.0000
  H   H33       1.0  0.16265  0.29564  0.03522  1.0000
  H   H34       1.0  0.03448  0.06459  0.23018  1.0000
  H   H35       1.0  0.02161  0.12277  0.21800  1.0000
  H   H36       1.0  0.00161  0.11206  0.20664  1.0000
  C   C58       1.0  0.21294  0.43621  0.01467  1.0000
  Fe  Fe5       1.0  0.16329  0.00649  0.22343  1.0000
  C   C59       1.0  0.09017  0.01780  0.48197  1.0000
  C   C60       1.0  0.22193  0.01430  0.13207  1.0000
  C   C61       1.0  0.16178  0.10235  0.45429  1.0000
  H   H37       1.0  0.10548  0.09533  0.16216  1.0000
  C   C62       1.0  0.20074  0.15464  0.23688  1.0000
  P   P1        1.0  0.22030  0.19662  0.22000  1.0000
  C   C63       1.0  0.21690  0.09487  0.03577  1.0000
  P   P2        1.0  0.12127  0.03184  0.14342  1.0000
  H   H38       1.0  0.05814  0.47523  0.02321  1.0000
  C   C64       1.0  0.17712  0.06214  0.43468  1.0000
  C   C65       1.0  0.16909  0.05083  0.41916  1.0000
  C   C66       1.0  0.15742  0.06514  0.42114  1.0000
  C   C67       1.0  0.15374  0.09052  0.43874  1.0000
  C   C68       1.0  0.03326  0.31828  0.05338  1.0000
  C   C69       1.0  0.20436  0.27659  0.17485  1.0000
  S   S13       1.0  0.11886  0.98503  0.23139  1.0000
  H   H39       1.0  0.19102  0.08932  0.06738  1.0000
  C   C70       1.0  0.98535  0.20669  0.36957  1.0000
  P   P3        1.0  0.21627  0.47434  0.05546  1.0000
  H   H40       1.0  0.18605  0.04972  0.43376  1.0000
  H   H41       1.0  0.07165  0.04259  0.16210  1.0000
  H   H42       1.0  0.15115  0.05497  0.40957  1.0000
  H   H43       1.0  0.14455  0.09989  0.44062  1.0000
  H   H44       1.0  0.08092  0.98078  0.14612  1.0000
  H   H45       1.0  0.03873  0.44638  0.03193  1.0000
  H   H46       1.0  0.21134  0.39431  0.07744  1.0000
  C   C71       1.0  0.20276  0.14584  0.02193  1.0000
  H   H47       1.0  0.22308  0.31307  0.12634  1.0000
  C   C72       1.0  0.98293  0.42794  0.17334  1.0000
  H   H48       1.0  0.04051  0.31303  0.06452  1.0000
  H   H49       1.0  0.13293  0.11270  0.05719  1.0000
  C   C73       1.0  0.22578  0.12262  0.16621  1.0000
  H   H50       1.0  0.17179  0.02981  0.40607  1.0000
  C   C74       1.0  0.13068  0.09715  0.07350  1.0000
  C   C75       1.0  0.18702  0.21970  0.01308  1.0000
  C   C76       1.0  0.21131  0.98628  0.18981  1.0000
  H   H51       1.0  0.99192  0.99766  0.24971  1.0000
  C   C77       1.0  0.21176  0.02854  0.18821  1.0000
  H   H52       1.0  0.22693  0.15249  0.26255  1.0000
  H   H53       1.0  0.14170  0.02551  0.11081  1.0000
  H   H54       1.0  0.04034  0.37210  0.03754  1.0000
  C   C78       1.0  0.19999  0.11217  0.27181  1.0000
  H   H55       1.0  0.22155  0.23088  0.26521  1.0000
  H   H56       1.0  0.11401  0.12925  0.07823  1.0000
  H   H57       1.0  0.21256  0.02142  0.13291  1.0000
  H   H58       1.0  0.00724  0.98357  0.21911  1.0000
  C   C79       1.0  0.99666  0.46110  0.04366  1.0000
  C   C80       1.0  0.21165  0.42112  0.14011  1.0000
  C   C81       1.0  0.21783  0.14673  0.25981  1.0000
  C   C82       1.0  0.98234  0.08219  0.18842  1.0000
  H   H59       1.0  0.19521  0.09184  0.28375  1.0000
  C   C83       1.0  0.17349  0.08785  0.45216  1.0000
  H   H60       1.0  0.00934  0.46678  0.24929  1.0000
  C   C84       1.0  0.19522  0.29375  0.18843  1.0000
  H   H61       1.0  0.22545  0.06041  0.10555  1.0000
  P   P4        1.0  0.15658  0.13179  0.47820  1.0000
  H   H62       1.0  0.03413  0.41326  0.07280  1.0000
  C   C85       1.0  0.98276  0.00718  0.24920  1.0000
  C   C86       1.0  0.98286  0.08401  0.16431  1.0000
  H   H63       1.0  0.17570  0.25948  0.06264  1.0000
  H   H64       1.0  0.19759  0.04982  0.23919  1.0000
  H   H65       1.0  0.21550  0.04414  0.17305  1.0000
  H   H66       1.0  0.19537  0.40416  0.12674  1.0000
  H   H67       1.0  0.09458  0.00938  0.22661  1.0000
  C   C87       1.0  0.20702  0.05137  0.20619  1.0000
  C   C88       1.0  0.08632  0.00583  0.14946  1.0000
  H   H68       1.0  0.18564  0.12111  0.24927  1.0000
  H   H69       1.0  0.02802  0.29913  0.48253  1.0000
  C   C89       1.0  0.20130  0.25188  0.22112  1.0000
  H   H70       1.0  0.03987  0.05716  0.47772  1.0000
  C   C90       1.0  0.01456  0.29878  0.04060  1.0000
  C   C91       1.0  0.01434  0.33252  0.02530  1.0000
  C   C92       1.0  0.20426  0.39454  0.13055  1.0000
  C   C93       1.0  0.20835  0.35556  0.12571  1.0000
  C   C94       1.0  0.21986  0.34319  0.13030  1.0000
  C   C95       1.0  0.00399  0.43147  0.03361  1.0000
  H   H71       1.0  0.21978  0.41444  0.01943  1.0000
  H   H72       1.0  0.15459  0.17487  0.43304  1.0000
  H   H73       1.0  0.18666  0.29492  0.22220  1.0000
  P   P5        1.0  0.98798  0.03815  0.20442  1.0000
  C   C96       1.0  0.02357  0.35962  0.02394  1.0000
  H   H74       1.0  0.20707  0.08399  0.20464  1.0000
  H   H75       1.0  0.00731  0.27841  0.04185  1.0000
  Fe  Fe6       1.0  0.16940  0.98028  0.48622  1.0000
  P   P6        1.0  0.19920  0.18815  0.00251  1.0000
  C   C97       1.0  0.98707  0.24408  0.37863  1.0000
  C   C98       1.0  0.12909  0.05514  0.16518  1.0000
  C   C99       1.0  0.12427  0.05601  0.18780  1.0000
  C   C100      1.0  0.13061  0.07138  0.20504  1.0000
  C   C101      1.0  0.14185  0.08575  0.19992  1.0000
  C   C102      1.0  0.14674  0.08500  0.17750  1.0000
  H   H76       1.0  0.09666  0.04048  0.48325  1.0000
  C   C103      1.0  0.97944  0.47147  0.24740  1.0000
  C   C104      1.0  0.17083  0.26760  0.00567  1.0000
  C   C105      1.0  0.08109  0.04069  0.15852  1.0000
  H   H77       1.0  0.99045  0.19775  0.35433  1.0000
  H   H78       1.0  0.05467  0.98729  0.45379  1.0000
  P   P7        1.0  0.02278  0.40427  0.00485  1.0000
  C   C106      1.0  0.12002  0.10649  0.08537  1.0000
  C   C107      1.0  0.20867  0.08166  0.05284  1.0000
  C   C108      1.0  0.22039  0.22271  0.01186  1.0000
  H   H79       1.0  0.22089  0.11361  0.15207  1.0000
  H   H80       1.0  0.21589  0.10725  0.29017  1.0000
  C   C109      1.0  0.02612  0.42894  0.07857  1.0000
  H   H81       1.0  0.99349  0.26412  0.37040  1.0000
  H   H82       1.0  0.20827  0.45117  0.14358  1.0000
  H   H83       1.0  0.11578  0.04345  0.19242  1.0000
  H   H84       1.0  0.12695  0.07072  0.22258  1.0000
  H   H85       1.0  0.14692  0.09646  0.21343  1.0000
  C   C110      1.0  0.10557  0.03487  0.14979  1.0000
  H   H86       1.0  0.15559  0.09526  0.17373  1.0000
  H   H87       1.0  0.21196  0.16242  0.17887  1.0000
  C   C111      1.0  0.19434  0.13095  0.03836  1.0000
  C   C112      1.0  0.13554  0.04793  0.10383  1.0000
  C   C113      1.0  0.02398  0.29178  0.05475  1.0000
  H   H88       1.0  0.20265  0.33501  0.11821  1.0000
  H   H89       1.0  0.17975  0.09466  0.46453  1.0000
  H   H90       1.0  0.20559  0.28614  0.15694  1.0000
  C   C114      1.0  0.11711  0.08667  0.10650  1.0000
  H   H91       1.0  0.22052  0.13667  0.00734  1.0000
  C   C115      1.0  0.22054  0.39489  0.07184  1.0000
  H   H92       1.0  0.19156  0.21339  0.04866  1.0000
  C   C116      1.0  0.08804  0.07280  0.16313  1.0000
  C   C117      1.0  0.22885  0.27874  0.98943  1.0000
  H   H93       1.0  0.18934  0.31659  0.18098  1.0000
  H   H94       1.0  0.21107  0.05812  0.06541  1.0000
  C   C118      1.0  0.22731  0.36972  0.13965  1.0000
  C   C119      1.0  0.21164  0.12089  0.27540  1.0000
  C   C120      1.0  0.21233  0.16446  0.24071  1.0000
  C   C121      1.0  0.18492  0.46021  0.09202  1.0000
  C   C122      1.0  0.99111  0.45671  0.24433  1.0000
  C   C123      1.0  0.19735  0.09938  0.05397  1.0000
  H   H95       1.0  0.00447  0.01280  0.16744  1.0000
  C   C124      1.0  0.16922  0.27369  0.02914  1.0000
  C   C125      1.0  0.02558  0.47145  0.07759  1.0000
  H   H96       1.0  0.18551  0.14408  0.03950  1.0000
  C   C126      1.0  0.17970  0.24078  0.99764  1.0000
  C   C127      1.0  0.22749  0.35962  0.07472  1.0000
  H   H97       1.0  0.14339  0.23644  0.42091  1.0000
  H   H98       1.0  0.99305  0.42846  0.23614  1.0000
  C   C128      1.0  0.22325  0.40882  0.14479  1.0000
  H   H99       1.0  0.00218  0.40018  0.03784  1.0000
  H   H100      1.0  0.19380  0.43494  0.06245  1.0000
  H   H101      1.0  0.13107  0.27443  0.44945  1.0000
  C   C129      1.0  0.05392  0.45988  0.01006  1.0000
  H   H102      1.0  0.22081  0.20187  0.02657  1.0000
  C   C130      1.0  0.22539  0.42969  0.06117  1.0000
  H   H103      1.0  0.17858  0.17056  0.46375  1.0000
  C   C131      1.0  0.13590  0.24715  0.45483  1.0000
  H   H104      1.0  0.19442  0.19705  0.48538  1.0000
  C   C132      1.0  0.20968  0.46890  0.02837  1.0000
  H   H105      1.0  0.02711  0.99533  0.23111  1.0000
  C   C133      1.0  0.14834  0.17639  0.46875  1.0000
  C   C134      1.0  0.99782  0.99028  0.17006  1.0000
  H   H106      1.0  0.14630  0.00213  0.36350  1.0000
  H   H107      1.0  0.98821  0.13012  0.47258  1.0000
  H   H108      1.0  0.03337  0.12771  0.48352  1.0000
  C   C135      1.0  0.98096  0.38761  0.16961  1.0000
  C   C136      1.0  0.17788  0.16876  0.48233  1.0000
  C   C137      1.0  0.00582  0.46896  0.09552  1.0000
  C   C138      1.0  0.19436  0.45596  0.07593  1.0000
  H   H109      1.0  0.14958  0.98625  0.32237  1.0000
  H   H110      1.0  0.98408  0.37477  0.15363  1.0000
  H   H111      1.0  0.98764  0.44609  0.16017  1.0000
  H   H112      1.0  0.17721  0.44240  0.09088  1.0000
  H   H113      1.0  0.22821  0.36834  0.18629  1.0000
  C   C139      1.0  0.00036  0.47826  0.25184  1.0000
  C   C140      1.0  0.14155  0.19845  0.48487  1.0000
  H   H114      1.0  0.98046  0.47591  0.19666  1.0000
  H   H115      1.0  0.98038  0.16913  0.43950  1.0000
  C   C141      1.0  0.12629  0.97962  0.14269  1.0000
  C   C142      1.0  0.20436  0.47910  0.07699  1.0000
  H   H116      1.0  0.98266  0.28779  0.48861  1.0000
  Fe  Fe7       1.0  0.21818  0.23708  0.61890  1.0000
  S   S14       1.0  0.21206  0.24096  0.58289  1.0000
  S   S15       1.0  0.21176  0.27430  0.64970  1.0000
  Fe  Fe8       1.0  0.21353  0.17268  0.58402  1.0000
  S   S16       1.0  0.19853  0.13121  0.57650  1.0000
  S   S17       1.0  0.21844  0.16899  0.62103  1.0000
  H   H117      1.0  0.06392  0.42852  0.90128  1.0000
  C   C143      1.0  0.11575  0.37447  0.76759  1.0000
  H   H118      1.0  0.01644  0.31459  0.94204  1.0000
  S   S18       1.0  0.14722  0.43719  0.96106  1.0000
  Fe  Fe9       1.0  0.15941  0.42167  0.70880  1.0000
  P   P8        1.0  0.22284  0.43581  0.64155  1.0000
  S   S19       1.0  0.16558  0.38049  0.67944  1.0000
  Fe  Fe10      1.0  0.15515  0.44531  0.75973  1.0000
  S   S20       1.0  0.15842  0.42325  0.79718  1.0000
  Fe  Fe11      1.0  0.98986  0.17042  0.61187  1.0000
  C   C144      1.0  0.04344  0.07298  0.49137  1.0000
  S   S21       1.0  0.14474  0.41009  0.73595  1.0000
  S   S22       1.0  0.17043  0.45165  0.73343  1.0000
  Fe  Fe12      1.0  0.98972  0.08688  0.58931  1.0000
  H   H119      1.0  0.05552  0.13129  0.54051  1.0000
  S   S23       1.0  0.00014  0.04744  0.56375  1.0000
  H   H120      1.0  0.11530  0.47352  0.78057  1.0000
  S   S24       1.0  0.00346  0.21970  0.61572  1.0000
  S   S25       1.0  0.99407  0.10609  0.62412  1.0000
  H   H121      1.0  0.19750  0.04011  0.66347  1.0000
  C   C145      1.0  0.10470  0.45811  0.68631  1.0000
  Fe  Fe13      1.0  0.02548  0.43463  0.66856  1.0000
  S   S26       1.0  0.03751  0.43385  0.69819  1.0000
  S   S27       1.0  0.01159  0.38575  0.66504  1.0000
  C   C146      1.0  0.00798  0.00118  0.56972  1.0000
  C   C147      1.0  0.08219  0.37024  0.70721  1.0000
  H   H122      1.0  0.03859  0.40705  0.96270  1.0000
  H   H123      1.0  0.17571  0.16437  0.54891  1.0000
  H   H124      1.0  0.10595  0.31289  0.79651  1.0000
  H   H125      1.0  0.12803  0.32901  0.78102  1.0000
  H   H126      1.0  0.20644  0.98503  0.52137  1.0000
  C   C148      1.0  0.00247  0.40589  0.94902  1.0000
  H   H127      1.0  0.01028  0.98806  0.53394  1.0000
  C   C149      1.0  0.98278  0.18038  0.69892  1.0000
  C   C150      1.0  0.00543  0.26582  0.62973  1.0000
  C   C151      1.0  0.99670  0.28352  0.64424  1.0000
  C   C152      1.0  0.99877  0.31996  0.65481  1.0000
  C   C153      1.0  0.00956  0.33952  0.65110  1.0000
  C   C154      1.0  0.01825  0.32183  0.63655  1.0000
  C   C155      1.0  0.01618  0.28540  0.62600  1.0000
  H   H128      1.0  0.98837  0.26914  0.64726  1.0000
  H   H129      1.0  0.99195  0.33317  0.66597  1.0000
  H   H130      1.0  0.02658  0.33619  0.63344  1.0000
  H   H131      1.0  0.02303  0.27223  0.61486  1.0000
  H   H132      1.0  0.20931  0.40444  0.98468  1.0000
  C   C156      1.0  0.05378  0.43812  0.97119  1.0000
  H   H133      1.0  0.17777  0.15546  0.98665  1.0000
  H   H134      1.0  0.99518  0.09032  0.68299  1.0000
  C   C157      1.0  0.99003  0.42314  0.72142  1.0000
  H   H135      1.0  0.16965  0.45268  0.64027  1.0000
  H   H136      1.0  0.98997  0.22540  0.73471  1.0000
  H   H137      1.0  0.01054  0.13579  0.66611  1.0000
  C   C158      1.0  0.00292  0.14810  0.67563  1.0000
  C   C159      1.0  0.01118  0.13548  0.52779  1.0000
  C   C160      1.0  0.15784  0.43592  0.86677  1.0000
  C   C161      1.0  0.15937  0.42079  0.84452  1.0000
  C   C162      1.0  0.15571  0.44354  0.82499  1.0000
  H   H138      1.0  0.16062  0.41778  0.88149  1.0000
  H   H139      1.0  0.16350  0.39125  0.84243  1.0000
  C   C163      1.0  0.19508  0.09960  0.55405  1.0000
  C   C164      1.0  0.20159  0.09891  0.53304  1.0000
  C   C165      1.0  0.19790  0.07578  0.51523  1.0000
  C   C166      1.0  0.18778  0.05254  0.51822  1.0000
  C   C167      1.0  0.18151  0.05215  0.53950  1.0000
  C   C168      1.0  0.18507  0.07583  0.55715  1.0000
  H   H140      1.0  0.20926  0.11709  0.53028  1.0000
  H   H141      1.0  0.15987  0.13737  0.52780  1.0000
  H   H142      1.0  0.17378  0.03423  0.54224  1.0000
  H   H143      1.0  0.17996  0.07608  0.57330  1.0000
  C   C169      1.0  0.19883  0.30397  0.65739  1.0000
  C   C170      1.0  0.18963  0.31134  0.64267  1.0000
  C   C171      1.0  0.17960  0.33494  0.64971  1.0000
  C   C172      1.0  0.17863  0.35178  0.67145  1.0000
  C   C173      1.0  0.18790  0.34484  0.68605  1.0000
  C   C174      1.0  0.19790  0.32111  0.67906  1.0000
  H   H144      1.0  0.19019  0.29860  0.62595  1.0000
  H   H145      1.0  0.17251  0.33999  0.63823  1.0000
  H   H146      1.0  0.18733  0.35737  0.70283  1.0000
  H   H147      1.0  0.20494  0.31575  0.69063  1.0000
  S   S28       1.0  0.98670  0.15112  0.57624  1.0000
  H   H148      1.0  0.08906  0.38024  0.77091  1.0000
  H   H149      1.0  0.00172  0.38746  0.50405  1.0000
  S   S29       1.0  0.18325  0.02585  0.49454  1.0000
  H   H150      1.0  0.04092  0.98214  0.58410  1.0000
  H   H151      1.0  0.99368  0.41292  0.70505  1.0000
  H   H152      1.0  0.99145  0.13765  0.97436  1.0000
  C   C175      1.0  0.01562  0.34671  0.49208  1.0000
  H   H153      1.0  0.99952  0.16910  0.50585  1.0000
  C   C176      1.0  0.18357  0.42810  0.89588  1.0000
  H   H154      1.0  0.04096  0.01432  0.54527  1.0000
  H   H155      1.0  0.16188  0.06505  0.51051  1.0000
  H   H156      1.0  0.13304  0.43329  0.63333  1.0000
  C   C177      1.0  0.20528  0.37373  0.58407  1.0000
  C   C178      1.0  0.11234  0.41552  0.76744  1.0000
  C   C179      1.0  0.98339  0.15101  0.96788  1.0000
  C   C180      1.0  0.13504  0.10032  0.49419  1.0000
  H   H157      1.0  0.00952  0.22826  0.56572  1.0000
  H   H158      1.0  0.07637  0.05241  0.49894  1.0000
  H   H159      1.0  0.02592  0.33403  0.97668  1.0000
  C   C181      1.0  0.05220  0.11510  0.52669  1.0000
  C   C182      1.0  0.10647  0.29276  0.76172  1.0000
  H   H160      1.0  0.18906  0.11566  0.91992  1.0000
  C   C183      1.0  0.00336  0.20310  0.53514  1.0000
  H   H161      1.0  0.20734  0.10551  0.65726  1.0000
  C   C184      1.0  0.04778  0.39695  0.90747  1.0000
  C   C185      1.0  0.08315  0.46339  0.68414  1.0000
  C   C186      1.0  0.99286  0.29057  0.56767  1.0000
  C   C187      1.0  0.18795  0.39975  0.88043  1.0000
  H   H162      1.0  0.00795  0.20965  0.66932  1.0000
  C   C188      1.0  0.21387  0.36105  0.52506  1.0000
  H   H163      1.0  0.99258  0.32373  0.59847  1.0000
  C   C189      1.0  0.99431  0.12252  0.68525  1.0000
  C   C190      1.0  0.21249  0.07736  0.65715  1.0000
  H   H164      1.0  0.02051  0.44131  0.91333  1.0000
  H   H165      1.0  0.06562  0.40018  0.71605  1.0000
  H   H166      1.0  0.21929  0.35279  0.65796  1.0000
  H   H167      1.0  0.19643  0.46318  0.83564  1.0000
  H   H168      1.0  0.19192  0.42112  0.58679  1.0000
  H   H169      1.0  0.22295  0.04533  0.53565  1.0000
  H   H170      1.0  0.09876  0.18808  0.79039  1.0000
  H   H171      1.0  0.12826  0.27968  0.73748  1.0000
  C   C191      1.0  0.19256  0.41259  0.85874  1.0000
  Fe  Fe14      1.0  0.16454  0.43840  0.97848  1.0000
  H   H172      1.0  0.14552  0.33191  0.67668  1.0000
  H   H173      1.0  0.01580  0.43685  0.81757  1.0000
  C   C192      1.0  0.22137  0.42872  0.52423  1.0000
  H   H174      1.0  0.18827  0.98870  0.58950  1.0000
  P   P9        1.0  0.05569  0.00085  0.50315  1.0000
  C   C193      1.0  0.08726  0.37751  0.75306  1.0000
  C   C194      1.0  0.21678  0.98496  0.56859  1.0000
  H   H175      1.0  0.21993  0.33078  0.58505  1.0000
  P   P10       1.0  0.10966  0.34138  0.74812  1.0000
  C   C195      1.0  0.21064  0.25132  0.97872  1.0000
  P   P11       1.0  0.99364  0.24584  0.52822  1.0000
  C   C196      1.0  0.98415  0.98212  0.71515  1.0000
  C   C197      1.0  0.12865  0.30364  0.72425  1.0000
  C   C198      1.0  0.00487  0.35628  0.50355  1.0000
  C   C199      1.0  0.01736  0.13499  0.54781  1.0000
  H   H176      1.0  0.19379  0.42967  0.50413  1.0000
  H   H177      1.0  0.19582  0.04494  0.61035  1.0000
  C   C200      1.0  0.03556  0.40076  0.91078  1.0000
  C   C201      1.0  0.20481  0.16051  0.95884  1.0000
  C   C202      1.0  0.20144  0.43717  0.66713  1.0000
  C   C203      1.0  0.99824  0.44927  0.80659  1.0000
  H   H178      1.0  0.01633  0.24487  0.50167  1.0000
  C   C204      1.0  0.98467  0.27898  0.75208  1.0000
  C   C205      1.0  0.12804  0.07272  0.50702  1.0000
  H   H179      1.0  0.99017  0.23843  0.68922  1.0000
  C   C206      1.0  0.21353  0.03704  0.59629  1.0000
  H   H180      1.0  0.09937  0.34255  0.70281  1.0000
  H   H181      1.0  0.12782  0.02110  0.53093  1.0000
  C   C207      1.0  0.07032  0.99443  0.48989  1.0000
  C   C208      1.0  0.17622  0.16594  0.53029  1.0000
  C   C209      1.0  0.98784  0.30364  0.58850  1.0000
  H   H182      1.0  0.99584  0.42574  0.94142  1.0000
  C   C210      1.0  0.14018  0.45380  0.63382  1.0000
  C   C211      1.0  0.07389  0.38822  0.72233  1.0000
  H   H183      1.0  0.11647  0.39594  0.70977  1.0000
  C   C212      1.0  0.01968  0.30650  0.49143  1.0000
  C   C213      1.0  0.15273  0.47441  0.86993  1.0000
  C   C214      1.0  0.98796  0.47377  0.80895  1.0000
  C   C215      1.0  0.04276  0.42145  0.97614  1.0000
  H   H184      1.0  0.10139  0.24621  0.81452  1.0000
  C   C216      1.0  0.10467  0.26002  0.74816  1.0000
  H   H185      1.0  0.06214  0.06058  0.53502  1.0000
  C   C217      1.0  0.13088  0.36696  0.69103  1.0000
  H   H186      1.0  0.13206  0.39223  0.67876  1.0000
  H   H187      1.0  0.99047  0.00330  0.72000  1.0000
  C   C218      1.0  0.98193  0.97922  0.69202  1.0000
  C   C219      1.0  0.20231  0.14244  0.93861  1.0000
  C   C220      1.0  0.18600  0.18263  0.51848  1.0000
  H   H188      1.0  0.02144  0.16832  0.57694  1.0000
  C   C221      1.0  0.21585  0.41085  0.61944  1.0000
  C   C222      1.0  0.13853  0.33315  0.68999  1.0000
  H   H189      1.0  0.03042  0.37401  0.91333  1.0000
  C   C223      1.0  0.10506  0.28773  0.78571  1.0000
  C   C224      1.0  0.12203  0.36894  0.70854  1.0000
  H   H190      1.0  0.02222  0.10786  0.55336  1.0000
  C   C225      1.0  0.15168  0.43848  0.63588  1.0000
  H   H191      1.0  0.14948  0.01655  0.53314  1.0000
  H   H192      1.0  0.10535  0.26370  0.72960  1.0000
  H   H193      1.0  0.10067  0.19713  0.74793  1.0000
  H   H194      1.0  0.14112  0.18847  0.50284  1.0000
  H   H195      1.0  0.19302  0.19368  0.52802  1.0000
  C   C226      1.0  0.07864  0.02437  0.49090  1.0000
  C   C227      1.0  0.09436  0.45130  0.67492  1.0000
  C   C228      1.0  0.00560  0.36907  0.93937  1.0000
  H   H196      1.0  0.20108  0.35874  0.57082  1.0000
  C   C229      1.0  0.19747  0.99584  0.58738  1.0000
  C   C230      1.0  0.16734  0.15008  0.51820  1.0000
  C   C231      1.0  0.16822  0.15061  0.49410  1.0000
  C   C232      1.0  0.13322  0.04301  0.52136  1.0000
  C   C233      1.0  0.05594  0.07506  0.52351  1.0000
  C   C234      1.0  0.98373  0.18558  0.95320  1.0000
  C   C235      1.0  0.01689  0.16890  0.56109  1.0000
  H   H197      1.0  0.14373  0.27629  0.70631  1.0000
  C   C236      1.0  0.12064  0.33684  0.72488  1.0000
  C   C237      1.0  0.01304  0.27583  0.50237  1.0000
  C   C238      1.0  0.00432  0.16956  0.52129  1.0000
  H   H198      1.0  0.21513  0.32886  0.52877  1.0000
  S   S30       1.0  0.17677  0.38253  0.98545  1.0000
  H   H199      1.0  0.00353  0.46608  0.72444  1.0000
  C   C239      1.0  0.22118  0.37640  0.60971  1.0000
  H   H200      1.0  0.19577  0.39060  0.84659  1.0000
  C   C240      1.0  0.03972  0.11306  0.49460  1.0000
  C   C241      1.0  0.09578  0.36047  0.73780  1.0000
  H   H201      1.0  0.18511  0.43727  0.68753  1.0000
  C   C242      1.0  0.15243  0.06808  0.50991  1.0000
  H   H202      1.0  0.19646  0.35607  0.51323  1.0000
  C   C243      1.0  0.99559  0.45310  0.73230  1.0000
  H   H203      1.0  0.20141  0.45489  0.61732  1.0000
  C   C244      1.0  0.10236  0.25000  0.79599  1.0000
  C   C245      1.0  0.11771  0.44160  0.78140  1.0000
  C   C246      1.0  0.98224  0.23230  0.50987  1.0000
  C   C247      1.0  0.98696  0.26362  0.55489  1.0000
  H   H204      1.0  0.13719  0.37519  0.80612  1.0000
  C   C248      1.0  0.18681  0.18421  0.49450  1.0000
  H   H205      1.0  0.13087  0.44722  0.80604  1.0000
  C   C249      1.0  0.13006  0.38614  0.79566  1.0000
  C   C250      1.0  0.09309  0.35628  0.71488  1.0000
  H   H206      1.0  0.99898  0.42597  0.79420  1.0000
  H   H207      1.0  0.99208  0.19887  0.94822  1.0000
  H   H208      1.0  0.18758  0.36783  0.88514  1.0000
  C   C251      1.0  0.21365  0.00432  0.66041  1.0000
  C   C252      1.0  0.10086  0.21728  0.78240  1.0000
  C   C253      1.0  0.00144  0.18978  0.67744  1.0000
  C   C254      1.0  0.20546  0.42760  0.61055  1.0000
  C   C255      1.0  0.14542  0.04054  0.52270  1.0000
  C   C256      1.0  0.12482  0.36008  0.78149  1.0000
  H   H209      1.0  0.19922  0.41115  0.65797  1.0000
  C   C257      1.0  0.99136  0.20595  0.68879  1.0000
  C   C258      1.0  0.22108  0.01566  0.58121  1.0000
  C   C259      1.0  0.22471  0.07796  0.65393  1.0000
  C   C260      1.0  0.07641  0.39175  0.74527  1.0000
  C   C261      1.0  0.13748  0.30168  0.70669  1.0000
  C   C262      1.0  0.21088  0.44383  0.51495  1.0000
  H   H210      1.0  0.06998  0.40600  0.75688  1.0000
  C   C263      1.0  0.01940  0.35434  0.96903  1.0000
  C   C264      1.0  0.20172  0.02731  0.59927  1.0000
  C   C265      1.0  0.22283  0.38704  0.52901  1.0000
  H   H211      1.0  0.10586  0.42794  0.75592  1.0000
  H   H212      1.0  0.22905  0.10647  0.65172  1.0000
  S   S31       1.0  0.03889  0.46464  0.64376  1.0000
  H   H213      1.0  0.00140  0.36040  0.92426  1.0000
  C   C266      1.0  0.20696  0.04053  0.66055  1.0000
  C   C267      1.0  0.21223  0.45581  0.66245  1.0000
  C   C268      1.0  0.02997  0.43903  0.91072  1.0000
  C   C269      1.0  0.10196  0.22235  0.75849  1.0000
  C   C270      1.0  0.20337  0.37639  0.51626  1.0000
  C   C271      1.0  0.98425  0.13858  0.69673  1.0000
  C   C272      1.0  0.10401  0.47668  0.70738  1.0000
  H   H214      1.0  0.20335  0.25261  0.96755  1.0000
  C   C273      1.0  0.19347  0.45153  0.68412  1.0000
  C   C274      1.0  0.18464  0.15246  0.97321  1.0000
  H   H215      1.0  0.17974  0.41822  0.91253  1.0000
  Fe  Fe15      1.0  0.13672  0.47023  0.72389  1.0000
  C   C275      1.0  0.19098  0.12962  0.93561  1.0000
  C   C276      1.0  0.12652  0.42688  0.79559  1.0000
  H   H216      1.0  0.19324  0.45181  0.97327  1.0000
  C   C277      1.0  0.99821  0.32569  0.51450  1.0000
  C   C278      1.0  0.00774  0.41688  0.96876  1.0000
  Fe  Fe16      1.0  0.05045  0.46760  0.67427  1.0000
  C   C279      1.0  0.18216  0.13446  0.95295  1.0000
  H   H217      1.0  0.00724  0.00513  0.60642  1.0000
  C   C280      1.0  0.19284  0.45381  0.85254  1.0000
  H   H218      1.0  0.01137  0.10869  0.51789  1.0000
  H   H219      1.0  0.00149  0.30080  0.56192  1.0000
  C   C281      1.0  0.20012  0.40877  0.59312  1.0000
  C   C282      1.0  0.01000  0.20292  0.55472  1.0000
  H   H220      1.0  0.05211  0.36729  0.90754  1.0000
  H   H221      1.0  0.08026  0.36831  0.68933  1.0000
  H   H222      1.0  0.17341  0.12410  0.95073  1.0000
  H   H223      1.0  0.98987  0.33357  0.52325  1.0000
  C   C283      1.0  0.01407  0.34330  0.94937  1.0000
  C   C284      1.0  0.21587  0.35781  0.59219  1.0000
  C   C285      1.0  0.03662  0.47382  0.90741  1.0000
  C   C286      1.0  0.01040  0.98757  0.59208  1.0000
  C   C287      1.0  0.05444  0.43141  0.90395  1.0000
  C   C288      1.0  0.00233  0.28528  0.51425  1.0000
  H   H224      1.0  0.21905  0.30168  0.96080  1.0000
  H   H225      1.0  0.97934  0.40506  0.83016  1.0000
  H   H226      1.0  0.05801  0.43633  0.95421  1.0000
  C   C289      1.0  0.22591  0.00471  0.65629  1.0000
  H   H227      1.0  0.99321  0.28201  0.75901  1.0000
  C   C290      1.0  0.04735  0.99017  0.54886  1.0000
  H   H228      1.0  0.11861  0.07365  0.50549  1.0000
  H   H229      1.0  0.06783  0.47074  0.98432  1.0000
  C   C291      1.0  0.20188  0.41779  0.51116  1.0000
  C   C292      1.0  0.04889  0.46970  0.90385  1.0000
  H   H230      1.0  0.09503  0.43631  0.65886  1.0000
  C   C293      1.0  0.99102  0.46616  0.75346  1.0000
  H   H231      1.0  0.04103  0.16488  0.51503  1.0000
  C   C294      1.0  0.04405  0.13404  0.51232  1.0000
  H   H232      1.0  0.18107  0.23773  0.97932  1.0000
  H   H233      1.0  0.21369  0.16960  0.96106  1.0000
  H   H234      1.0  0.21675  0.06197  0.60519  1.0000
  H   H235      1.0  0.20285  0.07630  0.49889  1.0000
  H   H236      1.0  0.15347  0.40614  0.63705  1.0000
  H   H237      1.0  0.11320  0.44882  0.67883  1.0000
  C   C295      1.0  0.01620  0.39109  0.97895  1.0000
  C   C296      1.0  0.19590  0.16651  0.97603  1.0000
  S   S32       1.0  0.07035  0.45161  0.66951  1.0000
  C   C297      1.0  0.21950  0.27930  0.97490  1.0000
  C   C298      1.0  0.22766  0.36151  0.66366  1.0000
  C   C299      1.0  0.14729  0.09873  0.49598  1.0000
  C   C300      1.0  0.18366  0.46929  0.88959  1.0000
  C   C301      1.0  0.05148  0.05351  0.50600  1.0000
  H   H238      1.0  0.20920  0.13820  0.92532  1.0000
  C   C302      1.0  0.16084  0.46482  0.63752  1.0000
  C   C303      1.0  0.00778  0.45506  0.81998  1.0000
  H   H239      1.0  0.00507  0.44519  0.97619  1.0000
  H   H240      1.0  0.21160  0.47191  0.55899  1.0000
  C   C304      1.0  0.98091  0.44911  0.76412  1.0000
  C   C305      1.0  0.98283  0.24711  0.73806  1.0000
  H   H241      1.0  0.98641  0.99837  0.67900  1.0000
  C   C306      1.0  0.19793  0.45702  0.98840  1.0000
  H   H242      1.0  0.20968  0.47581  0.51068  1.0000
  C   C307      1.0  0.97982  0.40646  0.73168  1.0000
  H   H243      1.0  0.13004  0.25042  0.49043  1.0000
  C   C308      1.0  0.05935  0.45742  0.98814  1.0000
  H   H244      1.0  0.19112  0.95585  0.17526  1.0000
  C   C309      1.0  0.04832  0.90881  0.30992  1.0000
  Fe  Fe17      1.0  0.03637  0.88318  0.16096  1.0000
  S   S33       1.0  0.04714  0.86888  0.19177  1.0000
  S   S34       1.0  0.02893  0.82949  0.14336  1.0000
  Fe  Fe18      1.0  0.03524  0.91372  0.21005  1.0000
  S   S35       1.0  0.02831  0.91183  0.24760  1.0000
  Fe  Fe19      1.0  0.05784  0.92201  0.17888  1.0000
  S   S36       1.0  0.07787  0.91083  0.17733  1.0000
  S   S37       1.0  0.02361  0.92505  0.18051  1.0000
  S   S38       1.0  0.04758  0.93464  0.14694  1.0000
  H   H245      1.0  0.99122  0.81334  0.19406  1.0000
  C   C310      1.0  0.03062  0.65361  0.47544  1.0000
  H   H246      1.0  0.10095  0.49119  0.03066  1.0000
  Fe  Fe20      1.0  0.04261  0.65166  0.04597  1.0000
  S   S39       1.0  0.04512  0.65228  0.00721  1.0000
  S   S40       1.0  0.04559  0.71279  0.06183  1.0000
  Fe  Fe21      1.0  0.03948  0.55938  0.04870  1.0000
  S   S41       1.0  0.04187  0.55508  0.01046  1.0000
  H   H247      1.0  0.00599  0.86476  0.19834  1.0000
  Fe  Fe22      1.0  0.05694  0.59653  0.01245  1.0000
  C   C311      1.0  0.00361  0.93425  0.35284  1.0000
  H   H248      1.0  0.13068  0.90293  0.10603  1.0000
  S   S42       1.0  0.05531  0.59809  0.05080  1.0000
  S   S43       1.0  0.02668  0.61277  0.04683  1.0000
  Fe  Fe23      1.0  0.20837  0.67749  0.08608  1.0000
  S   S44       1.0  0.21451  0.66876  0.12212  1.0000
  S   S45       1.0  0.19464  0.63191  0.07846  1.0000
  Fe  Fe24      1.0  0.21385  0.73654  0.12311  1.0000
  S   S46       1.0  0.20898  0.77049  0.15569  1.0000
  S   S47       1.0  0.20626  0.74523  0.08844  1.0000
  S   S48       1.0  0.17599  0.93711  0.45923  1.0000
  H   H249      1.0  0.04042  0.95297  0.43182  1.0000
  S   S49       1.0  0.15040  0.89425  0.46518  1.0000
  C   C312      1.0  0.16037  0.93295  0.32920  1.0000
  C   C313      1.0  0.12270  0.86726  0.32020  1.0000
  H   H250      1.0  0.99122  0.88310  0.39933  1.0000
  C   C314      1.0  0.05203  0.85147  0.38028  1.0000
  C   C315      1.0  0.16535  0.90832  0.34680  1.0000
  S   S50       1.0  0.99550  0.72341  0.41133  1.0000
  H   H251      1.0  0.10226  0.88910  0.18070  1.0000
  S   S51       1.0  0.14654  0.90940  0.24227  1.0000
  C   C316      1.0  0.07371  0.95805  0.47968  1.0000
  Fe  Fe25      1.0  0.15988  0.91859  0.21270  1.0000
  S   S52       1.0  0.16232  0.87239  0.18484  1.0000
  C   C317      1.0  0.01627  0.79844  0.45898  1.0000
  C   C318      1.0  0.00755  0.81704  0.44549  1.0000
  C   C319      1.0  0.00116  0.79451  0.43086  1.0000
  C   C320      1.0  0.00351  0.75307  0.42928  1.0000
  C   C321      1.0  0.01225  0.73442  0.44272  1.0000
  C   C322      1.0  0.01862  0.75695  0.45743  1.0000
  H   H252      1.0  0.00559  0.84905  0.44658  1.0000
  H   H253      1.0  0.99434  0.80913  0.42093  1.0000
  H   H254      1.0  0.01410  0.70237  0.44169  1.0000
  H   H255      1.0  0.02534  0.74229  0.46759  1.0000
  H   H256      1.0  0.03968  0.86396  0.44279  1.0000
  C   C323      1.0  0.10763  0.96458  0.21581  1.0000
  C   C324      1.0  0.11176  0.75200  0.26979  1.0000
  S   S53       1.0  0.07440  0.59046  0.99082  1.0000
  H   H257      1.0  0.05570  0.84617  0.36317  1.0000
  C   C325      1.0  0.19592  0.79896  0.16319  1.0000
  C   C326      1.0  0.18635  0.80242  0.14912  1.0000
  C   C327      1.0  0.17613  0.82491  0.15604  1.0000
  C   C328      1.0  0.17545  0.84493  0.17679  1.0000
  C   C329      1.0  0.18506  0.84189  0.19069  1.0000
  C   C330      1.0  0.19515  0.81854  0.18407  1.0000
  H   H258      1.0  0.18679  0.78744  0.13306  1.0000
  H   H259      1.0  0.16873  0.82703  0.14518  1.0000
  H   H260      1.0  0.18463  0.85679  0.20679  1.0000
  H   H261      1.0  0.20235  0.81542  0.19536  1.0000
  C   C331      1.0  0.18114  0.59578  0.00957  1.0000
  C   C332      1.0  0.18941  0.62613  0.00998  1.0000
  C   C333      1.0  0.19397  0.63659  0.03078  1.0000
  C   C334      1.0  0.19019  0.61708  0.05151  1.0000
  C   C335      1.0  0.18201  0.58642  0.05108  1.0000
  C   C336      1.0  0.17750  0.57581  0.03027  1.0000
  C   C337      1.0  0.04506  0.97771  0.48655  1.0000
  H   H262      1.0  0.20023  0.66029  0.03083  1.0000
  H   H263      1.0  0.17906  0.57107  0.06698  1.0000
  C   C338      1.0  0.11620  0.84695  0.30499  1.0000
  Fe  Fe26      1.0  0.15849  0.94381  0.26338  1.0000
  C   C339      1.0  0.98985  0.83481  0.20742  1.0000
  C   C340      1.0  0.08917  0.53406  0.01361  1.0000
  H   H264      1.0  0.06763  0.93371  0.47950  1.0000
  C   C341      1.0  0.08705  0.96706  0.20510  1.0000
  C   C342      1.0  0.22433  0.55882  0.13616  1.0000
  C   C343      1.0  0.99020  0.92682  0.15989  1.0000
  C   C344      1.0  0.03398  0.79695  0.12096  1.0000
  C   C345      1.0  0.02782  0.76173  0.11783  1.0000
  C   C346      1.0  0.03125  0.73550  0.10008  1.0000
  C   C347      1.0  0.04088  0.74425  0.08496  1.0000
  C   C348      1.0  0.04708  0.77935  0.08815  1.0000
  C   C349      1.0  0.04368  0.80547  0.10596  1.0000
  H   H265      1.0  0.02028  0.75476  0.12918  1.0000
  H   H266      1.0  0.02635  0.70883  0.09792  1.0000
  H   H267      1.0  0.05455  0.78656  0.07665  1.0000
  H   H268      1.0  0.04849  0.83245  0.10792  1.0000
  C   C350      1.0  0.01940  0.87456  0.26181  1.0000
  C   C351      1.0  0.01731  0.83832  0.25180  1.0000
  C   C352      1.0  0.01006  0.80972  0.26354  1.0000
  C   C353      1.0  0.00488  0.81683  0.28544  1.0000
  C   C354      1.0  0.00709  0.85290  0.29561  1.0000
  C   C355      1.0  0.01431  0.88159  0.28381  1.0000
  H   H269      1.0  0.02120  0.83243  0.23493  1.0000
  H   H270      1.0  0.00841  0.78195  0.25552  1.0000
  H   H271      1.0  0.00325  0.85869  0.31250  1.0000
  H   H272      1.0  0.01598  0.90938  0.29177  1.0000
  C   C356      1.0  0.08910  0.93275  0.19227  1.0000
  C   C357      1.0  0.21715  0.57848  0.37667  1.0000
  H   H273      1.0  0.10576  0.74193  0.11141  1.0000
  H   H274      1.0  0.17110  0.66812  0.05382  1.0000
  C   C358      1.0  0.10968  0.93049  0.20288  1.0000
  C   C359      1.0  0.10052  0.91513  0.19091  1.0000
  S   S54       1.0  0.98143  0.71830  0.35033  1.0000
  C   C360      1.0  0.22463  0.91331  0.18066  1.0000
  H   H275      1.0  0.11829  0.91581  0.20226  1.0000
  H   H276      1.0  0.98548  0.91146  0.25541  1.0000
  H   H277      1.0  0.99806  0.48472  0.10248  1.0000
  Fe  Fe27      1.0  0.16762  0.88942  0.48294  1.0000
  H   H278      1.0  0.09786  0.91811  0.26857  1.0000
  H   H279      1.0  0.14158  0.75323  0.05178  1.0000
  H   H280      1.0  0.98464  0.55739  0.27439  1.0000
  C   C361      1.0  0.22363  0.55100  0.03947  1.0000
  C   C362      1.0  0.13341  0.82192  0.19824  1.0000
  H   H281      1.0  0.04221  0.82722  0.28034  1.0000
  C   C363      1.0  0.12131  0.82556  0.19543  1.0000
  H   H282      1.0  0.21153  0.59983  0.15179  1.0000
  H   H283      1.0  0.98708  0.94103  0.37246  1.0000
  C   C364      1.0  0.00958  0.71423  0.99165  1.0000
  H   H284      1.0  0.06912  0.85152  0.39442  1.0000
  C   C365      1.0  0.11769  0.83010  0.23667  1.0000
  C   C366      1.0  0.09109  0.74245  0.29736  1.0000
  H   H285      1.0  0.98411  0.89109  0.32872  1.0000
  H   H286      1.0  0.20099  0.89047  0.10179  1.0000
  S   S55       1.0  0.16296  0.91942  0.29985  1.0000
  C   C367      1.0  0.99849  0.95675  0.15643  1.0000
  H   H287      1.0  0.11984  0.75508  0.25934  1.0000
  H   H288      1.0  0.18741  0.50978  0.99704  1.0000
  H   H289      1.0  0.17545  0.93037  0.15340  1.0000
  C   C368      1.0  0.20522  0.93873  0.15073  1.0000
  H   H290      1.0  0.21521  0.54407  0.40882  1.0000
  C   C369      1.0  0.20606  0.96731  0.20964  1.0000
  H   H291      1.0  0.20580  0.55176  0.18370  1.0000
  Fe  Fe28      1.0  0.03551  0.97561  0.16861  1.0000
  H   H292      1.0  0.15046  0.60810  0.99005  1.0000
  H   H293      1.0  0.18025  0.89696  0.11690  1.0000
  H   H294      1.0  0.11927  0.88926  0.47714  1.0000
  C   C370      1.0  0.21565  0.56995  0.15270  1.0000
  C   C371      1.0  0.15085  0.74581  0.04910  1.0000
  H   H295      1.0  0.04318  0.91756  0.34529  1.0000
  C   C372      1.0  0.98065  0.62678  0.48528  1.0000
  C   C373      1.0  0.04800  0.88352  0.29158  1.0000
  H   H296      1.0  0.16275  0.76408  0.46675  1.0000
  C   C374      1.0  0.15396  0.77352  0.47280  1.0000
  H   H297      1.0  0.10602  0.73154  0.06954  1.0000
  C   C375      1.0  0.12812  0.90309  0.31295  1.0000
  S   S56       1.0  0.98786  0.80888  0.36467  1.0000
  S   S57       1.0  0.12309  0.48972  0.00443  1.0000
  C   C376      1.0  0.16355  0.91737  0.37022  1.0000
  H   H298      1.0  0.13181  0.57164  0.99507  1.0000
  H   H299      1.0  0.06906  0.84539  0.22685  1.0000
  H   H300      1.0  0.09581  0.59962  0.03816  1.0000
  S   S58       1.0  0.02382  0.82864  0.47742  1.0000
  C   C377      1.0  0.04311  0.86142  0.42523  1.0000
  C   C378      1.0  0.13056  0.91874  0.12181  1.0000
  H   H301      1.0  0.12292  0.97341  0.10692  1.0000
  C   C379      1.0  0.13511  0.80602  0.46547  1.0000
  H   H302      1.0  0.11961  0.57543  0.03110  1.0000
  H   H303      1.0  0.22297  0.83759  0.09853  1.0000
  C   C380      1.0  0.22117  0.87368  0.17822  1.0000
  H   H304      1.0  0.13843  0.86859  0.14121  1.0000
  H   H305      1.0  0.06116  0.86009  0.43436  1.0000
  H   H306      1.0  0.17069  0.88198  0.34227  1.0000
  C   C381      1.0  0.22474  0.58891  0.35789  1.0000
  H   H307      1.0  0.20197  0.88316  0.48075  1.0000
  H   H308      1.0  0.08818  0.65409  0.01200  1.0000
  C   C382      1.0  0.15835  0.77597  0.04032  1.0000
  S   S59       1.0  0.17260  0.94804  0.23434  1.0000
  H   H309      1.0  0.11487  0.68816  0.27643  1.0000
  H   H310      1.0  0.98284  0.85783  0.29208  1.0000
  Fe  Fe29      1.0  0.13873  0.96969  0.23084  1.0000
  H   H311      1.0  0.12341  0.69968  0.04990  1.0000
  H   H312      1.0  0.00306  0.91372  0.22889  1.0000
  Fe  Fe30      1.0  0.22521  0.74664  0.07464  1.0000
  H   H313      1.0  0.16749  0.89805  0.38337  1.0000
  C   C383      1.0  0.02516  0.72917  0.38311  1.0000
  C   C384      1.0  0.01710  0.71708  0.36786  1.0000
  C   C385      1.0  0.01314  0.74425  0.35074  1.0000
  C   C386      1.0  0.01703  0.78372  0.34911  1.0000
  C   C387      1.0  0.02530  0.79600  0.36405  1.0000
  C   C388      1.0  0.02931  0.76838  0.38118  1.0000
  P   P12       1.0  0.02994  0.84760  0.36204  1.0000
  C   C389      1.0  0.01667  0.87890  0.36569  1.0000
  C   C390      1.0  0.03979  0.85458  0.38480  1.0000
  C   C391      1.0  0.03541  0.85946  0.40752  1.0000
  C   C392      1.0  0.21781  0.50437  0.17220  1.0000
  C   C393      1.0  0.16744  0.69815  0.05023  1.0000
  C   C394      1.0  0.12338  0.70340  0.06824  1.0000
  P   P13       1.0  0.21703  0.95572  0.16675  1.0000
  C   C395      1.0  0.00826  0.86882  0.38330  1.0000
  H   H314      1.0  0.09651  0.67964  0.30077  1.0000
  C   C396      1.0  0.99817  0.86392  0.20975  1.0000
  H   H315      1.0  0.99389  0.73243  0.48584  1.0000
  S   S60       1.0  0.15392  0.96441  0.40594  1.0000
  C   C397      1.0  0.03744  0.86030  0.33459  1.0000
  C   C398      1.0  0.03745  0.83462  0.31616  1.0000
  C   C399      1.0  0.04266  0.84636  0.29476  1.0000
  C   C400      1.0  0.21242  0.54280  0.17074  1.0000
  H   H316      1.0  0.02282  0.49310  0.00237  1.0000
  H   H317      1.0  0.19554  0.53324  0.12334  1.0000
  H   H318      1.0  0.02792  0.70844  0.39685  1.0000
  H   H319      1.0  0.01364  0.68706  0.36976  1.0000
  H   H320      1.0  0.00681  0.73506  0.33900  1.0000
  H   H321      1.0  0.01352  0.80469  0.33622  1.0000
  H   H322      1.0  0.03541  0.77698  0.39345  1.0000
  H   H323      1.0  0.02609  0.86045  0.41195  1.0000
  C   C401      1.0  0.11513  0.86241  0.28233  1.0000
  H   H324      1.0  0.21687  0.91725  0.12314  1.0000
  C   C402      1.0  0.13448  0.91939  0.16206  1.0000
  H   H325      1.0  0.13124  0.94654  0.28486  1.0000
  C   C403      1.0  0.01956  0.65826  0.48677  1.0000
  Fe  Fe31      1.0  0.98414  0.77937  0.33238  1.0000
  H   H326      1.0  0.19757  0.52021  0.03241  1.0000
  P   P14       1.0  0.10773  0.83501  0.26169  1.0000
  H   H327      1.0  0.17112  0.55251  0.03027  1.0000
  H   H328      1.0  0.03330  0.80586  0.31788  1.0000
  H   H329      1.0  0.04918  0.66313  0.47662  1.0000
  H   H330      1.0  0.08970  0.57658  0.17544  1.0000
  H   H331      1.0  0.05165  0.89304  0.27474  1.0000
  H   H332      1.0  0.11225  0.81896  0.31092  1.0000
  C   C404      1.0  0.99805  0.51456  0.26263  1.0000
  H   H333      1.0  0.12371  0.85499  0.33754  1.0000
  C   C405      1.0  0.08099  0.92061  0.25425  1.0000
  C   C406      1.0  0.14496  0.61072  0.00567  1.0000
  C   C407      1.0  0.13449  0.59007  0.00851  1.0000
  C   C408      1.0  0.12756  0.59247  0.02887  1.0000
  C   C409      1.0  0.13100  0.61606  0.04633  1.0000
  C   C410      1.0  0.14138  0.63779  0.04338  1.0000
  C   C411      1.0  0.14847  0.63422  0.02310  1.0000
  P   P15       1.0  0.14594  0.66739  0.06622  1.0000
  C   C412      1.0  0.15411  0.63536  0.08612  1.0000
  C   C413      1.0  0.05524  0.85897  0.42049  1.0000
  H   H334      1.0  0.22172  0.60966  0.34436  1.0000
  H   H335      1.0  0.99960  0.69658  0.02255  1.0000
  H   H336      1.0  0.99344  0.52483  0.04754  1.0000
  H   H337      1.0  0.08310  0.73879  0.30808  1.0000
  H   H338      1.0  0.10418  0.83267  0.21187  1.0000
  C   C414      1.0  0.16201  0.65238  0.10024  1.0000
  C   C415      1.0  0.16875  0.62771  0.11492  1.0000
  C   C416      1.0  0.16759  0.58594  0.11582  1.0000
  C   C417      1.0  0.15967  0.56873  0.10203  1.0000
  C   C418      1.0  0.15298  0.59330  0.08716  1.0000
  C   C419      1.0  0.13314  0.69039  0.08071  1.0000
  C   C420      1.0  0.13290  0.69631  0.10437  1.0000
  C   C421      1.0  0.12305  0.71478  0.11537  1.0000
  C   C422      1.0  0.11337  0.72752  0.10285  1.0000
  C   C423      1.0  0.98657  0.88983  0.24216  1.0000
  C   C424      1.0  0.99890  0.50190  0.03918  1.0000
  C   C425      1.0  0.17492  0.72833  0.04160  1.0000
  H   H339      1.0  0.13955  0.81999  0.18345  1.0000
  H   H340      1.0  0.08194  0.52952  0.02613  1.0000
  H   H341      1.0  0.12562  0.61699  0.06215  1.0000
  H   H342      1.0  0.15676  0.64913  0.02061  1.0000
  C   C426      1.0  0.18449  0.92798  0.14667  1.0000
  C   C427      1.0  0.18720  0.90922  0.12607  1.0000
  C   C428      1.0  0.04692  0.97503  0.46268  1.0000
  C   C429      1.0  0.22107  0.55192  0.39417  1.0000
  H   H343      1.0  0.13338  0.82555  0.25620  1.0000
  H   H344      1.0  0.16322  0.68464  0.09947  1.0000
  H   H345      1.0  0.17519  0.64097  0.12499  1.0000
  H   H346      1.0  0.17303  0.56699  0.12687  1.0000
  H   H347      1.0  0.15894  0.53627  0.10236  1.0000
  H   H348      1.0  0.14714  0.57920  0.07622  1.0000
  H   H349      1.0  0.14033  0.68702  0.11437  1.0000
  H   H350      1.0  0.12294  0.71943  0.13362  1.0000
  H   H351      1.0  0.07926  0.95186  0.25825  1.0000
  H   H352      1.0  0.14707  0.81936  0.22227  1.0000
  C   C430      1.0  0.12055  0.89854  0.27528  1.0000
  H   H353      1.0  0.00562  0.95365  0.14348  1.0000
  S   S61       1.0  0.04674  0.96587  0.19936  1.0000
  H   H354      1.0  0.21417  0.86742  0.16724  1.0000
  H   H355      1.0  0.13773  0.90435  0.17749  1.0000
  S   S62       1.0  0.03839  0.49817  0.06842  1.0000
  C   C431      1.0  0.12986  0.82544  0.23935  1.0000
  C   C432      1.0  0.13005  0.95917  0.16268  1.0000
  C   C433      1.0  0.20470  0.50695  0.09427  1.0000
  C   C434      1.0  0.99541  0.92429  0.37070  1.0000
  C   C435      1.0  0.00838  0.51310  0.02438  1.0000
  H   H356      1.0  0.01021  0.54473  0.02120  1.0000
  C   C436      1.0  0.10417  0.78555  0.27373  1.0000
  H   H357      1.0  0.19227  0.64182  0.99409  1.0000
  C   C437      1.0  0.09415  0.86121  0.25407  1.0000
  C   C438      1.0  0.10898  0.71393  0.27951  1.0000
  H   H358      1.0  0.02020  0.91949  0.33597  1.0000
  C   C439      1.0  0.15666  0.95126  0.37656  1.0000
  C   C440      1.0  0.11352  0.72170  0.07930  1.0000
  H   H359      1.0  0.14878  0.79506  0.43934  1.0000
  H   H360      1.0  0.12921  0.82125  0.45366  1.0000
  H   H361      1.0  0.20824  0.59116  0.37770  1.0000
  H   H362      1.0  0.00521  0.53127  0.26847  1.0000
  C   C441      1.0  0.07865  0.68549  0.03901  1.0000
  C   C442      1.0  0.08608  0.65482  0.03031  1.0000
  C   C443      1.0  0.09034  0.62398  0.04509  1.0000
  C   C444      1.0  0.08711  0.62357  0.06854  1.0000
  C   C445      1.0  0.07993  0.65498  0.07754  1.0000
  C   C446      1.0  0.07559  0.68558  0.06252  1.0000
  P   P16       1.0  0.07491  0.65257  0.10742  1.0000
  C   C447      1.0  0.06221  0.62140  0.10902  1.0000
  C   C448      1.0  0.08626  0.63075  0.12496  1.0000
  C   C449      1.0  0.08327  0.60961  0.14573  1.0000
  C   C450      1.0  0.09207  0.59317  0.15951  1.0000
  C   C451      1.0  0.10391  0.59815  0.15277  1.0000
  C   C452      1.0  0.10695  0.61985  0.13232  1.0000
  C   C453      1.0  0.09817  0.63634  0.11853  1.0000
  C   C454      1.0  0.05087  0.63900  0.10750  1.0000
  C   C455      1.0  0.04110  0.61482  0.10736  1.0000
  C   C456      1.0  0.04259  0.57282  0.10839  1.0000
  C   C457      1.0  0.05386  0.55500  0.10946  1.0000
  C   C458      1.0  0.06365  0.57915  0.10968  1.0000
  C   C459      1.0  0.07163  0.70201  0.11837  1.0000
  C   C460      1.0  0.07795  0.73548  0.10970  1.0000
  C   C461      1.0  0.07549  0.77360  0.11840  1.0000
  C   C462      1.0  0.06683  0.77848  0.13600  1.0000
  C   C463      1.0  0.06068  0.74521  0.14506  1.0000
  C   C464      1.0  0.06317  0.70701  0.13654  1.0000
  H   H363      1.0  0.07492  0.70849  0.02746  1.0000
  H   H364      1.0  0.17623  0.79061  0.03000  1.0000
  H   H365      1.0  0.10071  0.85293  0.47460  1.0000
  H   H366      1.0  0.09000  0.59828  0.07949  1.0000
  H   H367      1.0  0.06955  0.70894  0.06881  1.0000
  H   H368      1.0  0.07413  0.60588  0.15129  1.0000
  H   H369      1.0  0.11613  0.62386  0.12712  1.0000
  H   H370      1.0  0.10066  0.65329  0.10283  1.0000
  H   H371      1.0  0.04958  0.67139  0.10581  1.0000
  H   H372      1.0  0.03242  0.62874  0.10573  1.0000
  H   H373      1.0  0.03505  0.55402  0.10760  1.0000
  H   H374      1.0  0.05497  0.52243  0.10928  1.0000
  H   H375      1.0  0.07234  0.56485  0.10971  1.0000
  H   H376      1.0  0.08467  0.73228  0.09605  1.0000
  H   H377      1.0  0.08015  0.79959  0.11128  1.0000
  H   H378      1.0  0.06471  0.80818  0.14240  1.0000
  H   H379      1.0  0.05380  0.74931  0.15840  1.0000
  H   H380      1.0  0.05838  0.68159  0.14397  1.0000
  C   C465      1.0  0.99009  0.70309  0.48644  1.0000
  C   C466      1.0  0.09864  0.70914  0.29324  1.0000
  C   C467      1.0  0.98027  0.96464  0.19014  1.0000
  C   C468      1.0  0.09386  0.78056  0.28771  1.0000
  S   S63       1.0  0.15780  0.48484  0.00329  1.0000
  C   C469      1.0  0.09163  0.90128  0.25994  1.0000
  H   H381      1.0  0.08751  0.81002  0.23785  1.0000
  C   C470      1.0  0.20044  0.49541  0.02185  1.0000
  C   C471      1.0  0.14613  0.79127  0.45739  1.0000
  C   C472      1.0  0.04308  0.89726  0.33135  1.0000
  H   H382      1.0  0.08772  0.92354  0.46291  1.0000
  H   H383      1.0  0.01482  0.52397  0.08557  1.0000
  C   C473      1.0  0.04058  0.66693  0.48526  1.0000
  C   C474      1.0  0.02667  0.94349  0.48485  1.0000
  C   C475      1.0  0.05970  0.85409  0.39801  1.0000
  C   C476      1.0  0.98647  0.52932  0.26592  1.0000
  C   C477      1.0  0.07527  0.86060  0.23654  1.0000
  C   C478      1.0  0.09999  0.51237  0.01614  1.0000
  H   H384      1.0  0.06487  0.91605  0.23704  1.0000
  C   C479      1.0  0.10957  0.51765  0.00005  1.0000
  H   H385      1.0  0.21705  0.55091  0.02684  1.0000
  Fe  Fe32      1.0  0.02997  0.61047  0.00829  1.0000
  C   C480      1.0  0.01419  0.91169  0.35030  1.0000
  Fe  Fe33      1.0  0.15833  0.94585  0.44352  1.0000
  C   C481      1.0  0.19346  0.94239  0.15910  1.0000
  H   H386      1.0  0.08797  0.80617  0.29124  1.0000
  H   H387      1.0  0.11072  0.58529  0.16344  1.0000
  H   H388      1.0  0.00963  0.84232  0.39448  1.0000
  H   H389      1.0  0.15485  0.80614  0.03638  1.0000
  H   H390      1.0  0.21209  0.52619  0.09519  1.0000
  Fe  Fe34      1.0  0.98386  0.74994  0.38311  1.0000
  C   C482      1.0  0.13766  0.82157  0.22019  1.0000
  C   C483      1.0  0.15350  0.96691  0.33553  1.0000
  C   C484      1.0  0.11347  0.82929  0.21457  1.0000
  C   C485      1.0  0.99777  0.89171  0.38598  1.0000
  H   H391      1.0  0.22402  0.81074  0.18796  1.0000
  C   C486      1.0  0.22528  0.51806  0.05513  1.0000
  C   C487      1.0  0.12696  0.91890  0.29055  1.0000
  C   C488      1.0  0.19888  0.90550  0.11761  1.0000
  C   C489      1.0  0.08580  0.84090  0.24256  1.0000
  H   H392      1.0  0.11996  0.91066  0.25780  1.0000
  H   H393      1.0  0.11801  0.82636  0.17837  1.0000
  H   H394      1.0  0.00169  0.95905  0.34071  1.0000
  C   C490      1.0  0.22658  0.49295  0.15570  1.0000
  C   C491      1.0  0.19524  0.51115  0.11035  1.0000
  S   S64       1.0  0.99568  0.77972  0.29907  1.0000
  C   C492      1.0  0.20785  0.92050  0.12980  1.0000
  C   C493      1.0  0.99648  0.89161  0.22697  1.0000
  C   C494      1.0  0.07287  0.90046  0.24235  1.0000
  C   C495      1.0  0.03882  0.95588  0.45013  1.0000
  C   C496      1.0  0.15537  0.70667  0.05430  1.0000
  C   C497      1.0  0.08778  0.56168  0.99495  1.0000
  C   C498      1.0  0.18537  0.48768  0.10929  1.0000
  H   H395      1.0  0.18425  0.72138  0.03883  1.0000
  C   C499      1.0  0.98834  0.71168  0.99461  1.0000
  H   H396      1.0  0.21515  0.48353  0.18622  1.0000
  C   C500      1.0  0.13484  0.89926  0.14161  1.0000
  H   H397      1.0  0.03145  0.63966  0.45903  1.0000
  C   C501      1.0  0.98243  0.69511  0.46947  1.0000
  H   H398      1.0  0.20540  0.93478  0.21111  1.0000
  C   C502      1.0  0.17039  0.76727  0.03667  1.0000
  C   C503      1.0  0.19463  0.48955  0.00188  1.0000
  H   H399      1.0  0.99093  0.90043  0.14961  1.0000
  H   H400      1.0  0.13337  0.91838  0.32455  1.0000
  H   H401      1.0  0.05240  0.93775  0.30733  1.0000
  H   H402      1.0  0.01799  0.70950  0.99936  1.0000
  H   H403      1.0  0.17802  0.49109  0.12166  1.0000
  H   H404      1.0  0.12958  0.97392  0.17882  1.0000
  S   S65       1.0  0.22666  0.67972  0.06970  1.0000
  C   C504      1.0  0.01562  0.48358  0.01398  1.0000
  H   H405      1.0  0.97944  0.78339  0.26205  1.0000
  H   H406      1.0  0.22699  0.82490  0.13946  1.0000
  C   C505      1.0  0.22669  0.84133  0.19013  1.0000
  C   C506      1.0  0.01531  0.49135  0.08587  1.0000
  H   H407      1.0  0.98038  0.70577  0.00501  1.0000
  H   H408      1.0  0.22697  0.58027  0.12239  1.0000
  C   C507      1.0  0.99918  0.70680  0.00470  1.0000
  C   C508      1.0  0.98108  0.93078  0.17672  1.0000
  C   C509      1.0  0.12623  0.95874  0.12236  1.0000
  C   C510      1.0  0.08516  0.95194  0.47043  1.0000
  H   H409      1.0  0.98045  0.71821  0.45629  1.0000
  H   H410      1.0  0.02265  0.92368  0.45176  1.0000
  C   C511      1.0  0.02877  0.93968  0.46127  1.0000
  H   H411      1.0  0.01201  0.64736  0.47883  1.0000
  C   C512      1.0  0.15165  0.97585  0.35897  1.0000
  H   H412      1.0  0.19708  0.97552  0.24259  1.0000
  H   H413      1.0  0.22907  0.61064  0.02828  1.0000
  C   C513      1.0  0.97986  0.83316  0.22241  1.0000
  H   H414      1.0  0.10245  0.97599  0.46544  1.0000
  H   H415      1.0  0.10234  0.97500  0.13872  1.0000
  S   S66       1.0  0.15142  0.97754  0.20020  1.0000
  S   S67       1.0  0.14737  0.53649  0.95847  1.0000
  H   H416      1.0  0.01134  0.61258  0.84765  1.0000
  H   H417      1.0  0.22353  0.50187  0.67299  1.0000
  C   C514      1.0  0.99884  0.81100  0.54878  1.0000
  S   S68       1.0  0.00089  0.66401  0.88490  1.0000
  S   S69       1.0  0.14654  0.50461  0.74900  1.0000
  H   H418      1.0  0.22470  0.89864  0.69201  1.0000
  S   S70       1.0  0.17130  0.56707  0.71543  1.0000
  C   C515      1.0  0.06316  0.94386  0.53672  1.0000
  H   H419      1.0  0.15714  0.75778  0.50801  1.0000
  H   H420      1.0  0.00912  0.76137  0.50208  1.0000
  C   C516      1.0  0.22576  0.92143  0.87992  1.0000
  Fe  Fe35      1.0  0.03944  0.84931  0.55374  1.0000
  S   S71       1.0  0.04450  0.87145  0.51768  1.0000
  S   S72       1.0  0.03041  0.88468  0.58267  1.0000
  Fe  Fe36      1.0  0.04796  0.76301  0.54536  1.0000
  S   S73       1.0  0.05332  0.77905  0.50818  1.0000
  S   S74       1.0  0.05220  0.69986  0.56123  1.0000
  Fe  Fe37      1.0  0.06135  0.83418  0.52118  1.0000
  H   H421      1.0  0.19007  0.49559  0.70981  1.0000
  C   C517      1.0  0.09282  0.48919  0.71647  1.0000
  S   S75       1.0  0.05693  0.81606  0.55831  1.0000
  S   S76       1.0  0.03031  0.79501  0.54313  1.0000
  Fe  Fe38      1.0  0.21618  0.66313  0.61857  1.0000
  S   S77       1.0  0.22083  0.67635  0.58088  1.0000
  S   S78       1.0  0.20411  0.60988  0.62597  1.0000
  Fe  Fe39      1.0  0.22022  0.74180  0.58961  1.0000
  S   S79       1.0  0.21203  0.79881  0.57254  1.0000
  S   S80       1.0  0.21420  0.72876  0.62650  1.0000
  Fe  Fe40      1.0  0.03121  0.52466  0.65504  1.0000
  S   S81       1.0  0.04330  0.52889  0.68402  1.0000
  S   S82       1.0  0.02478  0.57989  0.63308  1.0000
  C   C518      1.0  0.09274  0.87332  0.50650  1.0000
  C   C519      1.0  0.22716  0.50333  0.54597  1.0000
  C   C520      1.0  0.03370  0.54399  0.83721  1.0000
  C   C521      1.0  0.01412  0.52649  0.94607  1.0000
  H   H422      1.0  0.00607  0.50740  0.89240  1.0000
  H   H423      1.0  0.98052  0.77838  0.72060  1.0000
  C   C522      1.0  0.04458  0.66864  0.58245  1.0000
  C   C523      1.0  0.03303  0.67748  0.59055  1.0000
  C   C524      1.0  0.02723  0.65052  0.60649  1.0000
  C   C525      1.0  0.03288  0.61454  0.61464  1.0000
  C   C526      1.0  0.04451  0.60620  0.60693  1.0000
  C   C527      1.0  0.05027  0.63295  0.59086  1.0000
  H   H424      1.0  0.02850  0.70466  0.58422  1.0000
  H   H425      1.0  0.01821  0.65715  0.61221  1.0000
  H   H426      1.0  0.04897  0.57864  0.61291  1.0000
  H   H427      1.0  0.05919  0.62572  0.58473  1.0000
  C   C528      1.0  0.18575  0.82000  0.51553  1.0000
  C   C529      1.0  0.19052  0.78099  0.52038  1.0000
  C   C530      1.0  0.19835  0.77362  0.53815  1.0000
  C   C531      1.0  0.20155  0.80537  0.55112  1.0000
  C   C532      1.0  0.19661  0.84421  0.54653  1.0000
  C   C533      1.0  0.18868  0.85145  0.52898  1.0000
  H   H428      1.0  0.14485  0.52658  0.85254  1.0000
  H   H429      1.0  0.20210  0.74361  0.54146  1.0000
  H   H430      1.0  0.19905  0.86902  0.55638  1.0000
  H   H431      1.0  0.98353  0.60439  0.58694  1.0000
  C   C534      1.0  0.11411  0.91452  0.50946  1.0000
  C   C535      1.0  0.10505  0.91678  0.52682  1.0000
  C   C536      1.0  0.09447  0.89626  0.52542  1.0000
  H   H432      1.0  0.03932  0.53291  0.82313  1.0000
  H   H433      1.0  0.09399  0.76245  0.52051  1.0000
  C   C537      1.0  0.03948  0.68504  0.50636  1.0000
  C   C538      1.0  0.17189  0.59045  0.91426  1.0000
  H   H434      1.0  0.08766  0.89850  0.53891  1.0000
  C   C539      1.0  0.05540  0.97656  0.53159  1.0000
  H   H435      1.0  0.98658  0.50570  0.91284  1.0000
  C   C540      1.0  0.18026  0.57897  0.69032  1.0000
  C   C541      1.0  0.18670  0.61442  0.68901  1.0000
  C   C542      1.0  0.19408  0.62434  0.66950  1.0000
  C   C543      1.0  0.19507  0.59883  0.65109  1.0000
  C   C544      1.0  0.18856  0.56354  0.65235  1.0000
  C   C545      1.0  0.18116  0.55375  0.67182  1.0000
  H   H436      1.0  0.18604  0.63421  0.70321  1.0000
  H   H437      1.0  0.19901  0.65164  0.66875  1.0000
  H   H438      1.0  0.18929  0.54353  0.63826  1.0000
  H   H439      1.0  0.17635  0.52621  0.67280  1.0000
  C   C546      1.0  0.99460  0.59484  0.77028  1.0000
  C   C547      1.0  0.00209  0.57419  0.78539  1.0000
  C   C548      1.0  0.01125  0.54837  0.77684  1.0000
  C   C549      1.0  0.01307  0.54307  0.75312  1.0000
  C   C550      1.0  0.00550  0.56340  0.73806  1.0000
  C   C551      1.0  0.99629  0.58892  0.74662  1.0000
  H   H440      1.0  0.00086  0.57828  0.80362  1.0000
  C   C552      1.0  0.11245  0.89115  0.49071  1.0000
  H   H441      1.0  0.00673  0.55922  0.71984  1.0000
  H   H442      1.0  0.99627  0.53202  0.85135  1.0000
  C   C553      1.0  0.01019  0.62557  0.95905  1.0000
  C   C554      1.0  0.99886  0.61990  0.95166  1.0000
  C   C555      1.0  0.99582  0.63138  0.92911  1.0000
  C   C556      1.0  0.00411  0.64925  0.91367  1.0000
  C   C557      1.0  0.01544  0.65527  0.92108  1.0000
  C   C558      1.0  0.01849  0.64332  0.94359  1.0000
  H   H443      1.0  0.99245  0.60580  0.96343  1.0000
  H   H444      1.0  0.00166  0.56811  0.59990  1.0000
  H   H445      1.0  0.02191  0.66924  0.90931  1.0000
  H   H446      1.0  0.02722  0.64813  0.94907  1.0000
  H   H447      1.0  0.17980  0.49035  0.90158  1.0000
  S   S83       1.0  0.98375  0.69679  0.83218  1.0000
  Fe  Fe41      1.0  0.15435  0.48592  0.93626  1.0000
  C   C559      1.0  0.09735  0.56699  0.97890  1.0000
  H   H448      1.0  0.99095  0.61011  0.51406  1.0000
  Fe  Fe42      1.0  0.03622  0.81509  0.50692  1.0000
  C   C560      1.0  0.18797  0.58174  0.79304  1.0000
  C   C561      1.0  0.16695  0.57493  0.86919  1.0000
  H   H449      1.0  0.99750  0.70512  0.76901  1.0000
  C   C562      1.0  0.99312  0.67293  0.50307  1.0000
  H   H450      1.0  0.02176  0.92368  0.54090  1.0000
  H   H451      1.0  0.98436  0.71048  0.91386  1.0000
  C   C563      1.0  0.17810  0.51810  0.81962  1.0000
  C   C564      1.0  0.03887  0.55598  0.92154  1.0000
  H   H452      1.0  0.20801  0.94395  0.88690  1.0000
  H   H453      1.0  0.98462  0.65301  0.55341  1.0000
  H   H454      1.0  0.06875  0.89969  0.56252  1.0000
  H   H455      1.0  0.06011  0.62319  0.95147  1.0000
  C   C565      1.0  0.00340  0.64426  0.54696  1.0000
  H   H456      1.0  0.19591  0.95189  0.49213  1.0000
  H   H457      1.0  0.05734  0.60459  0.70251  1.0000
  C   C566      1.0  0.04579  0.63286  0.67805  1.0000
  C   C567      1.0  0.00118  0.72060  0.75359  1.0000
  C   C568      1.0  0.98126  0.76184  0.89099  1.0000
  C   C569      1.0  0.13784  0.49549  0.63331  1.0000
  C   C570      1.0  0.01072  0.76002  0.71376  1.0000
  C   C571      1.0  0.00922  0.71816  0.71418  1.0000
  C   C572      1.0  0.00442  0.69872  0.73429  1.0000
  P   P17       1.0  0.01352  0.68885  0.68957  1.0000
  C   C573      1.0  0.01527  0.72062  0.66355  1.0000
  C   C574      1.0  0.02739  0.66203  0.69389  1.0000
  C   C575      1.0  0.03497  0.65295  0.67489  1.0000
  Fe  Fe43      1.0  0.02958  0.49544  0.70591  1.0000
  Fe  Fe44      1.0  0.14101  0.48793  0.98386  1.0000
  C   C576      1.0  0.15853  0.50653  0.63695  1.0000
  H   H458      1.0  0.21233  0.49650  0.86067  1.0000
  C   C577      1.0  0.00742  0.71910  0.64590  1.0000
  C   C578      1.0  0.00931  0.74198  0.62533  1.0000
  C   C579      1.0  0.01901  0.76658  0.62219  1.0000
  C   C580      1.0  0.02687  0.76816  0.63961  1.0000
  C   C581      1.0  0.02505  0.74519  0.66016  1.0000
  C   C582      1.0  0.00221  0.65320  0.68637  1.0000
  C   C583      1.0  0.00514  0.61462  0.67864  1.0000
  C   C584      1.0  0.99633  0.58746  0.67567  1.0000
  H   H459      1.0  0.21663  0.95916  0.62233  1.0000
  H   H460      1.0  0.13909  0.70025  0.51691  1.0000
  C   C585      1.0  0.99034  0.66421  0.69117  1.0000
  H   H461      1.0  0.14984  0.60188  0.87731  1.0000
  H   H462      1.0  0.09641  0.58811  0.96435  1.0000
  C   C586      1.0  0.04728  0.97204  0.57096  1.0000
  C   C587      1.0  0.00307  0.52441  0.95763  1.0000
  H   H463      1.0  0.00323  0.66648  0.73514  1.0000
  H   H464      1.0  0.03248  0.66069  0.65754  1.0000
  C   C588      1.0  0.22785  0.51442  0.62533  1.0000
  C   C589      1.0  0.22537  0.58371  0.87069  1.0000
  H   H465      1.0  0.17368  0.59555  0.93192  1.0000
  C   C590      1.0  0.00914  0.72647  0.96849  1.0000
  H   H466      1.0  0.00000  0.69959  0.64766  1.0000
  H   H467      1.0  0.00339  0.74000  0.61161  1.0000
  H   H468      1.0  0.02056  0.78402  0.60615  1.0000
  H   H469      1.0  0.03450  0.78676  0.63694  1.0000
  H   H470      1.0  0.03141  0.74599  0.67325  1.0000
  H   H471      1.0  0.01421  0.60530  0.67493  1.0000
  H   H472      1.0  0.99869  0.55790  0.66942  1.0000
  C   C591      1.0  0.02841  0.69055  0.51754  1.0000
  S   S84       1.0  0.98318  0.62892  0.77990  1.0000
  H   H473      1.0  0.98788  0.69393  0.69702  1.0000
  C   C592      1.0  0.10356  0.81208  0.56504  1.0000
  C   C593      1.0  0.22249  0.89621  0.51973  1.0000
  C   C594      1.0  0.03471  0.96287  0.49738  1.0000
  C   C595      1.0  0.17794  0.56305  0.87742  1.0000
  H   H474      1.0  0.14748  0.49979  0.81347  1.0000
  H   H475      1.0  0.05461  0.92453  0.59281  1.0000
  H   H476      1.0  0.05419  0.49613  0.90101  1.0000
  C   C596      1.0  0.01217  0.97797  0.55128  1.0000
  C   C597      1.0  0.00520  0.76549  0.51908  1.0000
  C   C598      1.0  0.20333  0.93644  0.49987  1.0000
  C   C599      1.0  0.98781  0.72370  0.97125  1.0000
  H   H477      1.0  0.18871  0.56162  0.90695  1.0000
  C   C600      1.0  0.14891  0.49694  0.85042  1.0000
  C   C601      1.0  0.01792  0.58877  0.85094  1.0000
  H   H478      1.0  0.20244  0.88505  0.91250  1.0000
  C   C602      1.0  0.14703  0.52225  0.63443  1.0000
  C   C603      1.0  0.15848  0.59432  0.88344  1.0000
  P   P18       1.0  0.14365  0.57553  0.63666  1.0000
  C   C604      1.0  0.13743  0.58012  0.66549  1.0000
  C   C605      1.0  0.15630  0.60633  0.63064  1.0000
  C   C606      1.0  0.15755  0.64150  0.64259  1.0000
  C   C607      1.0  0.16729  0.66546  0.63769  1.0000
  C   C608      1.0  0.17568  0.65512  0.62046  1.0000
  C   C609      1.0  0.17430  0.62096  0.60798  1.0000
  C   C610      1.0  0.16460  0.59679  0.61290  1.0000
  C   C611      1.0  0.12534  0.57533  0.67028  1.0000
  C   C612      1.0  0.12064  0.57591  0.69288  1.0000
  C   C613      1.0  0.12797  0.58104  0.71083  1.0000
  C   C614      1.0  0.14001  0.58552  0.70621  1.0000
  C   C615      1.0  0.14476  0.58445  0.68367  1.0000
  C   C616      1.0  0.13326  0.59367  0.61604  1.0000
  C   C617      1.0  0.13206  0.57343  0.59580  1.0000
  C   C618      1.0  0.12420  0.58860  0.57963  1.0000
  C   C619      1.0  0.11763  0.62427  0.58342  1.0000
  C   C620      1.0  0.11892  0.64489  0.60336  1.0000
  C   C621      1.0  0.12674  0.62975  0.61959  1.0000
  C   C622      1.0  0.21643  0.87774  0.50313  1.0000
  C   C623      1.0  0.22721  0.91847  0.64362  1.0000
  C   C624      1.0  0.21489  0.85730  0.62499  1.0000
  C   C625      1.0  0.21640  0.49942  0.55877  1.0000
  H   H479      1.0  0.02154  0.53379  0.95567  1.0000
  H   H480      1.0  0.15111  0.65035  0.65586  1.0000
  H   H481      1.0  0.16848  0.69167  0.64754  1.0000
  H   H482      1.0  0.18342  0.67300  0.61713  1.0000
  H   H483      1.0  0.18098  0.61272  0.59496  1.0000
  H   H484      1.0  0.16368  0.57045  0.60305  1.0000
  H   H485      1.0  0.11956  0.56989  0.65674  1.0000
  H   H486      1.0  0.11138  0.57066  0.69666  1.0000
  H   H487      1.0  0.12436  0.58001  0.72841  1.0000
  H   H488      1.0  0.14575  0.58848  0.72018  1.0000
  H   H489      1.0  0.15419  0.58597  0.68057  1.0000
  H   H490      1.0  0.13721  0.54610  0.59241  1.0000
  H   H491      1.0  0.12320  0.57269  0.56414  1.0000
  H   H492      1.0  0.11152  0.63598  0.57092  1.0000
  H   H493      1.0  0.11384  0.67260  0.60626  1.0000
  H   H494      1.0  0.12769  0.64617  0.63492  1.0000
  C   C626      1.0  0.03510  0.52841  0.85967  1.0000
  C   C627      1.0  0.99254  0.63697  0.55874  1.0000
  H   H495      1.0  0.14557  0.63475  0.53473  1.0000
  C   C628      1.0  0.21439  0.91957  0.89012  1.0000
  H   H496      1.0  0.99598  0.71369  0.56821  1.0000
  H   H497      1.0  0.16564  0.52623  0.63929  1.0000
  P   P19       1.0  0.13581  0.78121  0.53489  1.0000
  C   C629      1.0  0.14391  0.82087  0.54610  1.0000
  C   C630      1.0  0.14026  0.73295  0.54782  1.0000
  C   C631      1.0  0.14259  0.72944  0.57121  1.0000
  C   C632      1.0  0.14627  0.69224  0.58120  1.0000
  C   C633      1.0  0.14742  0.65822  0.56801  1.0000
  C   C634      1.0  0.14477  0.66121  0.54490  1.0000
  C   C635      1.0  0.14114  0.69842  0.53482  1.0000
  C   C636      1.0  0.13900  0.86018  0.54695  1.0000
  C   C637      1.0  0.14529  0.89088  0.55559  1.0000
  C   C638      1.0  0.15666  0.88279  0.56286  1.0000
  C   C639      1.0  0.16179  0.84408  0.56122  1.0000
  C   C640      1.0  0.15549  0.81330  0.55266  1.0000
  H   H498      1.0  0.12158  0.81946  0.57211  1.0000
  H   H499      1.0  0.14170  0.75557  0.58165  1.0000
  H   H500      1.0  0.14828  0.68981  0.59915  1.0000
  H   H501      1.0  0.15033  0.62951  0.57574  1.0000
  H   H502      1.0  0.20564  0.90518  0.60664  1.0000
  C   C641      1.0  0.15075  0.77008  0.49625  1.0000
  H   H503      1.0  0.13039  0.86738  0.54058  1.0000
  H   H504      1.0  0.14147  0.92126  0.55584  1.0000
  H   H505      1.0  0.16165  0.90685  0.56896  1.0000
  H   H506      1.0  0.17076  0.83811  0.56602  1.0000
  H   H507      1.0  0.15978  0.78391  0.55078  1.0000
  C   C642      1.0  0.99188  0.60950  0.57771  1.0000
  S   S85       1.0  0.15098  0.49612  0.89754  1.0000
  C   C643      1.0  0.04143  0.62874  0.71908  1.0000
  C   C644      1.0  0.02140  0.92857  0.57738  1.0000
  H   H508      1.0  0.16471  0.56803  0.85209  1.0000
  H   H509      1.0  0.21643  0.64163  0.87401  1.0000
  H   H510      1.0  0.22804  0.88689  0.73307  1.0000
  C   C645      1.0  0.01355  0.62318  0.55434  1.0000
  H   H511      1.0  0.00865  0.81416  0.73273  1.0000
  C   C646      1.0  0.20498  0.97458  0.57213  1.0000
  C   C647      1.0  0.11570  0.80719  0.56053  1.0000
  C   C648      1.0  0.21305  0.52818  0.86362  1.0000
  H   H512      1.0  0.99834  0.73965  0.94019  1.0000
  C   C649      1.0  0.00536  0.51228  0.91061  1.0000
  H   H513      1.0  0.01694  0.53227  0.78865  1.0000
  H   H514      1.0  0.10017  0.82863  0.57964  1.0000
  C   C650      1.0  0.98058  0.74084  0.91232  1.0000
  C   C651      1.0  0.16092  0.60184  0.90600  1.0000
  H   H515      1.0  0.04379  0.61818  0.73613  1.0000
  C   C652      1.0  0.22388  0.84736  0.63977  1.0000
  H   H516      1.0  0.03298  0.96535  0.51561  1.0000
  H   H517      1.0  0.01437  0.77596  0.69860  1.0000
  H   H518      1.0  0.18505  0.88156  0.52551  1.0000
  C   C653      1.0  0.21945  0.85491  0.90866  1.0000
  S   S86       1.0  0.17194  0.48434  0.95220  1.0000
  H   H519      1.0  0.09212  0.50372  0.73268  1.0000
  C   C654      1.0  0.21124  0.88638  0.90452  1.0000
  C   C655      1.0  0.12013  0.78718  0.54108  1.0000
  H   H520      1.0  0.04725  0.69444  0.51420  1.0000
  H   H521      1.0  0.12882  0.50678  0.63268  1.0000
  H   H522      1.0  0.04188  0.50539  0.86262  1.0000
  C   C656      1.0  0.15035  0.48170  0.82817  1.0000
  H   H523      1.0  0.08635  0.80075  0.55362  1.0000
  H   H524      1.0  0.02405  0.58636  0.81549  1.0000
  C   C657      1.0  0.00204  0.58888  0.58495  1.0000
  S   S87       1.0  0.01342  0.60939  0.98763  1.0000
  Fe  Fe45      1.0  0.16113  0.50906  0.72132  1.0000
  H   H525      1.0  0.02778  0.70434  0.53402  1.0000
  C   C658      1.0  0.02510  0.57411  0.83285  1.0000
  C   C659      1.0  0.01535  0.52077  0.92239  1.0000
  C   C660      1.0  0.99678  0.50871  0.83896  1.0000
  H   H526      1.0  0.98561  0.74772  0.87632  1.0000
  S   S88       1.0  0.01704  0.49485  0.67781  1.0000
  S   S89       1.0  0.02455  0.50943  0.74331  1.0000
  H   H527      1.0  0.18829  0.75645  0.51011  1.0000
  C   C661      1.0  0.00270  0.76219  0.75304  1.0000
  H   H528      1.0  0.05681  0.55338  0.96648  1.0000
  H   H529      1.0  0.99048  0.60440  0.73479  1.0000
  C   C662      1.0  0.04085  0.59556  0.91295  1.0000
  C   C663      1.0  0.99316  0.51699  0.94569  1.0000
  C   C664      1.0  0.05419  0.60454  0.94305  1.0000
  C   C665      1.0  0.09576  0.79615  0.55052  1.0000
  H   H530      1.0  0.15421  0.61552  0.91727  1.0000
  C   C666      1.0  0.00324  0.80474  0.52643  1.0000
  C   C667      1.0  0.98840  0.63452  0.50218  1.0000
  C   C668      1.0  0.99624  0.77794  0.56370  1.0000
  P   P20       1.0  0.18870  0.53588  0.85964  1.0000
  C   C669      1.0  0.04460  0.54108  0.94106  1.0000
  C   C670      1.0  0.99796  0.73861  0.55622  1.0000
  C   C671      1.0  0.10009  0.77453  0.53179  1.0000
  C   C672      1.0  0.11222  0.76938  0.52731  1.0000
  C   C673      1.0  0.21876  0.93456  0.52707  1.0000
  H   H531      1.0  0.01910  0.94150  0.61318  1.0000
  H   H532      1.0  0.20150  0.95046  0.56299  1.0000
  C   C674      1.0  0.20707  0.50238  0.69251  1.0000
  C   C675      1.0  0.02783  0.54279  0.87793  1.0000
  C   C676      1.0  0.04906  0.62103  0.70015  1.0000
  P   P21       1.0  0.00420  0.68155  0.52322  1.0000
  C   C677      1.0  0.19049  0.57595  0.81621  1.0000
  H   H533      1.0  0.07399  0.49213  0.71242  1.0000
  S   S90       1.0  0.16183  0.93189  0.51032  1.0000
  C   C678      1.0  0.18055  0.55566  0.78318  1.0000
  C   C679      1.0  0.05229  0.56518  0.95161  1.0000
  C   C680      1.0  0.01930  0.57332  0.87337  1.0000
  H   H534      1.0  0.02070  0.57960  0.57890  1.0000
  C   C681      1.0  0.00745  0.78190  0.73312  1.0000
  H   H535      1.0  0.21703  0.82920  0.91987  1.0000
  S   S91       1.0  0.07924  0.84904  0.50266  1.0000
  H   H536      1.0  0.04316  0.51083  0.94816  1.0000
  C   C682      1.0  0.21178  0.53111  0.57175  1.0000
  C   C683      1.0  0.20684  0.89781  0.49324  1.0000
  H   H537      1.0  0.98457  0.51671  0.95460  1.0000
  H   H538      1.0  0.11535  0.54962  0.96878  1.0000
  H   H539      1.0  0.11540  0.75226  0.51281  1.0000
  H   H540      1.0  0.01379  0.58559  0.88720  1.0000
  H   H541      1.0  0.06925  0.93185  0.52374  1.0000
  C   C684      1.0  0.01711  0.95147  0.59587  1.0000
  H   H542      1.0  0.01723  0.73135  0.95827  1.0000
  Fe  Fe46      1.0  0.98411  0.65924  0.86540  1.0000
  H   H543      1.0  0.20926  0.97607  0.66365  1.0000
  H   H544      1.0  0.21425  0.59124  0.58215  1.0000
  C   C685      1.0  0.18038  0.57123  0.90004  1.0000
  H   H545      1.0  0.17859  0.56009  0.76522  1.0000
  C   C686      1.0  0.98456  0.59833  0.68079  1.0000
  C   C687      1.0  0.00233  0.73204  0.53367  1.0000
  H   H546      1.0  0.02210  0.62810  0.54596  1.0000
  H   H547      1.0  0.03650  0.60807  0.89807  1.0000
  C   C688      1.0  0.04846  0.61975  0.92374  1.0000
  Fe  Fe47      1.0  0.16442  0.53045  0.97644  1.0000
  C   C689      1.0  0.19629  0.48407  0.69682  1.0000
  C   C690      1.0  0.18561  0.54385  0.82966  1.0000
  C   C691      1.0  0.22415  0.54288  0.86689  1.0000
  H   H548      1.0  0.99770  0.84146  0.55465  1.0000
  S   S92       1.0  0.11669  0.48507  0.72320  1.0000
  H   H549      1.0  0.01895  0.93048  0.49354  1.0000
  C   C692      1.0  0.98726  0.50324  0.82544  1.0000
  H   H550      1.0  0.21932  0.52403  0.63262  1.0000
  H   H551      1.0  0.19621  0.59657  0.82349  1.0000
  C   C693      1.0  0.01282  0.59540  0.57310  1.0000
  C   C694      1.0  0.20928  0.95491  0.51660  1.0000
  H   H552      1.0  0.00018  0.77907  0.76806  1.0000
  H   H553      1.0  0.05148  0.62544  0.66325  1.0000
  C   C695      1.0  0.08249  0.48275  0.70497  1.0000
  C   C696      1.0  0.21787  0.56670  0.57215  1.0000
  H   H554      1.0  0.21010  0.83357  0.61793  1.0000
  H   H555      1.0  0.22200  0.87804  0.56796  1.0000
  C   C697      1.0  0.21236  0.89767  0.61870  1.0000
  P   P22       1.0  0.02957  0.52352  0.90713  1.0000
  H   H556      1.0  0.00217  0.53036  0.97574  1.0000
  C   C698      1.0  0.20306  0.55425  0.86432  1.0000
  H   H557      1.0  0.19175  0.60645  0.78266  1.0000
  H   H558      1.0  0.10620  0.93470  0.54144  1.0000
  S   S93       1.0  0.12713  0.94223  0.51182  1.0000
  H   H559      1.0  0.20914  0.52792  0.70222  1.0000
  C   C699      1.0  0.21549  0.60995  0.87111  1.0000
  C   C700      1.0  0.98156  0.63671  0.68855  1.0000
  C   C701      1.0  0.03063  0.64919  0.71601  1.0000
  H   H560      1.0  0.02485  0.65430  0.73092  1.0000
  C   C702      1.0  0.06294  0.92546  0.55879  1.0000
  C   C703      1.0  0.05503  0.93960  0.57591  1.0000
  C   C704      1.0  0.99833  0.73091  0.95824  1.0000
  H   H561      1.0  0.00555  0.83029  0.51499  1.0000
  P   P23       1.0  0.22653  0.95903  0.54838  1.0000
  C   C705      1.0  0.01836  0.67693  0.50790  1.0000
  H   H562      1.0  0.19683  0.61616  0.86806  1.0000
  C   C706      1.0  0.01873  0.94165  0.55511  1.0000
  H   H563      1.0  0.98709  0.62636  0.92370  1.0000
  C   C707      1.0  0.20439  0.59536  0.86783  1.0000
  H   H564      1.0  0.04988  0.65041  0.91723  1.0000
  C   C708      1.0  0.21859  0.92815  0.62773  1.0000
  H   H565      1.0  0.01443  0.48928  0.84648  1.0000
  C   C709      1.0  0.99430  0.51086  0.92218  1.0000
  H   H566      1.0  0.20352  0.52816  0.58168  1.0000
  H   H567      1.0  0.99296  0.78295  0.58110  1.0000
  H   H568      1.0  0.97973  0.96193  0.74983  1.0000
  C   C710      1.0  0.10815  0.54520  0.98138  1.0000
  H   H569      1.0  0.12360  0.81632  0.49492  1.0000
  C   C711      1.0  0.17562  0.52386  0.79649  1.0000
  H   H570      1.0  0.17417  0.49345  0.82970  1.0000
  H   H571      1.0  0.22599  0.81598  0.64410  1.0000
  C   C712      1.0  0.21510  0.48794  0.67564  1.0000
  S   S94       1.0  0.17541  0.58470  0.98292  1.0000
  H   H572      1.0  0.97944  0.52235  0.82778  1.0000
  H   H573      1.0  0.22800  0.94742  0.86884  1.0000
  H   H574      1.0  0.16985  0.50359  0.78889  1.0000
  S   S95       1.0  0.17646  0.82827  0.49217  1.0000
  C   C713      1.0  0.13961  0.78409  0.50445  1.0000
  Fe  Fe48      1.0  0.14502  0.93980  0.49125  1.0000
  H   H575      1.0  0.21904  0.84753  0.49819  1.0000
  C   C714      1.0  0.18835  0.48257  0.86789  1.0000
  C   C715      1.0  0.00703  0.48470  0.83619  1.0000
  H   H576      1.0  0.99545  0.48942  0.76160  1.0000
  C   C716      1.0  0.22883  0.57005  0.56045  1.0000
  S   S96       1.0  0.15070  0.48000  0.69553  1.0000
  C   C717      1.0  0.10188  0.87058  0.48933  1.0000
  C   C718      1.0  0.13192  0.80298  0.48893  1.0000
  C   C719      1.0  0.35829  0.44133  0.29396  1.0000
  C   C720      1.0  0.42739  0.04213  0.99889  1.0000
  S   S97       1.0  0.24171  0.15408  0.04036  1.0000
  C   C721      1.0  0.24416  0.39296  0.05604  1.0000
  S   S98       1.0  0.23936  0.25767  0.14850  1.0000
  C   C722      1.0  0.34973  0.43438  0.20492  1.0000
  S   S99       1.0  0.42260  0.35652  0.16638  1.0000
  H   H577      1.0  0.47550  0.43399  0.39175  1.0000
  C   C723      1.0  0.24105  0.23866  0.21894  1.0000
  Fe  Fe49      1.0  0.46523  0.17321  0.11219  1.0000
  S   S100      1.0  0.45501  0.12411  0.13089  1.0000
  S   S101      1.0  0.46104  0.24178  0.11394  1.0000
  C   C724      1.0  0.29383  0.47098  0.32193  1.0000
  H   H578      1.0  0.23833  0.01640  0.01501  1.0000
  Fe  Fe50      1.0  0.45714  0.09024  0.09823  1.0000
  S   S102      1.0  0.44251  0.06334  0.07911  1.0000
  H   H579      1.0  0.35663  0.42010  0.30835  1.0000
  S   S103      1.0  0.46629  0.14141  0.07864  1.0000
  H   H580      1.0  0.24465  0.33124  0.06941  1.0000
  H   H581      1.0  0.47228  0.20544  0.18190  1.0000
  P   P24       1.0  0.43683  0.45973  0.43237  1.0000
  H   H582      1.0  0.41247  0.05321  0.18724  1.0000
  H   H583      1.0  0.43119  0.11233  0.11205  1.0000
  S   S104      1.0  0.30491  0.42646  0.45575  1.0000
  Fe  Fe51      1.0  0.28441  0.41047  0.20349  1.0000
  S   S105      1.0  0.27113  0.43344  0.23002  1.0000
  S   S106      1.0  0.28206  0.36133  0.17777  1.0000
  C   C725      1.0  0.46763  0.41144  0.13236  1.0000
  H   H584      1.0  0.45374  0.17839  0.17091  1.0000
  C   C726      1.0  0.45033  0.41962  0.24182  1.0000
  S   S107      1.0  0.29938  0.41135  0.22755  1.0000
  C   C727      1.0  0.47771  0.32242  0.24574  1.0000
  H   H585      1.0  0.23650  0.24982  0.01930  1.0000
  C   C728      1.0  0.40684  0.15229  0.14017  1.0000
  C   C729      1.0  0.40344  0.05568  0.18235  1.0000
  C   C730      1.0  0.23723  0.42827  0.05297  1.0000
  C   C731      1.0  0.36651  0.41906  0.13809  1.0000
  H   H586      1.0  0.43151  0.09724  0.16293  1.0000
  H   H587      1.0  0.45415  0.33840  0.40111  1.0000
  Fe  Fe52      1.0  0.28843  0.42573  0.47939  1.0000
  P   P25       1.0  0.23295  0.44238  0.15735  1.0000
  Fe  Fe53      1.0  0.41589  0.42244  0.17147  1.0000
  C   C732      1.0  0.43089  0.41665  0.42005  1.0000
  Fe  Fe54      1.0  0.29469  0.46842  0.43164  1.0000
  C   C733      1.0  0.43841  0.01218  0.07984  1.0000
  H   H588      1.0  0.46115  0.07763  0.04233  1.0000
  C   C734      1.0  0.25505  0.39366  0.40146  1.0000
  H   H589      1.0  0.27646  0.43714  0.14886  1.0000
  C   C735      1.0  0.23755  0.99028  0.04959  1.0000
  C   C736      1.0  0.35870  0.46196  0.19953  1.0000
  P   P26       1.0  0.46909  0.41348  0.18004  1.0000
  C   C737      1.0  0.43327  0.32542  0.15118  1.0000
  C   C738      1.0  0.43355  0.28337  0.15610  1.0000
  C   C739      1.0  0.44182  0.25735  0.14476  1.0000
  C   C740      1.0  0.45003  0.27293  0.12826  1.0000
  C   C741      1.0  0.44977  0.31500  0.12333  1.0000
  C   C742      1.0  0.44146  0.34105  0.13464  1.0000
  H   H590      1.0  0.42726  0.27078  0.16878  1.0000
  H   H591      1.0  0.44179  0.22522  0.14872  1.0000
  H   H592      1.0  0.45605  0.32756  0.11063  1.0000
  H   H593      1.0  0.44138  0.37318  0.13053  1.0000
  C   C743      1.0  0.28712  0.42386  0.36144  1.0000
  C   C744      1.0  0.47270  0.17038  0.21419  1.0000
  H   H594      1.0  0.42130  0.39690  0.45141  1.0000
  C   C745      1.0  0.23366  0.37994  0.21975  1.0000
  C   C746      1.0  0.25206  0.11329  0.03493  1.0000
  C   C747      1.0  0.25349  0.09904  0.01256  1.0000
  C   C748      1.0  0.26191  0.06808  0.00709  1.0000
  C   C749      1.0  0.26917  0.05119  0.02390  1.0000
  C   C750      1.0  0.26771  0.06545  0.04624  1.0000
  C   C751      1.0  0.25914  0.09584  0.05183  1.0000
  C   C752      1.0  0.44905  0.46874  0.13078  1.0000
  H   H595      1.0  0.27981  0.38488  0.33771  1.0000
  H   H596      1.0  0.27343  0.05340  0.05920  1.0000
  H   H597      1.0  0.25831  0.10671  0.06901  1.0000
  C   C753      1.0  0.26961  0.33634  0.16863  1.0000
  C   C754      1.0  0.27076  0.31484  0.14836  1.0000
  C   C755      1.0  0.26147  0.29198  0.14132  1.0000
  C   C756      1.0  0.25097  0.28950  0.15480  1.0000
  C   C757      1.0  0.24976  0.31154  0.17484  1.0000
  C   C758      1.0  0.25891  0.33525  0.18157  1.0000
  H   H598      1.0  0.27898  0.31534  0.13819  1.0000
  H   H599      1.0  0.26262  0.27516  0.12593  1.0000
  H   H600      1.0  0.24171  0.30975  0.18544  1.0000
  H   H601      1.0  0.25786  0.35152  0.19718  1.0000
  H   H602      1.0  0.44939  0.45901  0.09458  1.0000
  H   H603      1.0  0.24105  0.45417  0.04379  1.0000
  H   H604      1.0  0.40495  0.06738  0.05427  1.0000
  H   H605      1.0  0.24235  0.23075  0.20115  1.0000
  H   H606      1.0  0.24814  0.11239  0.99926  1.0000
  H   H607      1.0  0.32985  0.44166  0.39317  1.0000
  C   C759      1.0  0.45395  0.03645  0.01988  1.0000
  Fe  Fe55      1.0  0.23286  0.18222  0.07255  1.0000
  C   C760      1.0  0.26833  0.43761  0.14004  1.0000
  H   H608      1.0  0.39785  0.04077  0.01125  1.0000
  C   C761      1.0  0.45754  0.41019  0.20243  1.0000
  C   C762      1.0  0.44004  0.44934  0.46202  1.0000
  S   S108      1.0  0.27786  0.46370  0.45410  1.0000
  H   H609      1.0  0.24323  0.15320  0.21733  1.0000
  H   H610      1.0  0.46812  0.42849  0.22954  1.0000
  C   C763      1.0  0.46790  0.18340  0.19332  1.0000
  C   C764      1.0  0.45955  0.41984  0.22500  1.0000
  H   H611      1.0  0.25326  0.39193  0.04963  1.0000
  H   H612      1.0  0.47114  0.98131  0.04301  1.0000
  H   H613      1.0  0.43800  0.43100  0.38556  1.0000
  C   C765      1.0  0.31670  0.40583  0.28312  1.0000
  C   C766      1.0  0.31258  0.37197  0.27322  1.0000
  C   C767      1.0  0.32032  0.34687  0.26062  1.0000
  C   C768      1.0  0.33224  0.35529  0.25822  1.0000
  C   C769      1.0  0.33646  0.38842  0.26872  1.0000
  S   S109      1.0  0.23355  0.16049  0.10968  1.0000
  C   C770      1.0  0.38892  0.06655  0.15367  1.0000
  S   S110      1.0  0.37356  0.44333  0.19639  1.0000
  H   H614      1.0  0.34573  0.39417  0.26642  1.0000
  H   H615      1.0  0.25209  0.10478  0.19015  1.0000
  C   C771      1.0  0.46674  0.32044  0.45249  1.0000
  S   S111      1.0  0.40586  0.42963  0.20544  1.0000
  C   C772      1.0  0.40240  0.00914  0.11340  1.0000
  C   C773      1.0  0.24131  0.02769  0.11494  1.0000
  H   H616      1.0  0.37570  0.05124  0.20692  1.0000
  C   C774      1.0  0.35524  0.43249  0.14543  1.0000
  C   C775      1.0  0.32431  0.42616  0.33770  1.0000
  H   H617      1.0  0.42878  0.38594  0.21043  1.0000
  H   H618      1.0  0.25703  0.27157  0.21786  1.0000
  C   C776      1.0  0.40679  0.02962  0.00762  1.0000
  C   C777      1.0  0.42559  0.04452  0.14702  1.0000
  H   H619      1.0  0.30329  0.36582  0.27484  1.0000
  H   H620      1.0  0.31702  0.32134  0.25242  1.0000
  H   H621      1.0  0.33822  0.33630  0.24808  1.0000
  H   H622      1.0  0.31047  0.42578  0.29200  1.0000
  C   C778      1.0  0.24107  0.44624  0.22448  1.0000
  H   H623      1.0  0.41550  0.32986  0.39238  1.0000
  C   C779      1.0  0.42497  0.13470  0.11885  1.0000
  S   S112      1.0  0.28417  0.41874  0.29178  1.0000
  Fe  Fe56      1.0  0.28625  0.43979  0.25320  1.0000
  C   C780      1.0  0.32311  0.42376  0.36168  1.0000
  H   H624      1.0  0.47067  0.27323  0.15585  1.0000
  C   C781      1.0  0.44385  0.41044  0.46959  1.0000
  C   C782      1.0  0.41925  0.20494  0.12336  1.0000
  C   C783      1.0  0.45735  0.16817  0.18703  1.0000
  C   C784      1.0  0.45853  0.44511  0.40913  1.0000
  H   H625      1.0  0.39892  0.14409  0.15006  1.0000
  C   C785      1.0  0.41783  0.36018  0.42350  1.0000
  H   H626      1.0  0.41240  0.09704  0.08801  1.0000
  H   H627      1.0  0.27112  0.40661  0.41698  1.0000
  C   C786      1.0  0.46222  0.06350  0.02596  1.0000
  H   H628      1.0  0.23625  0.27263  0.28145  1.0000
  C   C787      1.0  0.29320  0.45910  0.36408  1.0000
  C   C788      1.0  0.39918  0.01326  0.07271  1.0000
  H   H629      1.0  0.24693  0.04484  0.10276  1.0000
  H   H630      1.0  0.43791  0.30260  0.42236  1.0000
  H   H631      1.0  0.46600  0.40857  0.09588  1.0000
  C   C789      1.0  0.47012  0.30451  0.23162  1.0000
  C   C790      1.0  0.44587  0.30804  0.43081  1.0000
  H   H632      1.0  0.39655  0.04552  0.21717  1.0000
  C   C791      1.0  0.40837  0.06803  0.09011  1.0000
  C   C792      1.0  0.40752  0.04714  0.11161  1.0000
  H   H633      1.0  0.23931  0.46003  0.36802  1.0000
  C   C793      1.0  0.39442  0.05136  0.19943  1.0000
  C   C794      1.0  0.22936  0.23891  0.25486  1.0000
  H   H634      1.0  0.31781  0.41213  0.32830  1.0000
  C   C795      1.0  0.24698  0.44001  0.14138  1.0000
  H   H635      1.0  0.40296  0.21614  0.14274  1.0000
  C   C796      1.0  0.24613  0.40882  0.38762  1.0000
  H   H636      1.0  0.46107  0.33972  0.16205  1.0000
  H   H637      1.0  0.44484  0.38630  0.45779  1.0000
  H   H638      1.0  0.28462  0.40507  0.37641  1.0000
  H   H639      1.0  0.43512  0.18471  0.10500  1.0000
  C   C797      1.0  0.47320  0.05430  0.98992  1.0000
  S   S113      1.0  0.47488  0.07226  0.17642  1.0000
  C   C798      1.0  0.32872  0.41377  0.28154  1.0000
  C   C799      1.0  0.40411  0.05129  0.07081  1.0000
  H   H640      1.0  0.44649  0.03040  0.03163  1.0000
  H   H641      1.0  0.42100  0.23671  0.12023  1.0000
  C   C800      1.0  0.46542  0.33450  0.42966  1.0000
  P   P27       1.0  0.33402  0.45656  0.29546  1.0000
  C   C801      1.0  0.42987  0.00091  0.06512  1.0000
  H   H642      1.0  0.25404  0.29294  0.25785  1.0000
  C   C802      1.0  0.26866  0.43398  0.11633  1.0000
  C   C803      1.0  0.24610  0.99681  0.12909  1.0000
  C   C804      1.0  0.24737  0.43615  0.11750  1.0000
  C   C805      1.0  0.41589  0.05660  0.00373  1.0000
  C   C806      1.0  0.26419  0.45855  0.39792  1.0000
  H   H643      1.0  0.44475  0.38822  0.18037  1.0000
  C   C807      1.0  0.46311  0.42832  0.15276  1.0000
  Fe  Fe57      1.0  0.47272  0.09580  0.13937  1.0000
  H   H644      1.0  0.23625  0.35970  0.14286  1.0000
  C   C808      1.0  0.28445  0.41233  0.33933  1.0000
  C   C809      1.0  0.28778  0.43563  0.31932  1.0000
  C   C810      1.0  0.43735  0.39577  0.21447  1.0000
  C   C811      1.0  0.45159  0.13935  0.20131  1.0000
  C   C812      1.0  0.45504  0.32815  0.41886  1.0000
  H   H645      1.0  0.45216  0.10224  0.23256  1.0000
  C   C813      1.0  0.41483  0.12262  0.13170  1.0000
  H   H646      1.0  0.44348  0.12734  0.19628  1.0000
  H   H647      1.0  0.38083  0.47184  0.25721  1.0000
  C   C814      1.0  0.42728  0.37908  0.38661  1.0000
  C   C815      1.0  0.23931  0.35871  0.06709  1.0000
  C   C816      1.0  0.46697  0.14089  0.22828  1.0000
  C   C817      1.0  0.47190  0.07218  0.01109  1.0000
  S   S114      1.0  0.28027  0.01278  0.01816  1.0000
  C   C818      1.0  0.43831  0.98449  0.15165  1.0000
  C   C819      1.0  0.45400  0.45779  0.15170  1.0000
  H   H648      1.0  0.25765  0.44321  0.17093  1.0000
  H   H649      1.0  0.38664  0.07277  0.13604  1.0000
  C   C820      1.0  0.43330  0.06577  0.15958  1.0000
  C   C821      1.0  0.40908  0.19328  0.13605  1.0000
  H   H650      1.0  0.37082  0.06482  0.16631  1.0000
  C   C822      1.0  0.44350  0.04663  0.16774  1.0000
  C   C823      1.0  0.23834  0.14540  0.20291  1.0000
  C   C824      1.0  0.42719  0.17566  0.11477  1.0000
  H   H651      1.0  0.45652  0.41356  0.41066  1.0000
  H   H652      1.0  0.27986  0.03028  0.09687  1.0000
  C   C825      1.0  0.27955  0.99779  0.09968  1.0000
  C   C826      1.0  0.23708  0.10630  0.16926  1.0000
  H   H653      1.0  0.25506  0.36254  0.40806  1.0000
  H   H654      1.0  0.42862  0.37482  0.36837  1.0000
  H   H655      1.0  0.33101  0.42560  0.21044  1.0000
  C   C827      1.0  0.45745  0.30041  0.46441  1.0000
  H   H656      1.0  0.42627  0.02312  0.05303  1.0000
  H   H657      1.0  0.35204  0.40259  0.20725  1.0000
  C   C828      1.0  0.44704  0.29442  0.45361  1.0000
  H   H658      1.0  0.45169  0.42929  0.25890  1.0000
  S   S115      1.0  0.23307  0.24872  0.08030  1.0000
  C   C829      1.0  0.46980  0.33346  0.16807  1.0000
  C   C830      1.0  0.23115  0.22595  0.23237  1.0000
  H   H659      1.0  0.24483  0.46790  0.23503  1.0000
  H   H660      1.0  0.39618  0.99974  0.05766  1.0000
  P   P28       1.0  0.41228  0.06938  0.13706  1.0000
  C   C831      1.0  0.23933  0.45660  0.20142  1.0000
  C   C832      1.0  0.24335  0.11756  0.18769  1.0000
  C   C833      1.0  0.33350  0.44764  0.32636  1.0000
  C   C834      1.0  0.36975  0.44443  0.28434  1.0000
  C   C835      1.0  0.37993  0.06221  0.17079  1.0000
  H   H661      1.0  0.46952  0.40701  0.45715  1.0000
  C   C836      1.0  0.40075  0.06313  0.15931  1.0000
  C   C837      1.0  0.23761  0.26285  0.26405  1.0000
  C   C838      1.0  0.26407  0.41851  0.40657  1.0000
  C   C839      1.0  0.44603  0.00610  0.16369  1.0000
  C   C840      1.0  0.24622  0.44886  0.37891  1.0000
  C   C841      1.0  0.38267  0.05458  0.19366  1.0000
  C   C842      1.0  0.33778  0.44735  0.20679  1.0000
  C   C843      1.0  0.45645  0.12543  0.22181  1.0000
  C   C844      1.0  0.42327  0.39157  0.43343  1.0000
  H   H662      1.0  0.40157  0.99246  0.12978  1.0000
  C   C845      1.0  0.42817  0.00362  0.14320  1.0000
  H   H663      1.0  0.23934  0.43477  0.10856  1.0000
  C   C846      1.0  0.34014  0.46447  0.36354  1.0000
  C   C847      1.0  0.23834  0.40781  0.23362  1.0000
  H   H664      1.0  0.46224  0.32087  0.22621  1.0000
  C   C848      1.0  0.24763  0.27437  0.25079  1.0000
  C   C849      1.0  0.44646  0.39705  0.19745  1.0000
  C   C850      1.0  0.45335  0.45091  0.11070  1.0000
  C   C851      1.0  0.39838  0.99213  0.09398  1.0000
  C   C852      1.0  0.24219  0.99444  0.02700  1.0000
  C   C853      1.0  0.43919  0.40794  0.23648  1.0000
  H   H665      1.0  0.47487  0.38940  0.13247  1.0000
  H   H666      1.0  0.41186  0.34122  0.43389  1.0000
  C   C854      1.0  0.25818  0.43348  0.10503  1.0000
  S   S116      1.0  0.28831  0.47215  0.18753  1.0000
  H   H667      1.0  0.34950  0.41220  0.15543  1.0000
  C   C855      1.0  0.47891  0.40895  0.45366  1.0000
  C   C856      1.0  0.46929  0.45653  0.39850  1.0000
  C   C857      1.0  0.41985  0.35386  0.40012  1.0000
  H   H668      1.0  0.45407  0.99168  0.16969  1.0000
  H   H669      1.0  0.43995  0.27866  0.46287  1.0000
  H   H670      1.0  0.36951  0.38840  0.14240  1.0000
  H   H671      1.0  0.24095  0.08493  0.15735  1.0000
  C   C858      1.0  0.43269  0.41066  0.39647  1.0000
  Fe  Fe58      1.0  0.23238  0.22696  0.11760  1.0000
  H   H672      1.0  0.31581  0.40808  0.37028  1.0000
  C   C859      1.0  0.44324  0.98286  0.09488  1.0000
  H   H673      1.0  0.43194  0.40870  0.24929  1.0000
  S   S117      1.0  0.47385  0.05799  0.10831  1.0000
  C   C860      1.0  0.24933  0.26228  0.22825  1.0000
  C   C861      1.0  0.23179  0.39040  0.19670  1.0000
  C   C862      1.0  0.45048  0.47440  0.41774  1.0000
  S   S118      1.0  0.40167  0.45606  0.15197  1.0000
  H   H674      1.0  0.44959  0.06330  0.17687  1.0000
  C   C863      1.0  0.42991  0.00041  0.99825  1.0000
  H   H675      1.0  0.25965  0.37481  0.48812  1.0000
  C   C864      1.0  0.25756  0.44081  0.15256  1.0000
  H   H676      1.0  0.47061  0.12942  0.24414  1.0000
  H   H677      1.0  0.26473  0.99316  0.07906  1.0000
  H   H678      1.0  0.45064  0.47190  0.16714  1.0000
  H   H679      1.0  0.25079  0.43847  0.45163  1.0000
  C   C865      1.0  0.46270  0.42250  0.11146  1.0000
  H   H680      1.0  0.23919  0.38941  0.38349  1.0000
  H   H681      1.0  0.25848  0.43053  0.08667  1.0000
  H   H682      1.0  0.47776  0.47281  0.44484  1.0000
  C   C866      1.0  0.45529  0.01752  0.99887  1.0000
  H   H683      1.0  0.27705  0.43111  0.10681  1.0000
  H   H684      1.0  0.29467  0.99362  0.12030  1.0000
  C   C867      1.0  0.24234  0.45014  0.48462  1.0000
  H   H685      1.0  0.23001  0.00881  0.05512  1.0000
  C   C868      1.0  0.35152  0.47252  0.14077  1.0000
  H   H686      1.0  0.42256  0.98638  0.13338  1.0000
  C   C869      1.0  0.24716  0.46137  0.46283  1.0000
  H   H687      1.0  0.23998  0.39957  0.25136  1.0000
  C   C870      1.0  0.34133  0.46721  0.33954  1.0000
  C   C871      1.0  0.23477  0.42864  0.18728  1.0000
  C   C872      1.0  0.40919  0.98816  0.00668  1.0000
  C   C873      1.0  0.22929  0.25041  0.00790  1.0000
  S   S119      1.0  0.42597  0.47849  0.17579  1.0000
  C   C874      1.0  0.37201  0.47025  0.26510  1.0000
  H   H688      1.0  0.46647  0.25236  0.21377  1.0000
  C   C875      1.0  0.34897  0.46434  0.28449  1.0000
  H   H689      1.0  0.37687  0.42616  0.29144  1.0000
  C   C876      1.0  0.47259  0.26532  0.22453  1.0000
  H   H690      1.0  0.47253  0.34963  0.42006  1.0000
  H   H691      1.0  0.44997  0.99095  0.10599  1.0000
  H   H692      1.0  0.25547  0.98995  0.12793  1.0000
  C   C877      1.0  0.47579  0.36344  0.17831  1.0000
  C   C878      1.0  0.33100  0.44290  0.37460  1.0000
  H   H693      1.0  0.45821  0.28889  0.48194  1.0000
  Fe  Fe59      1.0  0.30225  0.47480  0.21342  1.0000
  C   C879      1.0  0.47518  0.29559  0.16470  1.0000
  H   H694      1.0  0.41403  0.08878  0.00440  1.0000
  S   S120      1.0  0.29698  0.47520  0.39170  1.0000
  H   H695      1.0  0.23165  0.34999  0.22674  1.0000
  Fe  Fe60      1.0  0.39211  0.46579  0.18640  1.0000
  H   H696      1.0  0.43428  0.06357  0.99558  1.0000
  H   H697      1.0  0.26294  0.05780  0.98980  1.0000
  C   C880      1.0  0.37404  0.44555  0.12583  1.0000
  H   H698      1.0  0.47569  0.35258  0.25143  1.0000
  H   H699      1.0  0.38282  0.43516  0.12037  1.0000
  H   H700      1.0  0.47838  0.09282  0.01597  1.0000
  H   H701      1.0  0.25677  0.46726  0.33627  1.0000
  C   C881      1.0  0.22921  0.03636  0.11642  1.0000
  P   P29       1.0  0.44470  0.98147  0.99150  1.0000
  C   C882      1.0  0.25526  0.47409  0.38402  1.0000
  H   H702      1.0  0.27136  0.47692  0.40194  1.0000
  H   H703      1.0  0.26387  0.47274  0.29581  1.0000
  H   H704      1.0  0.24219  0.41846  0.48999  1.0000
  H   H705      1.0  0.32236  0.42021  0.52920  1.0000
  S   S121      1.0  0.25188  0.12468  0.61756  1.0000
  H   H706      1.0  0.33383  0.07977  0.64947  1.0000
  H   H707      1.0  0.25474  0.07219  0.49618  1.0000
  H   H708      1.0  0.24549  0.43094  0.61629  1.0000
  H   H709      1.0  0.45218  0.40195  0.64383  1.0000
  C   C883      1.0  0.35702  0.47188  0.60439  1.0000
  H   H710      1.0  0.24980  0.01867  0.82253  1.0000
  C   C884      1.0  0.44525  0.43329  0.50805  1.0000
  H   H711      1.0  0.27509  0.43160  0.53898  1.0000
  C   C885      1.0  0.23150  0.03523  0.52862  1.0000
  H   H712      1.0  0.23019  0.02392  0.57896  1.0000
  H   H713      1.0  0.24087  0.04319  0.65192  1.0000
  S   S122      1.0  0.26932  0.05001  0.71395  1.0000
  Fe  Fe61      1.0  0.46144  0.31846  0.60795  1.0000
  S   S123      1.0  0.46293  0.25554  0.59451  1.0000
  S   S124      1.0  0.45559  0.37869  0.59008  1.0000
  H   H714      1.0  0.29461  0.04190  0.61093  1.0000
  Fe  Fe62      1.0  0.46074  0.23160  0.63160  1.0000
  S   S125      1.0  0.44786  0.18299  0.64724  1.0000
  H   H715      1.0  0.30944  0.39057  0.56072  1.0000
  S   S126      1.0  0.45796  0.29511  0.64442  1.0000
  C   C886      1.0  0.35696  0.03166  0.81346  1.0000
  C   C887      1.0  0.36630  0.00623  0.80593  1.0000
  H   H716      1.0  0.25866  0.46665  0.52003  1.0000
  C   C888      1.0  0.43868  0.99128  0.94569  1.0000
  C   C889      1.0  0.25708  0.02607  0.85523  1.0000
  C   C890      1.0  0.44196  0.40240  0.58284  1.0000
  C   C891      1.0  0.43118  0.38423  0.58766  1.0000
  C   C892      1.0  0.42064  0.40458  0.58141  1.0000
  C   C893      1.0  0.42076  0.44322  0.57033  1.0000
  C   C894      1.0  0.35324  0.06442  0.79940  1.0000
  C   C895      1.0  0.44206  0.44123  0.57199  1.0000
  H   H717      1.0  0.43095  0.35445  0.59605  1.0000
  H   H718      1.0  0.41235  0.39016  0.58507  1.0000
  C   C896      1.0  0.46058  0.10342  0.69214  1.0000
  H   H719      1.0  0.45034  0.45567  0.56829  1.0000
  C   C897      1.0  0.44345  0.13112  0.64758  1.0000
  C   C898      1.0  0.44947  0.10156  0.63466  1.0000
  C   C899      1.0  0.44571  0.06113  0.63587  1.0000
  C   C900      1.0  0.43582  0.04921  0.64988  1.0000
  C   C901      1.0  0.42985  0.07870  0.66288  1.0000
  C   C902      1.0  0.43364  0.11906  0.66178  1.0000
  H   H720      1.0  0.45703  0.10985  0.62368  1.0000
  H   H721      1.0  0.45046  0.03895  0.62567  1.0000
  H   H722      1.0  0.42221  0.07049  0.67361  1.0000
  H   H723      1.0  0.42886  0.14129  0.67191  1.0000
  H   H724      1.0  0.30513  0.12126  0.55392  1.0000
  C   C903      1.0  0.44003  0.98402  0.92227  1.0000
  S   S127      1.0  0.30060  0.98357  0.96023  1.0000
  C   C904      1.0  0.43154  0.46155  0.56577  1.0000
  C   C905      1.0  0.23175  0.47379  0.62686  1.0000
  C   C906      1.0  0.31028  0.04820  0.65907  1.0000
  C   C907      1.0  0.30002  0.08139  0.69916  1.0000
  C   C908      1.0  0.27057  0.34725  0.51367  1.0000
  C   C909      1.0  0.27082  0.31992  0.53293  1.0000
  C   C910      1.0  0.26054  0.30080  0.54185  1.0000
  C   C911      1.0  0.24987  0.30811  0.53134  1.0000
  C   C912      1.0  0.24969  0.33491  0.51182  1.0000
  C   C913      1.0  0.46738  0.07293  0.68167  1.0000
  H   H725      1.0  0.27902  0.31362  0.54109  1.0000
  H   H726      1.0  0.26090  0.28015  0.55674  1.0000
  H   H727      1.0  0.24160  0.34020  0.50318  1.0000
  H   H728      1.0  0.38549  0.44038  0.59302  1.0000
  C   C914      1.0  0.25674  0.10520  0.64465  1.0000
  C   C915      1.0  0.26525  0.07331  0.64509  1.0000
  C   C916      1.0  0.26895  0.05528  0.66603  1.0000
  C   C917      1.0  0.26449  0.06991  0.68695  1.0000
  C   C918      1.0  0.25614  0.10228  0.68652  1.0000
  C   C919      1.0  0.25225  0.11973  0.66557  1.0000
  H   H729      1.0  0.26899  0.06248  0.62908  1.0000
  H   H730      1.0  0.27542  0.03058  0.66599  1.0000
  H   H731      1.0  0.25265  0.11404  0.70254  1.0000
  H   H732      1.0  0.24581  0.14452  0.66564  1.0000
  C   C920      1.0  0.24903  0.38366  0.67963  1.0000
  H   H733      1.0  0.36600  0.00802  0.64610  1.0000
  C   C921      1.0  0.25991  0.35463  0.50319  1.0000
  H   H734      1.0  0.25724  0.39237  0.68611  1.0000
  C   C922      1.0  0.30152  0.05766  0.60110  1.0000
  C   C923      1.0  0.47719  0.28802  0.50935  1.0000
  H   H735      1.0  0.26162  0.00051  0.50075  1.0000
  C   C924      1.0  0.39388  0.00894  0.75533  1.0000
  P   P30       1.0  0.31677  0.02491  0.63365  1.0000
  C   C925      1.0  0.36824  0.04655  0.77028  1.0000
  C   C926      1.0  0.35884  0.07175  0.77779  1.0000
  H   H736      1.0  0.46018  0.13360  0.68409  1.0000
  C   C927      1.0  0.45397  0.44009  0.67218  1.0000
  C   C928      1.0  0.24313  0.41525  0.56302  1.0000
  C   C929      1.0  0.40340  0.02788  0.76403  1.0000
  C   C930      1.0  0.41107  0.05028  0.74931  1.0000
  C   C931      1.0  0.40923  0.05432  0.72585  1.0000
  C   C932      1.0  0.39966  0.03626  0.71712  1.0000
  C   C933      1.0  0.39202  0.01361  0.73176  1.0000
  S   S128      1.0  0.23652  0.28500  0.54171  1.0000
  H   H737      1.0  0.47293  0.01045  0.68320  1.0000
  C   C934      1.0  0.25254  0.39507  0.57355  1.0000
  P   P31       1.0  0.23291  0.46314  0.52839  1.0000
  S   S129      1.0  0.23237  0.17140  0.57024  1.0000
  H   H738      1.0  0.34007  0.00542  0.77000  1.0000
  H   H739      1.0  0.39027  0.01230  0.81767  1.0000
  H   H740      1.0  0.24539  0.44192  0.66338  1.0000
  H   H741      1.0  0.23119  0.30343  0.68032  1.0000
  H   H742      1.0  0.25922  0.05729  0.85139  1.0000
  C   C935      1.0  0.25181  0.00425  0.83897  1.0000
  H   H743      1.0  0.37234  0.05249  0.75335  1.0000
  H   H744      1.0  0.35585  0.09685  0.76676  1.0000
  H   H745      1.0  0.34590  0.08382  0.80512  1.0000
  C   C936      1.0  0.24632  0.98242  0.52154  1.0000
  C   C937      1.0  0.47445  0.28686  0.53299  1.0000
  H   H746      1.0  0.40503  0.02523  0.78209  1.0000
  H   H747      1.0  0.41852  0.06423  0.75603  1.0000
  H   H748      1.0  0.41524  0.07133  0.71441  1.0000
  H   H749      1.0  0.39828  0.03925  0.69888  1.0000
  H   H750      1.0  0.25026  0.32286  0.69448  1.0000
  S   S130      1.0  0.29511  0.99281  0.74833  1.0000
  C   C938      1.0  0.39356  0.98129  0.81724  1.0000
  C   C939      1.0  0.31014  0.05656  0.70027  1.0000
  C   C940      1.0  0.32173  0.00787  0.78070  1.0000
  H   H751      1.0  0.35045  0.46719  0.50812  1.0000
  Fe  Fe63      1.0  0.23724  0.17109  0.60741  1.0000
  H   H752      1.0  0.46605  0.01417  0.96723  1.0000
  H   H753      1.0  0.32299  0.02041  0.68175  1.0000
  H   H754      1.0  0.38470  0.99965  0.72459  1.0000
  C   C941      1.0  0.47182  0.32262  0.54410  1.0000
  C   C942      1.0  0.23171  0.40027  0.65809  1.0000
  H   H755      1.0  0.27133  0.38463  0.57269  1.0000
  C   C943      1.0  0.25326  0.01025  0.50873  1.0000
  H   H756      1.0  0.22938  0.36348  0.61572  1.0000
  C   C944      1.0  0.26122  0.99316  0.61129  1.0000
  H   H757      1.0  0.23090  0.37414  0.53551  1.0000
  H   H758      1.0  0.36993  0.43945  0.62459  1.0000
  C   C945      1.0  0.47203  0.35962  0.53171  1.0000
  C   C946      1.0  0.44636  0.40242  0.49258  1.0000
  C   C947      1.0  0.26617  0.42755  0.54595  1.0000
  C   C948      1.0  0.37686  0.45419  0.59031  1.0000
  S   S131      1.0  0.23750  0.23923  0.60758  1.0000
  C   C949      1.0  0.28589  0.98279  0.85273  1.0000
  C   C950      1.0  0.24937  0.05058  0.50606  1.0000
  H   H759      1.0  0.23572  0.30040  0.98652  1.0000
  H   H760      1.0  0.30394  0.00252  0.79471  1.0000
  H   H761      1.0  0.28958  0.08465  0.57689  1.0000
  C   C951      1.0  0.23437  0.33360  0.67654  1.0000
  C   C952      1.0  0.33251  0.02026  0.63643  1.0000
  C   C953      1.0  0.24514  0.44008  0.54314  1.0000
  H   H762      1.0  0.44509  0.45726  0.61798  1.0000
  H   H763      1.0  0.28409  0.99017  0.81596  1.0000
  H   H764      1.0  0.29581  0.09309  0.71467  1.0000
  C   C954      1.0  0.36811  0.45384  0.60805  1.0000
  H   H765      1.0  0.23536  0.09416  0.51366  1.0000
  H   H766      1.0  0.31271  0.98927  0.89861  1.0000
  H   H767      1.0  0.31936  0.02905  0.76685  1.0000
  Fe  Fe64      1.0  0.28142  0.99470  0.72158  1.0000
  S   S132      1.0  0.43137  0.99740  0.65040  1.0000
  C   C955      1.0  0.33884  0.98483  0.63044  1.0000
  C   C956      1.0  0.30023  0.07410  0.65810  1.0000
  C   C957      1.0  0.24233  0.41157  0.66660  1.0000
  C   C958      1.0  0.33852  0.05205  0.64494  1.0000
  C   C959      1.0  0.45112  0.43234  0.64992  1.0000
  C   C960      1.0  0.26406  0.40115  0.56498  1.0000
  C   C961      1.0  0.31317  0.05456  0.60795  1.0000
  C   C962      1.0  0.25677  0.44695  0.53502  1.0000
  H   H768      1.0  0.42468  0.47426  0.62513  1.0000
  H   H769      1.0  0.43396  0.99815  0.91044  1.0000
  H   H770      1.0  0.38128  0.47204  0.55506  1.0000
  H   H771      1.0  0.45727  0.41563  0.68337  1.0000
  C   C963      1.0  0.44178  0.47235  0.50048  1.0000
  H   H772      1.0  0.36885  0.98043  0.81680  1.0000
  C   C964      1.0  0.24251  0.46229  0.61583  1.0000
  C   C965      1.0  0.46108  0.02474  0.71220  1.0000
  C   C966      1.0  0.30738  0.10241  0.56884  1.0000
  C   C967      1.0  0.23141  0.04187  0.65373  1.0000
  H   H773      1.0  0.44868  0.11851  0.72047  1.0000
  S   S133      1.0  0.40728  0.46755  0.56267  1.0000
  C   C968      1.0  0.45408  0.09483  0.71265  1.0000
  H   H774      1.0  0.31390  0.04935  0.71667  1.0000
  C   C969      1.0  0.37214  0.01383  0.78441  1.0000
  H   H775      1.0  0.35077  0.99519  0.72394  1.0000
  C   C970      1.0  0.45434  0.05568  0.72272  1.0000
  C   C971      1.0  0.25008  0.98779  0.62204  1.0000
  H   H776      1.0  0.23426  0.41050  0.56990  1.0000
  C   C972      1.0  0.32358  0.45765  0.59090  1.0000
  H   H777      1.0  0.35248  0.02565  0.83006  1.0000
  C   C973      1.0  0.23552  0.99495  0.53203  1.0000
  C   C974      1.0  0.31593  0.42724  0.58651  1.0000
  C   C975      1.0  0.31538  0.41402  0.56425  1.0000
  C   C976      1.0  0.32266  0.43062  0.54649  1.0000
  C   C977      1.0  0.33035  0.46074  0.55091  1.0000
  C   C978      1.0  0.24509  0.34458  0.68446  1.0000
  H   H778      1.0  0.44906  0.37221  0.49853  1.0000
  Fe  Fe65      1.0  0.47757  0.29532  0.64809  1.0000
  H   H779      1.0  0.32405  0.46692  0.60832  1.0000
  H   H780      1.0  0.26219  0.01355  0.59628  1.0000
  H   H781      1.0  0.24252  0.00363  0.61495  1.0000
  C   C979      1.0  0.33056  0.47565  0.57291  1.0000
  H   H782      1.0  0.35512  0.07190  0.65544  1.0000
  C   C980      1.0  0.37449  0.47210  0.56885  1.0000
  S   S134      1.0  0.28387  0.37030  0.50312  1.0000
  H   H783      1.0  0.44917  0.04964  0.73852  1.0000
  C   C981      1.0  0.46770  0.03378  0.69170  1.0000
  H   H784      1.0  0.46952  0.43188  0.61579  1.0000
  H   H785      1.0  0.26423  0.02382  0.88870  1.0000
  C   C982      1.0  0.47893  0.42607  0.61446  1.0000
  H   H786      1.0  0.28474  0.01474  0.85539  1.0000
  H   H787      1.0  0.46978  0.32178  0.56242  1.0000
  Fe  Fe66      1.0  0.23143  0.23955  0.57152  1.0000
  H   H788      1.0  0.31050  0.41362  0.60038  1.0000
  H   H789      1.0  0.28727  0.10971  0.67726  1.0000
  C   C983      1.0  0.23846  0.06300  0.51591  1.0000
  H   H790      1.0  0.33601  0.47277  0.53702  1.0000
  H   H791      1.0  0.25089  0.37397  0.58802  1.0000
  H   H792      1.0  0.47503  0.39006  0.49898  1.0000
  H   H793      1.0  0.35029  0.47116  0.61823  1.0000
  H   H794      1.0  0.44704  0.42688  0.52591  1.0000
  H   H795      1.0  0.33097  0.07343  0.59952  1.0000
  C   C984      1.0  0.31305  0.99277  0.79626  1.0000
  C   C985      1.0  0.29517  0.09055  0.67805  1.0000
  C   C986      1.0  0.47750  0.32516  0.49670  1.0000
  C   C987      1.0  0.29864  0.08169  0.58174  1.0000
  C   C988      1.0  0.47491  0.36099  0.50812  1.0000
  C   C989      1.0  0.44704  0.46379  0.63531  1.0000
  C   C990      1.0  0.35057  0.04776  0.64831  1.0000
  H   H796      1.0  0.32579  0.11520  0.56530  1.0000
  C   C991      1.0  0.33342  0.99452  0.78252  1.0000
  H   H797      1.0  0.43154  0.01118  0.95162  1.0000
  C   C992      1.0  0.31524  0.04004  0.68037  1.0000
  H   H798      1.0  0.25103  0.98707  0.73011  1.0000
  C   C993      1.0  0.35673  0.01196  0.64294  1.0000
  H   H799      1.0  0.47218  0.07960  0.66548  1.0000
  H   H800      1.0  0.40100  0.98264  0.85035  1.0000
  H   H801      1.0  0.46995  0.38715  0.54055  1.0000
  C   C994      1.0  0.25983  0.00733  0.87629  1.0000
  C   C995      1.0  0.31902  0.09907  0.57530  1.0000
  H   H802      1.0  0.24840  0.99767  0.68882  1.0000
  H   H803      1.0  0.29610  0.08168  0.64225  1.0000
  H   H804      1.0  0.40400  0.46943  0.61689  1.0000
  C   C996      1.0  0.46490  0.02729  0.98375  1.0000
  C   C997      1.0  0.32192  0.07530  0.59479  1.0000
  H   H805      1.0  0.47454  0.25824  0.54282  1.0000
  S   S135      1.0  0.29378  0.47872  0.49857  1.0000
  H   H806      1.0  0.47905  0.25988  0.50104  1.0000
  C   C998      1.0  0.35089  0.98072  0.63382  1.0000
  P   P32       1.0  0.38392  0.98008  0.77433  1.0000
  H   H807      1.0  0.24413  0.61299  0.05734  1.0000
  H   H808      1.0  0.39905  0.57392  0.41868  1.0000
  H   H809      1.0  0.25829  0.88031  0.00247  1.0000
  C   C999      1.0  0.46440  0.52623  0.40626  1.0000
  H   H810      1.0  0.46680  0.75258  0.45571  1.0000
  C   C1000     1.0  0.44397  0.89759  0.99832  1.0000
  Fe  Fe67      1.0  0.41108  0.51311  0.15841  1.0000
  S   S136      1.0  0.41750  0.56187  0.13162  1.0000
  C   C1001     1.0  0.40694  0.80974  0.44862  1.0000
  S   S137      1.0  0.40068  0.52475  0.19160  1.0000
  C   C1002     1.0  0.26441  0.49828  0.30652  1.0000
  H   H811      1.0  0.44806  0.83294  0.04447  1.0000
  C   C1003     1.0  0.31296  0.75697  0.05579  1.0000
  H   H812      1.0  0.40062  0.71006  0.38807  1.0000
  H   H813      1.0  0.31291  0.63833  0.45030  1.0000
  C   C1004     1.0  0.42327  0.73306  0.48329  1.0000
  H   H814      1.0  0.44823  0.72185  0.28328  1.0000
  C   C1005     1.0  0.23857  0.87141  0.09075  1.0000
  Fe  Fe68      1.0  0.38849  0.85189  0.03871  1.0000
  S   S138      1.0  0.39533  0.82901  0.07271  1.0000
  S   S139      1.0  0.37031  0.88511  0.03962  1.0000
  Fe  Fe69      1.0  0.41139  0.82335  0.01276  1.0000
  S   S140      1.0  0.41946  0.79684  0.04493  1.0000
  Fe  Fe70      1.0  0.40148  0.77264  0.05508  1.0000
  S   S141      1.0  0.39518  0.71485  0.07529  1.0000
  Fe  Fe71      1.0  0.41277  0.85440  0.06082  1.0000
  S   S142      1.0  0.42488  0.88275  0.08503  1.0000
  S   S143      1.0  0.39380  0.79458  0.02129  1.0000
  S   S144      1.0  0.40553  0.88200  0.02859  1.0000
  S   S145      1.0  0.30032  0.52395  0.44870  1.0000
  H   H815      1.0  0.47091  0.72760  0.41660  1.0000
  C   C1006     1.0  0.31837  0.91518  0.07273  1.0000
  Fe  Fe72      1.0  0.47007  0.60268  0.31451  1.0000
  S   S146      1.0  0.46132  0.66139  0.32446  1.0000
  S   S147      1.0  0.46753  0.57607  0.27953  1.0000
  Fe  Fe73      1.0  0.46027  0.63339  0.36057  1.0000
  S   S148      1.0  0.44286  0.63721  0.38173  1.0000
  S   S149      1.0  0.46787  0.57300  0.35004  1.0000
  H   H816      1.0  0.39443  0.64008  0.45124  1.0000
  C   C1007     1.0  0.31034  0.64056  0.46835  1.0000
  C   C1008     1.0  0.37303  0.59552  0.05448  1.0000
  S   S150      1.0  0.26041  0.54086  0.20892  1.0000
  C   C1009     1.0  0.43723  0.60568  0.45920  1.0000
  C   C1010     1.0  0.42771  0.61210  0.44529  1.0000
  C   C1011     1.0  0.42960  0.62283  0.42178  1.0000
  C   C1012     1.0  0.44103  0.62580  0.41171  1.0000
  C   C1013     1.0  0.45059  0.62005  0.42571  1.0000
  C   C1014     1.0  0.44868  0.61006  0.44936  1.0000
  H   H817      1.0  0.41889  0.60858  0.45267  1.0000
  H   H818      1.0  0.42215  0.62838  0.41125  1.0000
  H   H819      1.0  0.45942  0.62348  0.41835  1.0000
  H   H820      1.0  0.45612  0.60559  0.46004  1.0000
  H   H821      1.0  0.32790  0.89030  0.10130  1.0000
  C   C1015     1.0  0.45960  0.74521  0.44550  1.0000
  C   C1016     1.0  0.33159  0.55362  0.14251  1.0000
  H   H822      1.0  0.43411  0.71667  0.40886  1.0000
  C   C1017     1.0  0.24776  0.50214  0.45590  1.0000
  H   H823      1.0  0.28640  0.77490  0.04055  1.0000
  C   C1018     1.0  0.35875  0.88976  0.01999  1.0000
  H   H824      1.0  0.33840  0.56432  0.08502  1.0000
  C   C1019     1.0  0.24303  0.85780  0.13707  1.0000
  H   H825      1.0  0.29331  0.74896  0.10193  1.0000
  C   C1020     1.0  0.29806  0.74139  0.08605  1.0000
  C   C1021     1.0  0.24306  0.80588  0.03249  1.0000
  C   C1022     1.0  0.25036  0.77281  0.02648  1.0000
  C   C1023     1.0  0.26049  0.77858  0.01184  1.0000
  C   C1024     1.0  0.26354  0.81747  0.00343  1.0000
  C   C1025     1.0  0.25617  0.85042  0.00923  1.0000
  C   C1026     1.0  0.24596  0.84462  0.02357  1.0000
  H   H826      1.0  0.24817  0.74281  0.03303  1.0000
  H   H827      1.0  0.34152  0.79530  0.00344  1.0000
  H   H828      1.0  0.44032  0.95310  0.14831  1.0000
  H   H829      1.0  0.24031  0.87036  0.02786  1.0000
  C   C1027     1.0  0.25105  0.60399  0.13963  1.0000
  C   C1028     1.0  0.24466  0.61292  0.16000  1.0000
  C   C1029     1.0  0.24754  0.59295  0.18096  1.0000
  C   C1030     1.0  0.25686  0.56398  0.18188  1.0000
  C   C1031     1.0  0.26310  0.55446  0.16143  1.0000
  C   C1032     1.0  0.26021  0.57438  0.14046  1.0000
  H   H830      1.0  0.23756  0.63547  0.15965  1.0000
  H   H831      1.0  0.24261  0.60041  0.19662  1.0000
  H   H832      1.0  0.27023  0.53205  0.16179  1.0000
  H   H833      1.0  0.26517  0.56703  0.12482  1.0000
  C   C1033     1.0  0.41121  0.60587  0.11736  1.0000
  C   C1034     1.0  0.39928  0.61716  0.12020  1.0000
  C   C1035     1.0  0.39467  0.65127  0.10775  1.0000
  C   C1036     1.0  0.40185  0.67465  0.09223  1.0000
  C   C1037     1.0  0.41384  0.66406  0.08991  1.0000
  C   C1038     1.0  0.41846  0.62994  0.10237  1.0000
  H   H834      1.0  0.39358  0.59926  0.13168  1.0000
  H   H835      1.0  0.38545  0.65953  0.11009  1.0000
  H   H836      1.0  0.41951  0.68153  0.07809  1.0000
  H   H837      1.0  0.42771  0.62174  0.10005  1.0000
  C   C1039     1.0  0.43421  0.52297  0.25285  1.0000
  C   C1040     1.0  0.43445  0.53382  0.27580  1.0000
  C   C1041     1.0  0.44449  0.55054  0.28413  1.0000
  C   C1042     1.0  0.45452  0.55616  0.26965  1.0000
  C   C1043     1.0  0.45432  0.54534  0.24664  1.0000
  C   C1044     1.0  0.44420  0.52911  0.23820  1.0000
  H   H838      1.0  0.42678  0.52931  0.28727  1.0000
  H   H839      1.0  0.44448  0.55876  0.30182  1.0000
  H   H840      1.0  0.46200  0.54979  0.23526  1.0000
  H   H841      1.0  0.44414  0.52099  0.22050  1.0000
  H   H842      1.0  0.45289  0.89672  0.06140  1.0000
  H   H843      1.0  0.44174  0.49059  0.13007  1.0000
  C   C1045     1.0  0.46192  0.73123  0.42349  1.0000
  H   H844      1.0  0.33553  0.54904  0.15888  1.0000
  H   H845      1.0  0.45445  0.71025  0.39340  1.0000
  C   C1046     1.0  0.42011  0.71984  0.14276  1.0000
  C   C1047     1.0  0.42770  0.75194  0.13966  1.0000
  C   C1048     1.0  0.43619  0.75696  0.15558  1.0000
  C   C1049     1.0  0.43697  0.73025  0.17482  1.0000
  C   C1050     1.0  0.42900  0.69904  0.17862  1.0000
  C   C1051     1.0  0.42084  0.69318  0.16198  1.0000
  P   P33       1.0  0.43031  0.66287  0.20260  1.0000
  C   C1052     1.0  0.41603  0.64516  0.21224  1.0000
  C   C1053     1.0  0.43983  0.62288  0.19169  1.0000
  C   C1054     1.0  0.45194  0.62195  0.19523  1.0000
  C   C1055     1.0  0.45944  0.59291  0.18504  1.0000
  C   C1056     1.0  0.45497  0.56525  0.17081  1.0000
  C   C1057     1.0  0.44299  0.56658  0.16688  1.0000
  C   C1058     1.0  0.43542  0.59506  0.17738  1.0000
  C   C1059     1.0  0.41495  0.60653  0.22283  1.0000
  C   C1060     1.0  0.40398  0.59375  0.23165  1.0000
  C   C1061     1.0  0.39401  0.61924  0.22980  1.0000
  C   C1062     1.0  0.39504  0.65797  0.21953  1.0000
  C   C1063     1.0  0.40603  0.67109  0.21101  1.0000
  C   C1064     1.0  0.43602  0.68224  0.22796  1.0000
  C   C1065     1.0  0.43490  0.72345  0.23235  1.0000
  C   C1066     1.0  0.43938  0.73771  0.25217  1.0000
  C   C1067     1.0  0.44475  0.71085  0.26793  1.0000
  C   C1068     1.0  0.44548  0.66961  0.26409  1.0000
  C   C1069     1.0  0.44101  0.65530  0.24435  1.0000
  H   H846      1.0  0.41374  0.71531  0.13007  1.0000
  H   H847      1.0  0.42712  0.77254  0.12469  1.0000
  H   H848      1.0  0.44224  0.78135  0.15282  1.0000
  H   H849      1.0  0.44385  0.73378  0.18652  1.0000
  H   H850      1.0  0.41511  0.66773  0.16362  1.0000
  H   H851      1.0  0.45564  0.64408  0.20547  1.0000
  S   S151      1.0  0.29493  0.91435  0.00053  1.0000
  H   H852      1.0  0.46081  0.54338  0.16242  1.0000
  Fe  Fe74      1.0  0.28412  0.51651  0.47237  1.0000
  H   H853      1.0  0.42618  0.59603  0.17376  1.0000
  H   H854      1.0  0.42258  0.58639  0.22451  1.0000
  H   H855      1.0  0.40322  0.56390  0.23990  1.0000
  H   H856      1.0  0.38553  0.60901  0.23653  1.0000
  H   H857      1.0  0.38736  0.67803  0.21842  1.0000
  H   H858      1.0  0.40672  0.70155  0.20365  1.0000
  H   H859      1.0  0.43050  0.74453  0.22068  1.0000
  H   H860      1.0  0.39020  0.65533  0.41041  1.0000
  C   C1070     1.0  0.33463  0.48829  0.20352  1.0000
  H   H861      1.0  0.44944  0.64860  0.27651  1.0000
  H   H862      1.0  0.44142  0.62311  0.24195  1.0000
  S   S152      1.0  0.23010  0.80042  0.05051  1.0000
  H   H863      1.0  0.30127  0.50968  0.34569  1.0000
  C   C1071     1.0  0.44801  0.86087  0.03403  1.0000
  H   H864      1.0  0.46673  0.55764  0.40524  1.0000
  H   H865      1.0  0.24200  0.58155  0.34192  1.0000
  H   H866      1.0  0.44636  0.76072  0.47139  1.0000
  C   C1072     1.0  0.23892  0.58646  0.05656  1.0000
  H   H867      1.0  0.23591  0.95064  0.19857  1.0000
  H   H868      1.0  0.46876  0.59254  0.18774  1.0000
  C   C1073     1.0  0.25267  0.93886  0.05818  1.0000
  C   C1074     1.0  0.25736  0.94370  0.03556  1.0000
  P   P34       1.0  0.25995  0.90632  0.07912  1.0000
  C   C1075     1.0  0.27058  0.93445  0.09295  1.0000
  C   C1076     1.0  0.24889  0.88557  0.09914  1.0000
  C   C1077     1.0  0.25098  0.87921  0.12251  1.0000
  H   H869      1.0  0.32347  0.52164  0.32362  1.0000
  C   C1078     1.0  0.23364  0.52016  0.07179  1.0000
  H   H870      1.0  0.36771  0.85679  0.99309  1.0000
  C   C1079     1.0  0.35134  0.49027  0.26516  1.0000
  C   C1080     1.0  0.27910  0.91384  0.10602  1.0000
  H   H871      1.0  0.23552  0.51550  0.40672  1.0000
  Fe  Fe75      1.0  0.23270  0.67397  0.10600  1.0000
  C   C1081     1.0  0.37038  0.48567  0.12120  1.0000
  C   C1082     1.0  0.43859  0.73979  0.44129  1.0000
  C   C1083     1.0  0.26806  0.86450  0.06633  1.0000
  C   C1084     1.0  0.27868  0.87135  0.05367  1.0000
  C   C1085     1.0  0.28529  0.83908  0.04453  1.0000
  C   C1086     1.0  0.28150  0.79970  0.04832  1.0000
  C   C1087     1.0  0.27115  0.79244  0.06147  1.0000
  C   C1088     1.0  0.26438  0.82463  0.07026  1.0000
  C   C1089     1.0  0.24318  0.53163  0.47049  1.0000
  C   C1090     1.0  0.31395  0.54232  0.26137  1.0000
  C   C1091     1.0  0.30039  0.62110  0.47764  1.0000
  C   C1092     1.0  0.26038  0.49536  0.32956  1.0000
  H   H872      1.0  0.26523  0.92712  0.02986  1.0000
  H   H873      1.0  0.25887  0.88948  0.12942  1.0000
  H   H874      1.0  0.42232  0.94126  0.00116  1.0000
  C   C1093     1.0  0.31695  0.66281  0.48236  1.0000
  C   C1094     1.0  0.23047  0.58502  0.04017  1.0000
  C   C1095     1.0  0.42535  0.49814  0.42885  1.0000
  H   H875      1.0  0.27917  0.88122  0.10824  1.0000
  C   C1096     1.0  0.43930  0.48046  0.47749  1.0000
  C   C1097     1.0  0.33973  0.89854  0.99008  1.0000
  C   C1098     1.0  0.23627  0.57281  0.35656  1.0000
  C   C1099     1.0  0.35556  0.50299  0.19685  1.0000
  H   H876      1.0  0.28181  0.90169  0.05063  1.0000
  H   H877      1.0  0.29317  0.84472  0.03400  1.0000
  H   H878      1.0  0.41913  0.95315  0.05487  1.0000
  C   C1100     1.0  0.24024  0.54581  0.37398  1.0000
  H   H879      1.0  0.25623  0.81787  0.07977  1.0000
  H   H880      1.0  0.29283  0.57130  0.39868  1.0000
  C   C1101     1.0  0.28333  0.57392  0.40107  1.0000
  C   C1102     1.0  0.26590  0.59778  0.42248  1.0000
  H   H881      1.0  0.35324  0.68089  0.06442  1.0000
  C   C1103     1.0  0.23559  0.84830  0.20479  1.0000
  C   C1104     1.0  0.32093  0.50793  0.26663  1.0000
  H   H882      1.0  0.23694  0.87486  0.07264  1.0000
  H   H883      1.0  0.29514  0.60417  0.46686  1.0000
  H   H884      1.0  0.47499  0.95367  0.00471  1.0000
  C   C1105     1.0  0.37474  0.59690  0.17104  1.0000
  C   C1106     1.0  0.36801  0.63029  0.17843  1.0000
  C   C1107     1.0  0.35712  0.63962  0.16927  1.0000
  H   H885      1.0  0.37653  0.64936  0.07162  1.0000
  H   H886      1.0  0.32353  0.48755  0.25318  1.0000
  C   C1108     1.0  0.31935  0.55560  0.14201  1.0000
  H   H887      1.0  0.28053  0.53649  0.37316  1.0000
  C   C1109     1.0  0.45001  0.93333  0.03057  1.0000
  C   C1110     1.0  0.42069  0.97354  0.00198  1.0000
  C   C1111     1.0  0.27031  0.56647  0.31114  1.0000
  C   C1112     1.0  0.23343  0.92015  0.19578  1.0000
  H   H888      1.0  0.30974  0.93206  0.04162  1.0000
  H   H889      1.0  0.43574  0.68267  0.47947  1.0000
  H   H890      1.0  0.38324  0.58992  0.17794  1.0000
  H   H891      1.0  0.37129  0.64908  0.19112  1.0000
  H   H892      1.0  0.35194  0.66569  0.17488  1.0000
  C   C1113     1.0  0.32093  0.52691  0.30613  1.0000
  H   H893      1.0  0.24486  0.85167  0.15491  1.0000
  H   H894      1.0  0.23979  0.82311  0.21408  1.0000
  H   H895      1.0  0.31466  0.71433  0.02880  1.0000
  C   C1114     1.0  0.30687  0.76633  0.07654  1.0000
  C   C1115     1.0  0.23294  0.84287  0.12844  1.0000
  C   C1116     1.0  0.23895  0.88772  0.20766  1.0000
  H   H896      1.0  0.24945  0.57922  0.41151  1.0000
  C   C1117     1.0  0.35906  0.49952  0.12858  1.0000
  H   H897      1.0  0.34460  0.62387  0.14547  1.0000
  H   H898      1.0  0.41508  0.56634  0.38844  1.0000
  H   H899      1.0  0.44772  0.53771  0.42409  1.0000
  C   C1118     1.0  0.41335  0.71662  0.43921  1.0000
  C   C1119     1.0  0.37235  0.62041  0.07311  1.0000
  C   C1120     1.0  0.34822  0.91085  0.02646  1.0000
  C   C1121     1.0  0.33280  0.79499  0.99704  1.0000
  C   C1122     1.0  0.31423  0.90798  0.05131  1.0000
  H   H900      1.0  0.26672  0.58985  0.34447  1.0000
  S   S153      1.0  0.28960  0.50319  0.23978  1.0000
  H   H901      1.0  0.25201  0.51086  0.43947  1.0000
  C   C1123     1.0  0.27632  0.55402  0.38666  1.0000
  H   H902      1.0  0.36620  0.62748  0.10800  1.0000
  C   C1124     1.0  0.44465  0.86124  0.01142  1.0000
  H   H903      1.0  0.24275  0.95057  0.15519  1.0000
  C   C1125     1.0  0.34819  0.79474  0.04841  1.0000
  C   C1126     1.0  0.31024  0.56850  0.27850  1.0000
  C   C1127     1.0  0.32096  0.56437  0.10062  1.0000
  C   C1128     1.0  0.36212  0.54495  0.07715  1.0000
  H   H904      1.0  0.33106  0.82303  0.08537  1.0000
  S   S154      1.0  0.47746  0.65855  0.36923  1.0000
  H   H905      1.0  0.26608  0.75286  0.00731  1.0000
  C   C1129     1.0  0.24046  0.55414  0.07243  1.0000
  C   C1130     1.0  0.37055  0.57259  0.15462  1.0000
  C   C1131     1.0  0.41531  0.54817  0.40437  1.0000
  C   C1132     1.0  0.41615  0.50214  0.44570  1.0000
  H   H906      1.0  0.36847  0.53849  0.04202  1.0000
  H   H907      1.0  0.34701  0.82654  0.04371  1.0000
  H   H908      1.0  0.43163  0.51807  0.39457  1.0000
  S   S155      1.0  0.37459  0.58590  0.48797  1.0000
  H   H909      1.0  0.43952  0.54626  0.15524  1.0000
  H   H910      1.0  0.30466  0.59469  0.27437  1.0000
  C   C1133     1.0  0.35956  0.58157  0.14543  1.0000
  H   H911      1.0  0.23684  0.51311  0.12519  1.0000
  H   H912      1.0  0.41502  0.74993  0.40646  1.0000
  H   H913      1.0  0.40913  0.67825  0.46940  1.0000
  C   C1134     1.0  0.36126  0.73846  0.05895  1.0000
  C   C1135     1.0  0.41070  0.72568  0.41629  1.0000
  H   H914      1.0  0.47821  0.48562  0.28691  1.0000
  C   C1136     1.0  0.45076  0.89686  0.04355  1.0000
  C   C1137     1.0  0.42350  0.86991  0.44260  1.0000
  C   C1138     1.0  0.35294  0.61558  0.15271  1.0000
  H   H915      1.0  0.39969  0.53281  0.45514  1.0000
  C   C1139     1.0  0.35945  0.77943  0.05310  1.0000
  C   C1140     1.0  0.45362  0.51490  0.41676  1.0000
  C   C1141     1.0  0.26612  0.56392  0.33412  1.0000
  C   C1142     1.0  0.33867  0.55669  0.12209  1.0000
  C   C1143     1.0  0.42581  0.96123  0.06609  1.0000
  C   C1144     1.0  0.26113  0.52827  0.34354  1.0000
  H   H916      1.0  0.24680  0.55590  0.08551  1.0000
  H   H917      1.0  0.30376  0.79219  0.01423  1.0000
  H   H918      1.0  0.28354  0.61019  0.43062  1.0000
  S   S156      1.0  0.42130  0.50114  0.24380  1.0000
  C   C1145     1.0  0.31010  0.72217  0.04483  1.0000
  C   C1146     1.0  0.26405  0.55528  0.39027  1.0000
  C   C1147     1.0  0.31162  0.79361  0.00306  1.0000
  C   C1148     1.0  0.34364  0.51605  0.19910  1.0000
  P   P35       1.0  0.35453  0.55180  0.12307  1.0000
  H   H919      1.0  0.36233  0.52463  0.19317  1.0000
  H   H920      1.0  0.24386  0.56329  0.46530  1.0000
  H   H921      1.0  0.30879  0.79297  0.08536  1.0000
  H   H922      1.0  0.25588  0.97512  0.00268  1.0000
  C   C1149     1.0  0.42724  0.82947  0.44565  1.0000
  C   C1150     1.0  0.34209  0.54754  0.47385  1.0000
  H   H923      1.0  0.31681  0.56834  0.08438  1.0000
  P   P36       1.0  0.25523  0.52597  0.37296  1.0000
  C   C1151     1.0  0.36653  0.60772  0.09379  1.0000
  H   H924      1.0  0.34735  0.92407  0.04305  1.0000
  C   C1152     1.0  0.39901  0.66388  0.44138  1.0000
  H   H925      1.0  0.43674  0.51099  0.47186  1.0000
  H   H926      1.0  0.31074  0.58077  0.31428  1.0000
  C   C1153     1.0  0.23884  0.97472  0.14478  1.0000
  C   C1154     1.0  0.34051  0.72791  0.05530  1.0000
  H   H927      1.0  0.33478  0.55922  0.46418  1.0000
  C   C1155     1.0  0.29523  0.70700  0.07496  1.0000
  C   C1156     1.0  0.32215  0.83899  0.05421  1.0000
  C   C1157     1.0  0.32448  0.88451  0.08489  1.0000
  C   C1158     1.0  0.40632  0.55256  0.42140  1.0000
  H   H928      1.0  0.29431  0.91901  0.12589  1.0000
  H   H929      1.0  0.31339  0.86591  0.02490  1.0000
  C   C1159     1.0  0.31625  0.87023  0.04193  1.0000
  C   C1160     1.0  0.36147  0.56966  0.09605  1.0000
  P   P37       1.0  0.32418  0.78936  0.04286  1.0000
  S   S157      1.0  0.27121  0.56945  0.47941  1.0000
  C   C1161     1.0  0.42479  0.52109  0.40805  1.0000
  H   H930      1.0  0.45148  0.96087  0.03887  1.0000
  S   S158      1.0  0.24801  0.62908  0.11282  1.0000
  C   C1162     1.0  0.43021  0.93241  0.08196  1.0000
  C   C1163     1.0  0.22990  0.52059  0.13776  1.0000
  H   H931      1.0  0.35304  0.59823  0.46439  1.0000
  H   H932      1.0  0.43862  0.76958  0.25543  1.0000
  C   C1164     1.0  0.31369  0.56071  0.30091  1.0000
  H   H933      1.0  0.34286  0.48210  0.14726  1.0000
  H   H934      1.0  0.34137  0.54791  0.19719  1.0000
  S   S159      1.0  0.31967  0.50641  0.20402  1.0000
  H   H935      1.0  0.28831  0.68795  0.08226  1.0000
  H   H936      1.0  0.40040  0.78684  0.45114  1.0000
  H   H937      1.0  0.33336  0.70736  0.05610  1.0000
  C   C1165     1.0  0.25886  0.57770  0.40817  1.0000
  C   C1166     1.0  0.43906  0.94331  0.09611  1.0000
  C   C1167     1.0  0.32633  0.84651  0.07572  1.0000
  C   C1168     1.0  0.45265  0.72159  0.41037  1.0000
  C   C1169     1.0  0.33861  0.76920  0.04965  1.0000
  C   C1170     1.0  0.33324  0.56205  0.10108  1.0000
  C   C1171     1.0  0.44800  0.74959  0.45435  1.0000
  H   H938      1.0  0.37003  0.72683  0.06253  1.0000
  H   H939      1.0  0.34815  0.48554  0.33131  1.0000
  H   H940      1.0  0.26192  0.61407  0.43673  1.0000
  C   C1172     1.0  0.27812  0.59566  0.41904  1.0000
  C   C1173     1.0  0.44103  0.72553  0.41924  1.0000
  P   P38       1.0  0.42362  0.74663  0.45292  1.0000
  H   H941      1.0  0.23480  0.49571  0.08448  1.0000
  C   C1174     1.0  0.32281  0.79247  0.01212  1.0000
  C   C1175     1.0  0.41151  0.88029  0.44258  1.0000
  C   C1176     1.0  0.40673  0.52951  0.44202  1.0000
  C   C1177     1.0  0.35180  0.71269  0.06002  1.0000
  H   H942      1.0  0.33091  0.93234  0.01669  1.0000
  H   H943      1.0  0.37768  0.60534  0.03860  1.0000
  C   C1178     1.0  0.40247  0.70338  0.40588  1.0000
  H   H944      1.0  0.29901  0.67083  0.04569  1.0000
  H   H945      1.0  0.31134  0.54849  0.24394  1.0000
  H   H946      1.0  0.44264  0.92103  0.10820  1.0000
  C   C1179     1.0  0.36195  0.55576  0.48720  1.0000
  H   H947      1.0  0.36680  0.79940  0.05209  1.0000
  H   H948      1.0  0.24571  0.89317  0.21935  1.0000
  C   C1180     1.0  0.40735  0.68578  0.45171  1.0000
  C   C1181     1.0  0.36787  0.55788  0.05645  1.0000
  H   H949      1.0  0.37594  0.54694  0.14913  1.0000
  H   H950      1.0  0.27420  0.59388  0.30396  1.0000
  C   C1182     1.0  0.33880  0.91526  0.01164  1.0000
  C   C1183     1.0  0.30126  0.69738  0.05436  1.0000
  Fe  Fe76      1.0  0.30965  0.48186  0.47370  1.0000
  H   H951      1.0  0.26807  0.76196  0.06407  1.0000
  Fe  Fe77      1.0  0.41512  0.48749  0.20838  1.0000
  C   C1184     1.0  0.41898  0.79902  0.44867  1.0000
  H   H952      1.0  0.43657  0.82229  0.44564  1.0000
  C   C1185     1.0  0.32464  0.50026  0.28898  1.0000
  H   H953      1.0  0.39393  0.85826  0.44569  1.0000
  H   H954      1.0  0.37650  0.50596  0.11224  1.0000
  C   C1186     1.0  0.44680  0.93401  0.00768  1.0000
  C   C1187     1.0  0.35970  0.87302  0.99842  1.0000
  S   S160      1.0  0.23269  0.74117  0.10950  1.0000
  H   H955      1.0  0.46691  0.48960  0.20441  1.0000
  C   C1188     1.0  0.26943  0.53367  0.29733  1.0000
  C   C1189     1.0  0.39661  0.67251  0.41843  1.0000
  H   H956      1.0  0.40863  0.91166  0.44030  1.0000
  H   H957      1.0  0.27268  0.53548  0.27952  1.0000
  H   H958      1.0  0.30451  0.56230  0.12075  1.0000
  H   H959      1.0  0.36456  0.51259  0.24042  1.0000
  H   H960      1.0  0.42992  0.89324  0.44030  1.0000
  Fe  Fe78      1.0  0.27555  0.49506  0.21478  1.0000
  H   H961      1.0  0.44210  0.83353  0.00426  1.0000
  H   H962      1.0  0.35828  0.51547  0.07852  1.0000
  C   C1190     1.0  0.40323  0.85021  0.44559  1.0000
  C   C1191     1.0  0.28792  0.97711  0.11283  1.0000
  C   C1192     1.0  0.35246  0.56969  0.47407  1.0000
  C   C1193     1.0  0.23258  0.53570  0.39288  1.0000
  C   C1194     1.0  0.25205  0.97103  0.01999  1.0000
  C   C1195     1.0  0.47219  0.49713  0.39700  1.0000
  H   H963      1.0  0.32467  0.67788  0.47513  1.0000
  H   H964      1.0  0.41616  0.48392  0.46160  1.0000
  H   H965      1.0  0.40212  0.96721  0.00950  1.0000
  C   C1196     1.0  0.31402  0.56103  0.12107  1.0000
  H   H966      1.0  0.24177  0.48625  0.19450  1.0000
  C   C1197     1.0  0.24278  0.96269  0.06515  1.0000
  H   H967      1.0  0.31703  0.94476  0.07967  1.0000
  H   H968      1.0  0.34436  0.50740  0.25692  1.0000
  H   H969      1.0  0.31401  0.55233  0.15793  1.0000
  C   C1198     1.0  0.28771  0.93512  0.11598  1.0000
  C   C1199     1.0  0.34111  0.51088  0.48666  1.0000
  C   C1200     1.0  0.36282  0.49328  0.25563  1.0000
  H   H970      1.0  0.39476  0.96229  0.09533  1.0000
  H   H971      1.0  0.23918  0.96035  0.08268  1.0000
  C   C1201     1.0  0.47585  0.48582  0.19739  1.0000
  H   H972      1.0  0.29645  0.48946  0.30687  1.0000
  C   C1202     1.0  0.29654  0.48244  0.34407  1.0000
  C   C1203     1.0  0.23065  0.85006  0.10536  1.0000
  H   H973      1.0  0.34613  0.47986  0.37361  1.0000
  C   C1204     1.0  0.27094  0.97658  0.08964  1.0000
  H   H974      1.0  0.35238  0.55456  0.61409  1.0000
  S   S161      1.0  0.29808  0.88961  0.94701  1.0000
  H   H975      1.0  0.33931  0.80179  0.96181  1.0000
  C   C1205     1.0  0.45321  0.72489  0.76580  1.0000
  H   H976      1.0  0.46788  0.81844  0.94679  1.0000
  Fe  Fe79      1.0  0.46758  0.78323  0.87634  1.0000
  S   S162      1.0  0.46540  0.84567  0.86005  1.0000
  S   S163      1.0  0.45675  0.75383  0.90633  1.0000
  S   S164      1.0  0.46381  0.83622  0.79055  1.0000
  H   H977      1.0  0.46694  0.72547  0.66059  1.0000
  Fe  Fe80      1.0  0.28637  0.90727  0.71023  1.0000
  P   P39       1.0  0.24882  0.89207  0.87106  1.0000
  S   S165      1.0  0.28268  0.86469  0.68188  1.0000
  Fe  Fe81      1.0  0.28809  0.93271  0.76054  1.0000
  C   C1206     1.0  0.33530  0.90360  0.88260  1.0000
  H   H978      1.0  0.30611  0.72944  0.55376  1.0000
  C   C1207     1.0  0.38005  0.88599  0.73292  1.0000
  S   S166      1.0  0.30036  0.89780  0.73624  1.0000
  H   H979      1.0  0.28953  0.68836  0.58567  1.0000
  S   S167      1.0  0.23953  0.74166  0.59693  1.0000
  S   S168      1.0  0.23912  0.75547  0.66548  1.0000
  Fe  Fe82      1.0  0.23960  0.67477  0.59112  1.0000
  S   S169      1.0  0.25481  0.63399  0.57749  1.0000
  H   H980      1.0  0.44777  0.57035  0.53981  1.0000
  S   S170      1.0  0.27449  0.94285  0.96436  1.0000
  Fe  Fe83      1.0  0.40596  0.52969  0.54422  1.0000
  S   S171      1.0  0.40581  0.53453  0.50568  1.0000
  Fe  Fe84      1.0  0.40241  0.62169  0.54923  1.0000
  S   S172      1.0  0.40213  0.63250  0.51081  1.0000
  S   S173      1.0  0.39811  0.67392  0.57347  1.0000
  Fe  Fe85      1.0  0.39046  0.57875  0.51084  1.0000
  C   C1208     1.0  0.33877  0.58390  0.63469  1.0000
  Fe  Fe86      1.0  0.41734  0.58737  0.50837  1.0000
  S   S174      1.0  0.38978  0.57052  0.54938  1.0000
  S   S175      1.0  0.41839  0.57993  0.54682  1.0000
  Fe  Fe87      1.0  0.41344  0.88516  0.70413  1.0000
  S   S176      1.0  0.42757  0.88693  0.67588  1.0000
  S   S177      1.0  0.41511  0.86680  0.74218  1.0000
  Fe  Fe88      1.0  0.39402  0.91018  0.67143  1.0000
  S   S178      1.0  0.40711  0.91400  0.64064  1.0000
  S   S179      1.0  0.37397  0.91436  0.66699  1.0000
  Fe  Fe89      1.0  0.41499  0.85498  0.65474  1.0000
  S   S180      1.0  0.42248  0.79941  0.63549  1.0000
  H   H981      1.0  0.41001  0.77848  0.49319  1.0000
  S   S181      1.0  0.40146  0.84964  0.68403  1.0000
  S   S182      1.0  0.40522  0.94572  0.69334  1.0000
  C   C1209     1.0  0.40518  0.70800  0.59083  1.0000
  C   C1210     1.0  0.41711  0.70398  0.59556  1.0000
  C   C1211     1.0  0.42221  0.73214  0.60916  1.0000
  C   C1212     1.0  0.41550  0.76459  0.61848  1.0000
  C   C1213     1.0  0.40356  0.76828  0.61398  1.0000
  C   C1214     1.0  0.39847  0.74025  0.60031  1.0000
  H   H982      1.0  0.42242  0.67921  0.58878  1.0000
  H   H983      1.0  0.43145  0.72885  0.61242  1.0000
  H   H984      1.0  0.39823  0.79289  0.62095  1.0000
  H   H985      1.0  0.38925  0.74379  0.59695  1.0000
  H   H986      1.0  0.46167  0.93227  0.96443  1.0000
  H   H987      1.0  0.33793  0.89727  0.91905  1.0000
  H   H988      1.0  0.41821  0.95639  0.73579  1.0000
  C   C1215     1.0  0.46933  0.63825  0.85040  1.0000
  H   H989      1.0  0.40625  0.87132  0.81623  1.0000
  C   C1216     1.0  0.42520  0.53906  0.61794  1.0000
  C   C1217     1.0  0.23362  0.53807  0.54789  1.0000
  C   C1218     1.0  0.25809  0.61393  0.55012  1.0000
  C   C1219     1.0  0.26590  0.58026  0.54855  1.0000
  C   C1220     1.0  0.26969  0.56538  0.52713  1.0000
  C   C1221     1.0  0.26573  0.58421  0.50691  1.0000
  C   C1222     1.0  0.25754  0.61692  0.50847  1.0000
  C   C1223     1.0  0.25366  0.63154  0.52997  1.0000
  H   H990      1.0  0.26910  0.56576  0.56404  1.0000
  H   H991      1.0  0.27590  0.53998  0.52626  1.0000
  C   C1224     1.0  0.23016  0.87773  0.64881  1.0000
  H   H992      1.0  0.24759  0.65733  0.53091  1.0000
  C   C1225     1.0  0.24611  0.93394  0.57306  1.0000
  C   C1226     1.0  0.33966  0.92565  0.69123  1.0000
  C   C1227     1.0  0.35022  0.91319  0.67936  1.0000
  C   C1228     1.0  0.36107  0.92969  0.68364  1.0000
  C   C1229     1.0  0.33642  0.96607  0.79991  1.0000
  Fe  Fe90      1.0  0.41886  0.94608  0.66361  1.0000
  H   H993      1.0  0.32135  0.84548  0.86748  1.0000
  C   C1230     1.0  0.29088  0.59075  0.57894  1.0000
  C   C1231     1.0  0.30381  0.64508  0.51525  1.0000
  C   C1232     1.0  0.26994  0.83753  0.67695  1.0000
  C   C1233     1.0  0.26938  0.81847  0.65604  1.0000
  C   C1234     1.0  0.25984  0.79435  0.65190  1.0000
  C   C1235     1.0  0.25080  0.78855  0.66880  1.0000
  C   C1236     1.0  0.25119  0.80856  0.68944  1.0000
  C   C1237     1.0  0.26065  0.83316  0.69345  1.0000
  H   H994      1.0  0.27650  0.82171  0.64314  1.0000
  H   H995      1.0  0.25967  0.77920  0.63597  1.0000
  H   H996      1.0  0.24423  0.80443  0.70260  1.0000
  H   H997      1.0  0.26091  0.84773  0.70956  1.0000
  C   C1238     1.0  0.45005  0.84359  0.77775  1.0000
  C   C1239     1.0  0.45004  0.85328  0.75405  1.0000
  C   C1240     1.0  0.43947  0.86058  0.74293  1.0000
  C   C1241     1.0  0.42869  0.85752  0.75538  1.0000
  C   C1242     1.0  0.42866  0.84716  0.77905  1.0000
  C   C1243     1.0  0.43928  0.84052  0.79026  1.0000
  H   H998      1.0  0.45828  0.85494  0.74416  1.0000
  H   H999      1.0  0.43966  0.86852  0.72472  1.0000
  H   H1000     1.0  0.42038  0.84429  0.78875  1.0000
  H   H1001     1.0  0.43913  0.83299  0.80849  1.0000
  C   C1244     1.0  0.43119  0.81555  0.95903  1.0000
  C   C1245     1.0  0.43426  0.77445  0.96168  1.0000
  C   C1246     1.0  0.44219  0.75621  0.94554  1.0000
  C   C1247     1.0  0.44724  0.77883  0.92673  1.0000
  C   C1248     1.0  0.44446  0.82022  0.92449  1.0000
  C   C1249     1.0  0.43644  0.83836  0.94049  1.0000
  H   H1002     1.0  0.43029  0.75652  0.97580  1.0000
  H   H1003     1.0  0.44429  0.72422  0.94747  1.0000
  H   H1004     1.0  0.44829  0.83807  0.91019  1.0000
  H   H1005     1.0  0.43416  0.87020  0.93831  1.0000
  C   C1250     1.0  0.28863  0.90076  0.84548  1.0000
  C   C1251     1.0  0.28897  0.91464  0.86796  1.0000
  H   H1006     1.0  0.28966  0.86883  0.84287  1.0000
  C   C1252     1.0  0.24955  0.86527  0.84478  1.0000
  H   H1007     1.0  0.45984  0.67896  0.82768  1.0000
  H   H1008     1.0  0.47353  0.70129  0.69866  1.0000
  C   C1253     1.0  0.43683  0.96479  0.73100  1.0000
  C   C1254     1.0  0.24580  0.53180  0.60353  1.0000
  C   C1255     1.0  0.46396  0.64924  0.82996  1.0000
  C   C1256     1.0  0.36075  0.90337  0.74951  1.0000
  C   C1257     1.0  0.31601  0.96371  0.81328  1.0000
  H   H1009     1.0  0.46927  0.56256  0.80194  1.0000
  C   C1258     1.0  0.30890  0.83304  0.80790  1.0000
  C   C1259     1.0  0.32043  0.80022  0.96450  1.0000
  C   C1260     1.0  0.46242  0.55481  0.94050  1.0000
  C   C1261     1.0  0.25895  0.86895  0.89099  1.0000
  C   C1262     1.0  0.25726  0.87531  0.91457  1.0000
  C   C1263     1.0  0.26489  0.85688  0.93017  1.0000
  C   C1264     1.0  0.27432  0.83225  0.92239  1.0000
  C   C1265     1.0  0.27613  0.82595  0.89896  1.0000
  C   C1266     1.0  0.26847  0.84419  0.88329  1.0000
  C   C1267     1.0  0.23664  0.94812  0.68706  1.0000
  H   H1010     1.0  0.23397  0.59501  0.87328  1.0000
  H   H1011     1.0  0.29032  0.89350  0.88233  1.0000
  C   C1268     1.0  0.45517  0.92225  0.66402  1.0000
  C   C1269     1.0  0.28746  0.95581  0.87185  1.0000
  H   H1012     1.0  0.46926  0.65997  0.86363  1.0000
  C   C1270     1.0  0.24542  0.96732  0.72172  1.0000
  C   C1271     1.0  0.29372  0.51820  0.57713  1.0000
  H   H1013     1.0  0.26351  0.86175  0.94835  1.0000
  H   H1014     1.0  0.28025  0.81826  0.93459  1.0000
  P   P40       1.0  0.23454  0.95794  0.65688  1.0000
  C   C1272     1.0  0.36801  0.87942  0.73527  1.0000
  H   H1015     1.0  0.40876  0.75548  0.53408  1.0000
  H   H1016     1.0  0.29969  0.78303  0.82421  1.0000
  H   H1017     1.0  0.28066  0.67642  0.51538  1.0000
  C   C1273     1.0  0.40141  0.53291  0.60861  1.0000
  C   C1274     1.0  0.36115  0.95933  0.69985  1.0000
  C   C1275     1.0  0.42632  0.95995  0.74416  1.0000
  H   H1018     1.0  0.44078  0.89717  0.98121  1.0000
  C   C1276     1.0  0.28553  0.96893  0.83025  1.0000
  C   C1277     1.0  0.34298  0.55970  0.61688  1.0000
  C   C1278     1.0  0.46889  0.59893  0.74924  1.0000
  H   H1019     1.0  0.47590  0.50736  0.57422  1.0000
  C   C1279     1.0  0.31131  0.97440  0.63354  1.0000
  H   H1020     1.0  0.35970  0.95259  0.77172  1.0000
  H   H1021     1.0  0.45075  0.97830  0.67946  1.0000
  C   C1280     1.0  0.34170  0.55316  0.55531  1.0000
  C   C1281     1.0  0.25870  0.94216  0.65068  1.0000
  H   H1022     1.0  0.23181  0.52254  0.86650  1.0000
  C   C1282     1.0  0.41556  0.75324  0.49885  1.0000
  C   C1283     1.0  0.30639  0.96006  0.61408  1.0000
  C   C1284     1.0  0.30197  0.92119  0.61471  1.0000
  C   C1285     1.0  0.30268  0.89609  0.63454  1.0000
  C   C1286     1.0  0.30809  0.90938  0.65350  1.0000
  C   C1287     1.0  0.31248  0.94820  0.65295  1.0000
  H   H1023     1.0  0.47359  0.80374  0.72933  1.0000
  H   H1024     1.0  0.23477  0.82752  0.85437  1.0000
  C   C1288     1.0  0.33159  0.79859  0.97332  1.0000
  P   P41       1.0  0.34050  0.51492  0.57834  1.0000
  C   C1289     1.0  0.23819  0.52045  0.49220  1.0000
  C   C1290     1.0  0.47312  0.84996  0.97581  1.0000
  H   H1025     1.0  0.25438  0.63162  0.49294  1.0000
  C   C1291     1.0  0.32301  0.55232  0.60584  1.0000
  C   C1292     1.0  0.25113  0.82304  0.80415  1.0000
  H   H1026     1.0  0.30176  0.79948  0.97260  1.0000
  H   H1027     1.0  0.33451  0.95991  0.62367  1.0000
  H   H1028     1.0  0.24935  0.95113  0.52318  1.0000
  H   H1029     1.0  0.25121  0.55427  0.59456  1.0000
  C   C1293     1.0  0.35550  0.90854  0.83932  1.0000
  C   C1294     1.0  0.46654  0.72420  0.69759  1.0000
  C   C1295     1.0  0.44644  0.97264  0.96116  1.0000
  C   C1296     1.0  0.35469  0.49082  0.58301  1.0000
  H   H1030     1.0  0.29797  0.91050  0.59987  1.0000
  H   H1031     1.0  0.29901  0.86633  0.63538  1.0000
  H   H1032     1.0  0.30863  0.88987  0.66891  1.0000
  H   H1033     1.0  0.31665  0.95783  0.66786  1.0000
  C   C1297     1.0  0.31044  0.79757  0.97937  1.0000
  C   C1298     1.0  0.43677  0.96243  0.77893  1.0000
  C   C1299     1.0  0.44726  0.96822  0.76584  1.0000
  H   H1034     1.0  0.44178  0.53280  0.90357  1.0000
  H   H1035     1.0  0.45518  0.97235  0.77469  1.0000
  C   C1300     1.0  0.23409  0.89005  0.88411  1.0000
  H   H1036     1.0  0.33638  0.63587  0.58690  1.0000
  H   H1037     1.0  0.34547  0.95586  0.80083  1.0000
  H   H1038     1.0  0.44756  0.54093  0.67163  1.0000
  H   H1039     1.0  0.45482  0.64355  0.75008  1.0000
  S   S183      1.0  0.47047  0.75352  0.84227  1.0000
  C   C1301     1.0  0.46285  0.73792  0.67598  1.0000
  H   H1040     1.0  0.31950  0.80462  0.94618  1.0000
  H   H1041     1.0  0.27012  0.83925  0.86522  1.0000
  C   C1302     1.0  0.37763  0.94099  0.75886  1.0000
  C   C1303     1.0  0.26982  0.94750  0.63987  1.0000
  C   C1304     1.0  0.39181  0.95818  0.79827  1.0000
  H   H1042     1.0  0.44104  0.70429  0.74202  1.0000
  C   C1305     1.0  0.33058  0.69785  0.58120  1.0000
  H   H1043     1.0  0.25773  0.48218  0.59535  1.0000
  H   H1044     1.0  0.23205  0.57481  0.61335  1.0000
  C   C1306     1.0  0.44979  0.62041  0.62568  1.0000
  C   C1307     1.0  0.23982  0.93591  0.73424  1.0000
  C   C1308     1.0  0.36001  0.85207  0.80569  1.0000
  H   H1045     1.0  0.46033  0.86302  0.65298  1.0000
  H   H1046     1.0  0.44091  0.49640  0.51244  1.0000
  C   C1309     1.0  0.38485  0.91675  0.74452  1.0000
  C   C1310     1.0  0.44859  0.78376  0.69403  1.0000
  C   C1311     1.0  0.42931  0.68699  0.51445  1.0000
  C   C1312     1.0  0.47370  0.96378  0.74168  1.0000
  H   H1047     1.0  0.34416  0.63817  0.50719  1.0000
  P   P42       1.0  0.44060  0.54366  0.62334  1.0000
  H   H1048     1.0  0.46654  0.91137  0.76026  1.0000
  H   H1049     1.0  0.23349  0.82987  0.59180  1.0000
  H   H1050     1.0  0.43678  0.96075  0.79749  1.0000
  H   H1051     1.0  0.44158  0.80669  0.69268  1.0000
  C   C1313     1.0  0.47174  0.67126  0.74501  1.0000
  C   C1314     1.0  0.32770  0.95016  0.81534  1.0000
  S   S184      1.0  0.29381  0.96586  0.69574  1.0000
  H   H1052     1.0  0.23469  0.54398  0.50297  1.0000
  H   H1053     1.0  0.45984  0.63092  0.79667  1.0000
  H   H1054     1.0  0.43446  0.66078  0.52038  1.0000
  C   C1315     1.0  0.47338  0.84152  0.95258  1.0000
  H   H1055     1.0  0.47838  0.54221  0.83812  1.0000
  H   H1056     1.0  0.43638  0.57466  0.57678  1.0000
  H   H1057     1.0  0.24231  0.54069  0.53956  1.0000
  C   C1316     1.0  0.25221  0.94441  0.86478  1.0000
  H   H1058     1.0  0.43177  0.49131  0.55738  1.0000
  H   H1059     1.0  0.34132  0.85099  0.80350  1.0000
  C   C1317     1.0  0.45004  0.54236  0.90942  1.0000
  C   C1318     1.0  0.47467  0.59971  0.85360  1.0000
  C   C1319     1.0  0.45561  0.94696  0.95281  1.0000
  C   C1320     1.0  0.33392  0.58915  0.52193  1.0000
  C   C1321     1.0  0.34328  0.61527  0.52099  1.0000
  C   C1322     1.0  0.35183  0.61061  0.53723  1.0000
  C   C1323     1.0  0.23501  0.54338  0.61417  1.0000
  H   H1060     1.0  0.32753  0.59166  0.50884  1.0000
  H   H1061     1.0  0.35930  0.63008  0.53604  1.0000
  C   C1324     1.0  0.43229  0.71648  0.77449  1.0000
  H   H1062     1.0  0.42703  0.58382  0.65995  1.0000
  C   C1325     1.0  0.27909  0.68883  0.53204  1.0000
  H   H1063     1.0  0.42372  0.70907  0.76907  1.0000
  C   C1326     1.0  0.33974  0.95537  0.70738  1.0000
  H   H1064     1.0  0.34133  0.87862  0.87865  1.0000
  C   C1327     1.0  0.36934  0.86842  0.81619  1.0000
  H   H1065     1.0  0.31683  0.54139  0.59437  1.0000
  C   C1328     1.0  0.32120  0.86901  0.83218  1.0000
  C   C1329     1.0  0.45892  0.55496  0.89346  1.0000
  C   C1330     1.0  0.23711  0.85872  0.58639  1.0000
  H   H1066     1.0  0.45739  0.55480  0.87534  1.0000
  P   P43       1.0  0.46584  0.72268  0.74562  1.0000
  H   H1067     1.0  0.35125  0.86508  0.96681  1.0000
  H   H1068     1.0  0.46394  0.91980  0.92296  1.0000
  C   C1331     1.0  0.45229  0.77025  0.71560  1.0000
  C   C1332     1.0  0.23245  0.91107  0.72334  1.0000
  C   C1333     1.0  0.45428  0.73733  0.78818  1.0000
  C   C1334     1.0  0.42632  0.95794  0.76808  1.0000
  H   H1069     1.0  0.46309  0.57384  0.75202  1.0000
  C   C1335     1.0  0.45693  0.93983  0.92939  1.0000
  C   C1336     1.0  0.25917  0.85264  0.80750  1.0000
  H   H1070     1.0  0.31896  0.68264  0.51617  1.0000
  H   H1071     1.0  0.35772  0.57687  0.56692  1.0000
  H   H1072     1.0  0.44810  0.78317  0.73074  1.0000
  C   C1337     1.0  0.31366  0.66538  0.50569  1.0000
  C   C1338     1.0  0.41983  0.50157  0.62026  1.0000
  S   S185      1.0  0.32819  0.90341  0.97040  1.0000
  C   C1339     1.0  0.44487  0.55925  0.57634  1.0000
  H   H1073     1.0  0.28425  0.54782  0.60489  1.0000
  H   H1074     1.0  0.45016  0.95237  0.89604  1.0000
  S   S186      1.0  0.42057  0.83977  0.97770  1.0000
  H   H1075     1.0  0.30650  0.56545  0.52992  1.0000
  H   H1076     1.0  0.30509  0.83034  0.79146  1.0000
  C   C1340     1.0  0.39969  0.96468  0.83576  1.0000
  H   H1077     1.0  0.47093  0.84385  0.68814  1.0000
  H   H1078     1.0  0.26092  0.91452  0.59289  1.0000
  H   H1079     1.0  0.27744  0.93197  0.64698  1.0000
  C   C1341     1.0  0.43321  0.64411  0.65998  1.0000
  C   C1342     1.0  0.28925  0.55183  0.58866  1.0000
  H   H1080     1.0  0.30950  0.58360  0.62603  1.0000
  H   H1081     1.0  0.30787  0.79096  0.86221  1.0000
  S   S187      1.0  0.43521  0.59257  0.48893  1.0000
  C   C1343     1.0  0.46424  0.63858  0.74813  1.0000
  S   S188      1.0  0.23496  0.65876  0.62839  1.0000
  C   C1344     1.0  0.24880  0.96327  0.64223  1.0000
  H   H1082     1.0  0.47124  0.65162  0.90755  1.0000
  Fe  Fe91      1.0  0.28404  0.88523  0.97568  1.0000
  H   H1083     1.0  0.26603  0.85946  0.79442  1.0000
  C   C1345     1.0  0.46121  0.74009  0.71758  1.0000
  C   C1346     1.0  0.36709  0.89661  0.83301  1.0000
  H   H1084     1.0  0.24120  0.93096  0.75238  1.0000
  C   C1347     1.0  0.46918  0.58359  0.81554  1.0000
  H   H1085     1.0  0.39420  0.92159  0.74226  1.0000
  H   H1086     1.0  0.25174  0.80694  0.78840  1.0000
  C   C1348     1.0  0.31660  0.86399  0.81070  1.0000
  H   H1087     1.0  0.23719  0.86934  0.66007  1.0000
  C   C1349     1.0  0.24949  0.49120  0.60409  1.0000
  C   C1350     1.0  0.46073  0.88419  0.66643  1.0000
  C   C1351     1.0  0.35030  0.87771  0.98354  1.0000
  C   C1352     1.0  0.46960  0.56781  0.90095  1.0000
  H   H1088     1.0  0.35392  0.93119  0.85195  1.0000
  C   C1353     1.0  0.40421  0.92500  0.83544  1.0000
  C   C1354     1.0  0.46393  0.62206  0.81250  1.0000
  H   H1089     1.0  0.28354  0.80729  0.89293  1.0000
  C   C1355     1.0  0.33337  0.91379  0.90550  1.0000
  C   C1356     1.0  0.23523  0.92342  0.56531  1.0000
  C   C1357     1.0  0.40264  0.90197  0.81656  1.0000
  C   C1358     1.0  0.46063  0.52343  0.59570  1.0000
  C   C1359     1.0  0.47709  0.75492  0.75434  1.0000
  P   P44       1.0  0.29960  0.64684  0.54552  1.0000
  H   H1090     1.0  0.26333  0.72110  0.52181  1.0000
  H   H1091     1.0  0.30338  0.49746  0.54695  1.0000
  H   H1092     1.0  0.39567  0.90003  0.78345  1.0000
  C   C1360     1.0  0.36343  0.49003  0.56513  1.0000
  H   H1093     1.0  0.31972  0.60845  0.56828  1.0000
  C   C1361     1.0  0.44556  0.50326  0.64290  1.0000
  Fe  Fe92      1.0  0.23354  0.72566  0.63337  1.0000
  C   C1362     1.0  0.42169  0.70731  0.52982  1.0000
  H   H1094     1.0  0.26004  0.95273  0.89721  1.0000
  C   C1363     1.0  0.25842  0.87351  0.82776  1.0000
  C   C1364     1.0  0.44843  0.51083  0.66534  1.0000
  C   C1365     1.0  0.44929  0.54157  0.59653  1.0000
  C   C1366     1.0  0.41849  0.57339  0.61070  1.0000
  C   C1367     1.0  0.31918  0.96582  0.89405  1.0000
  C   C1368     1.0  0.46701  0.90072  0.70370  1.0000
  C   C1369     1.0  0.34841  0.86358  0.81211  1.0000
  C   C1370     1.0  0.25252  0.90655  0.58697  1.0000
  C   C1371     1.0  0.34606  0.89163  0.82914  1.0000
  H   H1095     1.0  0.40162  0.59685  0.60033  1.0000
  H   H1096     1.0  0.33797  0.70982  0.58927  1.0000
  C   C1372     1.0  0.29717  0.62319  0.50097  1.0000
  C   C1373     1.0  0.31803  0.84227  0.85071  1.0000
  H   H1097     1.0  0.34999  0.89054  0.66672  1.0000
  C   C1374     1.0  0.40797  0.49867  0.61579  1.0000
  C   C1375     1.0  0.32532  0.94492  0.91119  1.0000
  H   H1098     1.0  0.42660  0.65368  0.67281  1.0000
  H   H1099     1.0  0.31599  0.97214  0.85848  1.0000
  Fe  Fe93      1.0  0.30699  0.95809  0.72331  1.0000
  H   H1100     1.0  0.36177  0.83060  0.79242  1.0000
  C   C1376     1.0  0.26921  0.71445  0.53557  1.0000
  C   C1377     1.0  0.32020  0.64070  0.56940  1.0000
  P   P45       1.0  0.33111  0.90924  0.83580  1.0000
  C   C1378     1.0  0.47132  0.56738  0.92459  1.0000
  C   C1379     1.0  0.24159  0.83504  0.84144  1.0000
  C   C1380     1.0  0.46254  0.53824  0.55463  1.0000
  H   H1101     1.0  0.32586  0.53830  0.53918  1.0000
  C   C1381     1.0  0.40666  0.57029  0.60617  1.0000
  Fe  Fe94      1.0  0.28946  0.94943  0.93718  1.0000
  C   C1382     1.0  0.45384  0.76757  0.67421  1.0000
  C   C1383     1.0  0.24802  0.86897  0.59366  1.0000
  H   H1102     1.0  0.42238  0.60268  0.60828  1.0000
  C   C1384     1.0  0.24236  0.81417  0.82113  1.0000
  C   C1385     1.0  0.43350  0.60459  0.65266  1.0000
  H   H1103     1.0  0.42092  0.69696  0.54766  1.0000
  H   H1104     1.0  0.41825  0.95230  0.77815  1.0000
  C   C1386     1.0  0.43343  0.72948  0.79661  1.0000
  H   H1105     1.0  0.25007  0.89462  0.92095  1.0000
  C   C1387     1.0  0.44948  0.65993  0.63309  1.0000
  C   C1388     1.0  0.31153  0.66678  0.56011  1.0000
  H   H1106     1.0  0.32278  0.75642  0.57275  1.0000
  Fe  Fe95      1.0  0.46987  0.81700  0.82639  1.0000
  C   C1389     1.0  0.41481  0.74037  0.52206  1.0000
  C   C1390     1.0  0.29703  0.59639  0.55758  1.0000
  H   H1107     1.0  0.39235  0.53025  0.60435  1.0000
  H   H1108     1.0  0.35570  0.95281  0.63000  1.0000
  H   H1109     1.0  0.40901  0.91214  0.84975  1.0000
  C   C1391     1.0  0.28396  0.69545  0.57149  1.0000
  H   H1110     1.0  0.45549  0.68171  0.62517  1.0000
  C   C1392     1.0  0.44113  0.67187  0.65007  1.0000
  H   H1111     1.0  0.25286  0.84800  0.60480  1.0000
  C   C1393     1.0  0.32110  0.95585  0.87114  1.0000
  C   C1394     1.0  0.31256  0.70867  0.56126  1.0000
  H   H1112     1.0  0.28951  0.60751  0.50789  1.0000
  C   C1395     1.0  0.30580  0.80659  0.82640  1.0000
  C   C1396     1.0  0.26666  0.73038  0.55701  1.0000
  H   H1113     1.0  0.27185  0.73243  0.59178  1.0000
  H   H1114     1.0  0.25885  0.74946  0.55981  1.0000
  C   C1397     1.0  0.28660  0.67916  0.54997  1.0000
  H   H1115     1.0  0.45610  0.61218  0.61204  1.0000
  C   C1398     1.0  0.44213  0.71395  0.75918  1.0000
  C   C1399     1.0  0.45139  0.55723  0.55542  1.0000
  H   H1116     1.0  0.28711  0.61622  0.58796  1.0000
  C   C1400     1.0  0.45535  0.94930  0.68155  1.0000
  H   H1117     1.0  0.45084  0.77797  0.65753  1.0000
  C   C1401     1.0  0.32203  0.72408  0.57187  1.0000
  C   C1402     1.0  0.44169  0.59256  0.63524  1.0000
  H   H1118     1.0  0.42578  0.73216  0.80835  1.0000
  H   H1119     1.0  0.46261  0.74647  0.79378  1.0000
  C   C1403     1.0  0.29993  0.52350  0.55599  1.0000
  C   C1404     1.0  0.46125  0.93881  0.70159  1.0000
  C   C1405     1.0  0.33510  0.54319  0.60256  1.0000
  S   S189      1.0  0.28661  0.90792  0.79838  1.0000
  C   C1406     1.0  0.27402  0.72082  0.57499  1.0000
  C   C1407     1.0  0.28695  0.92769  0.82639  1.0000
  H   H1120     1.0  0.36848  0.50668  0.50877  1.0000
  C   C1408     1.0  0.30162  0.56235  0.54628  1.0000
  H   H1121     1.0  0.33148  0.91223  0.68784  1.0000
  S   S190      1.0  0.27351  0.93647  0.73547  1.0000
  H   H1122     1.0  0.44531  0.75059  0.82047  1.0000
  Fe  Fe96      1.0  0.30849  0.92276  0.97150  1.0000
  C   C1409     1.0  0.44443  0.73972  0.80347  1.0000
  C   C1410     1.0  0.32968  0.65618  0.57992  1.0000
  C   C1411     1.0  0.43004  0.69958  0.49125  1.0000
  H   H1123     1.0  0.35135  0.89911  0.75075  1.0000
  C   C1412     1.0  0.46721  0.52168  0.57480  1.0000
  C   C1413     1.0  0.46667  0.87344  0.68625  1.0000
  P   P46       1.0  0.46103  0.97363  0.72452  1.0000
  C   C1414     1.0  0.44914  0.95827  0.91414  1.0000
  H   H1124     1.0  0.25793  0.92207  0.66587  1.0000
  C   C1415     1.0  0.31038  0.81117  0.84779  1.0000
  H   H1125     1.0  0.44057  0.70289  0.65517  1.0000
  H   H1126     1.0  0.46757  0.53660  0.53838  1.0000
  H   H1127     1.0  0.31877  0.88426  0.79609  1.0000
  H   H1128     1.0  0.23617  0.79106  0.81855  1.0000
  H   H1129     1.0  0.30916  0.95084  0.82448  1.0000
  H   H1130     1.0  0.26476  0.89621  0.83010  1.0000
  C   C1416     1.0  0.35099  0.57997  0.55448  1.0000
  C   C1417     1.0  0.32929  0.92491  0.86512  1.0000
  C   C1418     1.0  0.33312  0.55826  0.53901  1.0000
  H   H1131     1.0  0.37436  0.90935  0.84108  1.0000
  H   H1132     1.0  0.23706  0.83185  0.90177  1.0000
  H   H1133     1.0  0.36934  0.97268  0.70315  1.0000
  C   C1419     1.0  0.36554  0.93398  0.76128  1.0000
  S   S191      1.0  0.28708  0.97522  0.90005  1.0000
  H   H1134     1.0  0.36428  0.85655  0.72553  1.0000
  H   H1135     1.0  0.44486  0.53290  0.94527  1.0000
  H   H1136     1.0  0.38565  0.86756  0.72180  1.0000
  H   H1137     1.0  0.45044  0.93064  0.64877  1.0000
  H   H1138     1.0  0.46444  0.51063  0.61113  1.0000
  H   H1139     1.0  0.37831  0.85926  0.81122  1.0000
  C   C1420     1.0  0.35083  0.49619  0.49890  1.0000
  C   C1421     1.0  0.31883  0.57656  0.62363  1.0000
  C   C1422     1.0  0.39653  0.91845  0.79799  1.0000
  C   C1423     1.0  0.36112  0.51848  0.49929  1.0000
  H   H1140     1.0  0.29229  0.48803  0.58444  1.0000
  H   H1141     1.0  0.34489  0.59658  0.64571  1.0000
  H   H1142     1.0  0.47167  0.89172  0.71881  1.0000
  H   H1143     1.0  0.45488  0.48523  0.69714  1.0000
  H   H1144     1.0  0.43659  0.96551  0.71249  1.0000
  S   S192      1.0  0.32670  0.97278  0.72287  1.0000
  C   C1424     1.0  0.47446  0.57229  0.83606  1.0000
  H   H1145     1.0  0.32372  0.95249  0.92896  1.0000
  Fe  Fe97      1.0  0.28615  0.97300  0.98795  1.0000
  H   H1146     1.0  0.46375  0.55495  0.95872  1.0000
  H   H1147     1.0  0.24958  0.96337  0.56861  1.0000
  C   C1425     1.0  0.47395  0.93074  0.75768  1.0000
  C   C1426     1.0  0.45178  0.54239  0.93292  1.0000
  C   C1427     1.0  0.23064  0.88608  0.57268  1.0000
  H   H1148     1.0  0.23371  0.59720  0.56153  1.0000
  H   H1149     1.0  0.32347  0.61122  0.65183  1.0000
  C   C1428     1.0  0.44745  0.96807  0.74175  1.0000
  C   C1429     1.0  0.32670  0.59224  0.63811  1.0000
  C   C1430     1.0  0.35056  0.97215  0.71154  1.0000
  C   C1431     1.0  0.47900  0.79267  0.74306  1.0000
  C   C1432     1.0  0.24390  0.97327  0.69823  1.0000
  S   S193      1.0  0.27660  0.82361  0.98577  1.0000
  C   C1433     1.0  0.27110  0.97332  0.62033  1.0000
  H   H1150     1.0  0.27975  0.97808  0.61231  1.0000
  H   H1151     1.0  0.36175  0.50329  0.54830  1.0000
  C   C1434     1.0  0.23082  0.85662  0.89845  1.0000
  C   C1435     1.0  0.24929  0.96368  0.84377  1.0000
  H   H1152     1.0  0.24514  0.94741  0.83100  1.0000
  C   C1436     1.0  0.25748  0.96664  0.88103  1.0000
  H   H1153     1.0  0.46746  0.83315  0.98804  1.0000
  C   C1437     1.0  0.23071  0.91749  0.69989  1.0000
  H   H1154     1.0  0.23000  0.88025  0.52679  1.0000
  C   C1438     1.0  0.45263  0.47931  0.67988  1.0000
  C   C1439     1.0  0.23803  0.47955  0.49968  1.0000
  H   H1155     1.0  0.30599  0.97844  0.59835  1.0000
  S   S194      1.0  0.32788  0.48313  0.48911  1.0000
  C   C1440     1.0  0.59333  0.02301  0.05669  1.0000
  C   C1441     1.0  0.53274  0.99354  0.07725  1.0000
  S   S195      1.0  0.49933  0.09066  0.06865  1.0000
  C   C1442     1.0  0.50757  0.22723  0.44340  1.0000
  C   C1443     1.0  0.72160  0.08453  0.29007  1.0000
  S   S196      1.0  0.64645  0.03192  0.22549  1.0000
  S   S197      1.0  0.61708  0.02412  0.26075  1.0000
  Fe  Fe98      1.0  0.66112  0.02412  0.25010  1.0000
  S   S198      1.0  0.67449  0.07242  0.25552  1.0000
  Fe  Fe99      1.0  0.52592  0.00876  0.26311  1.0000
  S   S199      1.0  0.51410  0.01465  0.29504  1.0000
  S   S200      1.0  0.52275  0.02656  0.22554  1.0000
  H   H1156     1.0  0.69449  0.99741  0.26060  1.0000
  C   C1444     1.0  0.70963  0.02607  0.35890  1.0000
  C   C1445     1.0  0.50159  0.11951  0.28396  1.0000
  C   C1446     1.0  0.55392  0.02046  0.00824  1.0000
  Fe  Fe100     1.0  0.52943  0.04417  0.30989  1.0000
  S   S201      1.0  0.52674  0.10777  0.32412  1.0000
  S   S202      1.0  0.54075  0.04121  0.27709  1.0000
  C   C1447     1.0  0.48781  0.30115  0.25277  1.0000
  C   C1448     1.0  0.56324  0.00094  0.34588  1.0000
  C   C1449     1.0  0.56339  0.01123  0.99274  1.0000
  Fe  Fe101     1.0  0.54019  0.26922  0.42147  1.0000
  S   S203      1.0  0.54805  0.28252  0.45501  1.0000
  S   S204      1.0  0.54061  0.20261  0.41170  1.0000
  Fe  Fe102     1.0  0.53494  0.35953  0.41024  1.0000
  S   S205      1.0  0.54285  0.37901  0.44229  1.0000
  S   S206      1.0  0.52582  0.39674  0.38170  1.0000
  Fe  Fe103     1.0  0.55754  0.33278  0.43517  1.0000
  S   S207      1.0  0.57769  0.33212  0.43853  1.0000
  Fe  Fe104     1.0  0.53297  0.32738  0.46028  1.0000
  S   S208      1.0  0.55038  0.31708  0.40145  1.0000
  S   S209      1.0  0.52435  0.31048  0.42844  1.0000
  Fe  Fe105     1.0  0.70735  0.18448  0.35065  1.0000
  S   S210      1.0  0.71389  0.18496  0.38653  1.0000
  S   S211      1.0  0.69057  0.15059  0.34631  1.0000
  Fe  Fe106     1.0  0.71649  0.25132  0.37883  1.0000
  S   S212      1.0  0.71248  0.30565  0.40083  1.0000
  S   S213      1.0  0.70871  0.25157  0.34431  1.0000
  C   C1450     1.0  0.69904  0.04610  0.36560  1.0000
  C   C1451     1.0  0.68050  0.32484  0.45154  1.0000
  C   C1452     1.0  0.68438  0.28559  0.44605  1.0000
  C   C1453     1.0  0.69390  0.27918  0.43001  1.0000
  C   C1454     1.0  0.69980  0.31207  0.41963  1.0000
  C   C1455     1.0  0.69582  0.35132  0.42494  1.0000
  C   C1456     1.0  0.68619  0.35771  0.44068  1.0000
  H   H1157     1.0  0.68010  0.25999  0.45453  1.0000
  H   H1158     1.0  0.69687  0.24882  0.42619  1.0000
  H   H1159     1.0  0.70015  0.37706  0.41687  1.0000
  H   H1160     1.0  0.68330  0.38806  0.44472  1.0000
  C   C1457     1.0  0.58856  0.36448  0.44769  1.0000
  C   C1458     1.0  0.60036  0.35018  0.44798  1.0000
  H   H1161     1.0  0.60419  0.18271  0.22781  1.0000
  C   C1459     1.0  0.60653  0.41351  0.46221  1.0000
  C   C1460     1.0  0.59475  0.42786  0.46186  1.0000
  C   C1461     1.0  0.58582  0.40358  0.45468  1.0000
  H   H1162     1.0  0.70467  0.37387  0.05396  1.0000
  H   H1163     1.0  0.57684  0.41515  0.45434  1.0000
  C   C1462     1.0  0.53701  0.17721  0.38678  1.0000
  C   C1463     1.0  0.53987  0.13563  0.38545  1.0000
  C   C1464     1.0  0.53697  0.11397  0.36639  1.0000
  C   C1465     1.0  0.53106  0.13353  0.34838  1.0000
  C   C1466     1.0  0.52833  0.17519  0.34957  1.0000
  C   C1467     1.0  0.53130  0.19691  0.36855  1.0000
  H   H1164     1.0  0.54428  0.11998  0.39939  1.0000
  H   H1165     1.0  0.53912  0.08202  0.36582  1.0000
  H   H1166     1.0  0.52379  0.19077  0.33577  1.0000
  H   H1167     1.0  0.52902  0.22877  0.36921  1.0000
  C   C1468     1.0  0.67881  0.09348  0.28112  1.0000
  C   C1469     1.0  0.67227  0.08907  0.30204  1.0000
  C   C1470     1.0  0.67610  0.10620  0.32186  1.0000
  C   C1471     1.0  0.68640  0.12841  0.32100  1.0000
  C   C1472     1.0  0.69293  0.13295  0.30011  1.0000
  C   C1473     1.0  0.68913  0.11566  0.28031  1.0000
  H   H1168     1.0  0.66424  0.07257  0.30294  1.0000
  H   H1169     1.0  0.67098  0.10247  0.33792  1.0000
  H   H1170     1.0  0.70080  0.15026  0.29911  1.0000
  H   H1171     1.0  0.69419  0.11981  0.26422  1.0000
  C   C1474     1.0  0.60299  0.00347  0.26743  1.0000
  C   C1475     1.0  0.49703  0.19281  0.19954  1.0000
  C   C1476     1.0  0.58157  0.01464  0.27277  1.0000
  C   C1477     1.0  0.59289  0.02935  0.26714  1.0000
  H   H1172     1.0  0.57392  0.03494  0.27241  1.0000
  H   H1173     1.0  0.59386  0.06104  0.26258  1.0000
  C   C1478     1.0  0.48829  0.05979  0.18979  1.0000
  C   C1479     1.0  0.48796  0.04866  0.21338  1.0000
  C   C1480     1.0  0.49838  0.03827  0.22462  1.0000
  C   C1481     1.0  0.50928  0.03920  0.21239  1.0000
  C   C1482     1.0  0.50960  0.05071  0.18884  1.0000
  C   C1483     1.0  0.49918  0.06082  0.17757  1.0000
  C   C1484     1.0  0.56627  0.07030  0.36981  1.0000
  H   H1174     1.0  0.49797  0.02952  0.24273  1.0000
  H   H1175     1.0  0.51797  0.05151  0.17920  1.0000
  H   H1176     1.0  0.49957  0.06914  0.15942  1.0000
  Fe  Fe107     1.0  0.65147  0.99399  0.02959  1.0000
  C   C1485     1.0  0.51609  0.09669  0.00514  1.0000
  C   C1486     1.0  0.51243  0.08478  0.02784  1.0000
  C   C1487     1.0  0.50331  0.10610  0.03977  1.0000
  C   C1488     1.0  0.49786  0.13951  0.02868  1.0000
  Fe  Fe108     1.0  0.63559  0.99638  0.25256  1.0000
  C   C1489     1.0  0.55871  0.03680  0.22321  1.0000
  H   H1177     1.0  0.51674  0.05902  0.03622  1.0000
  H   H1178     1.0  0.49085  0.15629  0.03762  1.0000
  C   C1490     1.0  0.48640  0.37465  0.45647  1.0000
  H   H1179     1.0  0.57198  0.02297  0.99453  1.0000
  C   C1491     1.0  0.68948  0.00133  0.31275  1.0000
  C   C1492     1.0  0.51092  0.13092  0.99434  1.0000
  H   H1180     1.0  0.59250  0.45809  0.46709  1.0000
  C   C1493     1.0  0.49214  0.31553  0.18395  1.0000
  H   H1181     1.0  0.60897  0.01545  0.15209  1.0000
  C   C1494     1.0  0.59109  0.08894  0.12032  1.0000
  H   H1182     1.0  0.48935  0.14589  0.18119  1.0000
  H   H1183     1.0  0.57016  0.08275  0.20984  1.0000
  C   C1495     1.0  0.48755  0.16956  0.26927  1.0000
  H   H1184     1.0  0.71917  0.38893  0.40453  1.0000
  C   C1496     1.0  0.72179  0.37093  0.30898  1.0000
  C   C1497     1.0  0.56898  0.05064  0.21175  1.0000
  H   H1185     1.0  0.51450  0.23183  0.47664  1.0000
  H   H1186     1.0  0.56606  0.03662  0.11880  1.0000
  C   C1498     1.0  0.72326  0.38091  0.34949  1.0000
  H   H1187     1.0  0.60261  0.32004  0.44257  1.0000
  P   P47       1.0  0.59034  0.04120  0.18638  1.0000
  C   C1499     1.0  0.48678  0.35362  0.18724  1.0000
  C   C1500     1.0  0.48644  0.28688  0.17222  1.0000
  C   C1501     1.0  0.72553  0.44270  0.03869  1.0000
  H   H1188     1.0  0.61390  0.11614  0.23754  1.0000
  H   H1189     1.0  0.67646  0.43035  0.37328  1.0000
  H   H1190     1.0  0.49758  0.17830  0.99789  1.0000
  H   H1191     1.0  0.49066  0.25781  0.16897  1.0000
  P   P48       1.0  0.48593  0.19236  0.22288  1.0000
  C   C1502     1.0  0.55686  0.99547  0.22593  1.0000
  H   H1192     1.0  0.52558  0.46416  0.41237  1.0000
  C   C1503     1.0  0.71149  0.46824  0.06779  1.0000
  C   C1504     1.0  0.49646  0.16655  0.18154  1.0000
  C   C1505     1.0  0.50526  0.16595  0.16392  1.0000
  C   C1506     1.0  0.51474  0.19130  0.16416  1.0000
  C   C1507     1.0  0.51551  0.21702  0.18220  1.0000
  C   C1508     1.0  0.50674  0.21757  0.19993  1.0000
  C   C1509     1.0  0.50313  0.41553  0.44483  1.0000
  C   C1510     1.0  0.70452  0.45406  0.38341  1.0000
  H   H1193     1.0  0.56719  0.09687  0.37944  1.0000
  H   H1194     1.0  0.50422  0.12724  0.22578  1.0000
  C   C1511     1.0  0.56814  0.03480  0.33449  1.0000
  H   H1195     1.0  0.72748  0.06567  0.39645  1.0000
  H   H1196     1.0  0.50854  0.43285  0.35236  1.0000
  C   C1512     1.0  0.48274  0.24363  0.23142  1.0000
  H   H1197     1.0  0.71635  0.42317  0.28839  1.0000
  H   H1198     1.0  0.51276  0.08978  0.25857  1.0000
  H   H1199     1.0  0.72303  0.00863  0.25292  1.0000
  H   H1200     1.0  0.55017  0.45537  0.47602  1.0000
  H   H1201     1.0  0.50477  0.14532  0.15022  1.0000
  H   H1202     1.0  0.52156  0.19053  0.15050  1.0000
  H   H1203     1.0  0.52298  0.23610  0.18259  1.0000
  H   H1204     1.0  0.71632  0.07888  0.32572  1.0000
  H   H1205     1.0  0.72483  0.36789  0.36638  1.0000
  C   C1513     1.0  0.55116  0.18642  0.00975  1.0000
  C   C1514     1.0  0.69868  0.07236  0.38364  1.0000
  H   H1206     1.0  0.58640  0.19459  0.39600  1.0000
  C   C1515     1.0  0.55927  0.13389  0.26257  1.0000
  C   C1516     1.0  0.51771  0.44356  0.38266  1.0000
  H   H1207     1.0  0.49913  0.23043  0.41134  1.0000
  C   C1517     1.0  0.70410  0.03331  0.20764  1.0000
  H   H1208     1.0  0.57061  0.03367  0.31636  1.0000
  C   C1518     1.0  0.48903  0.46061  0.25923  1.0000
  C   C1519     1.0  0.70934  0.40175  0.05366  1.0000
  C   C1520     1.0  0.57075  0.21759  0.38029  1.0000
  H   H1209     1.0  0.61194  0.02425  0.31395  1.0000
  C   C1521     1.0  0.71935  0.40684  0.03900  1.0000
  H   H1210     1.0  0.48914  0.15300  0.30522  1.0000
  H   H1211     1.0  0.49919  0.47832  0.43632  1.0000
  C   C1522     1.0  0.58052  0.19127  0.38232  1.0000
  H   H1212     1.0  0.72258  0.11687  0.29037  1.0000
  C   C1523     1.0  0.67848  0.98907  0.30695  1.0000
  C   C1524     1.0  0.49563  0.44950  0.44203  1.0000
  H   H1213     1.0  0.48039  0.19126  0.27253  1.0000
  C   C1525     1.0  0.60867  0.05483  0.31675  1.0000
  C   C1526     1.0  0.61619  0.08694  0.31276  1.0000
  C   C1527     1.0  0.61191  0.12649  0.31552  1.0000
  C   C1528     1.0  0.72183  0.02360  0.26899  1.0000
  H   H1214     1.0  0.62528  0.08101  0.30702  1.0000
  H   H1215     1.0  0.61773  0.15136  0.31216  1.0000
  C   C1529     1.0  0.70066  0.03315  0.23095  1.0000
  C   C1530     1.0  0.49943  0.27208  0.47213  1.0000
  C   C1531     1.0  0.49906  0.24167  0.42845  1.0000
  C   C1532     1.0  0.56494  0.18185  0.34778  1.0000
  H   H1216     1.0  0.70645  0.99857  0.17764  1.0000
  C   C1533     1.0  0.55779  0.12267  0.30389  1.0000
  C   C1534     1.0  0.56996  0.06946  0.34645  1.0000
  C   C1535     1.0  0.66549  0.20771  0.43189  1.0000
  C   C1536     1.0  0.67564  0.18472  0.42610  1.0000
  C   C1537     1.0  0.68136  0.19070  0.40451  1.0000
  C   C1538     1.0  0.67703  0.21988  0.38878  1.0000
  C   C1539     1.0  0.66671  0.24261  0.39427  1.0000
  C   C1540     1.0  0.66100  0.23647  0.41604  1.0000
  P   P49       1.0  0.66060  0.27752  0.37295  1.0000
  C   C1541     1.0  0.67250  0.30471  0.35847  1.0000
  C   C1542     1.0  0.65335  0.25009  0.35204  1.0000
  C   C1543     1.0  0.64374  0.26807  0.34081  1.0000
  C   C1544     1.0  0.63850  0.24789  0.32378  1.0000
  C   C1545     1.0  0.64291  0.20991  0.31754  1.0000
  C   C1546     1.0  0.65256  0.19208  0.32835  1.0000
  C   C1547     1.0  0.65778  0.21200  0.34550  1.0000
  C   C1548     1.0  0.68151  0.31861  0.37114  1.0000
  C   C1549     1.0  0.69071  0.33998  0.36010  1.0000
  C   C1550     1.0  0.69105  0.34722  0.33633  1.0000
  C   C1551     1.0  0.68217  0.33327  0.32356  1.0000
  C   C1552     1.0  0.67289  0.31220  0.33456  1.0000
  C   C1553     1.0  0.65031  0.31268  0.38688  1.0000
  C   C1554     1.0  0.65369  0.35154  0.39168  1.0000
  C   C1555     1.0  0.64567  0.37840  0.40239  1.0000
  C   C1556     1.0  0.63425  0.36668  0.40867  1.0000
  C   C1557     1.0  0.63083  0.32798  0.40421  1.0000
  C   C1558     1.0  0.63882  0.30104  0.39339  1.0000
  H   H1217     1.0  0.66115  0.20351  0.44875  1.0000
  H   H1218     1.0  0.67912  0.16244  0.43835  1.0000
  H   H1219     1.0  0.68914  0.17261  0.39982  1.0000
  H   H1220     1.0  0.68165  0.22414  0.37215  1.0000
  H   H1221     1.0  0.65317  0.25393  0.42101  1.0000
  H   H1222     1.0  0.64041  0.29799  0.34488  1.0000
  H   H1223     1.0  0.63111  0.26197  0.31516  1.0000
  H   H1224     1.0  0.63899  0.19448  0.30409  1.0000
  H   H1225     1.0  0.65615  0.16299  0.32319  1.0000
  H   H1226     1.0  0.66539  0.19769  0.35314  1.0000
  H   H1227     1.0  0.68139  0.31303  0.38957  1.0000
  H   H1228     1.0  0.69767  0.35042  0.36998  1.0000
  H   H1229     1.0  0.69827  0.36323  0.32779  1.0000
  H   H1230     1.0  0.68253  0.33841  0.30507  1.0000
  H   H1231     1.0  0.66614  0.30157  0.32428  1.0000
  H   H1232     1.0  0.66249  0.36138  0.38732  1.0000
  H   H1233     1.0  0.64832  0.40836  0.40596  1.0000
  H   H1234     1.0  0.62808  0.38763  0.41704  1.0000
  H   H1235     1.0  0.62196  0.31897  0.40914  1.0000
  H   H1236     1.0  0.63606  0.27105  0.39018  1.0000
  C   C1559     1.0  0.48931  0.98994  0.04834  1.0000
  C   C1560     1.0  0.58951  0.12393  0.19356  1.0000
  P   P50       1.0  0.55596  0.05182  0.03210  1.0000
  C   C1561     1.0  0.57749  0.02313  0.20275  1.0000
  H   H1237     1.0  0.54980  0.21802  0.00469  1.0000
  H   H1238     1.0  0.58861  0.18757  0.19958  1.0000
  H   H1239     1.0  0.54890  0.98487  0.23489  1.0000
  H   H1240     1.0  0.48310  0.43668  0.25678  1.0000
  H   H1241     1.0  0.58265  0.12645  0.18141  1.0000
  H   H1242     1.0  0.70974  0.47609  0.41554  1.0000
  C   C1562     1.0  0.60226  0.00357  0.18722  1.0000
  H   H1243     1.0  0.50764  0.23698  0.21397  1.0000
  C   C1563     1.0  0.55959  0.00197  0.36906  1.0000
  H   H1244     1.0  0.56899  0.24106  0.39242  1.0000
  H   H1245     1.0  0.55802  0.03789  0.39885  1.0000
  C   C1564     1.0  0.59283  0.15861  0.20389  1.0000
  C   C1565     1.0  0.52607  0.02532  0.08680  1.0000
  C   C1566     1.0  0.70405  0.99767  0.19586  1.0000
  H   H1246     1.0  0.58642  0.12350  0.28362  1.0000
  H   H1247     1.0  0.50540  0.10291  0.29836  1.0000
  C   C1567     1.0  0.72421  0.35568  0.33099  1.0000
  C   C1568     1.0  0.59387  0.07907  0.14299  1.0000
  C   C1569     1.0  0.60927  0.37449  0.45513  1.0000
  H   H1248     1.0  0.49808  0.24571  0.25164  1.0000
  H   H1249     1.0  0.48752  0.00371  0.06469  1.0000
  H   H1250     1.0  0.61828  0.36325  0.45501  1.0000
  C   C1570     1.0  0.71949  0.05963  0.38812  1.0000
  C   C1571     1.0  0.49070  0.28628  0.45742  1.0000
  C   C1572     1.0  0.51946  0.47153  0.39917  1.0000
  C   C1573     1.0  0.56105  0.03673  0.38098  1.0000
  S   S214      1.0  0.66877  0.33152  0.47246  1.0000
  C   C1574     1.0  0.49068  0.27116  0.43536  1.0000
  C   C1575     1.0  0.54711  0.11634  0.00511  1.0000
  C   C1576     1.0  0.71744  0.43690  0.32390  1.0000
  H   H1251     1.0  0.59120  0.03663  0.32552  1.0000
  C   C1577     1.0  0.50774  0.24242  0.46524  1.0000
  H   H1252     1.0  0.55856  0.17840  0.33510  1.0000
  C   C1578     1.0  0.58027  0.05880  0.03071  1.0000
  H   H1253     1.0  0.49127  0.37528  0.19650  1.0000
  H   H1254     1.0  0.55209  0.05801  0.22992  1.0000
  H   H1255     1.0  0.58600  0.27310  0.47496  1.0000
  C   C1579     1.0  0.49856  0.37835  0.45227  1.0000
  C   C1580     1.0  0.59683  0.06211  0.32331  1.0000
  C   C1581     1.0  0.50578  0.11233  0.26157  1.0000
  C   C1582     1.0  0.72012  0.42200  0.34603  1.0000
  S   S215      1.0  0.64730  0.00787  0.06801  1.0000
  H   H1256     1.0  0.51252  0.41790  0.44131  1.0000
  C   C1583     1.0  0.50093  0.13388  0.24298  1.0000
  C   C1584     1.0  0.49942  0.46411  0.24551  1.0000
  H   H1257     1.0  0.57686  0.13365  0.24704  1.0000
  H   H1258     1.0  0.64221  0.04716  0.11059  1.0000
  C   C1585     1.0  0.57474  0.15512  0.34971  1.0000
  C   C1586     1.0  0.59163  0.04960  0.03778  1.0000
  H   H1259     1.0  0.69054  0.08858  0.38831  1.0000
  C   C1587     1.0  0.50169  0.15192  0.00614  1.0000
  H   H1260     1.0  0.72251  0.35116  0.29469  1.0000
  S   S216      1.0  0.65243  0.43260  0.45344  1.0000
  C   C1588     1.0  0.57007  0.12126  0.30454  1.0000
  H   H1261     1.0  0.55525  0.23277  0.36188  1.0000
  H   H1262     1.0  0.56309  0.19757  0.03584  1.0000
  S   S217      1.0  0.64666  0.04537  0.00423  1.0000
  C   C1589     1.0  0.71987  0.03327  0.37015  1.0000
  C   C1590     1.0  0.64594  0.01757  0.11512  1.0000
  C   C1591     1.0  0.55864  0.17483  0.02728  1.0000
  C   C1592     1.0  0.57692  0.12548  0.28384  1.0000
  H   H1263     1.0  0.51871  0.01925  0.09890  1.0000
  P   P51       1.0  0.57685  0.11229  0.33168  1.0000
  H   H1264     1.0  0.51424  0.20504  0.43784  1.0000
  H   H1265     1.0  0.55505  0.13833  0.24643  1.0000
  H   H1266     1.0  0.53514  0.46730  0.32310  1.0000
  C   C1593     1.0  0.57153  0.13139  0.26294  1.0000
  S   S218      1.0  0.61736  0.44556  0.47176  1.0000
  H   H1267     1.0  0.50794  0.99654  0.04876  1.0000
  C   C1594     1.0  0.59496  0.08626  0.19906  1.0000
  C   C1595     1.0  0.68376  0.44025  0.38241  1.0000
  C   C1596     1.0  0.64732  0.00613  0.13857  1.0000
  C   C1597     1.0  0.71832  0.41147  0.30546  1.0000
  H   H1268     1.0  0.72226  0.38263  0.02809  1.0000
  C   C1598     1.0  0.60160  0.15593  0.21978  1.0000
  C   C1599     1.0  0.60708  0.11863  0.22523  1.0000
  H   H1269     1.0  0.58991  0.13916  0.36949  1.0000
  C   C1600     1.0  0.58105  0.07379  0.11163  1.0000
  H   H1270     1.0  0.53947  0.10459  0.05908  1.0000
  Fe  Fe109     1.0  0.66094  0.39375  0.48075  1.0000
  C   C1601     1.0  0.48354  0.44629  0.44670  1.0000
  H   H1271     1.0  0.69111  0.04239  0.35661  1.0000
  H   H1272     1.0  0.70019  0.06104  0.23990  1.0000
  S   S219      1.0  0.53692  0.98488  0.32421  1.0000
  C   C1602     1.0  0.56301  0.21297  0.36298  1.0000
  C   C1603     1.0  0.71645  0.02086  0.30990  1.0000
  C   C1604     1.0  0.58668  0.05363  0.15710  1.0000
  H   H1273     1.0  0.59679  0.16483  0.32338  1.0000
  H   H1274     1.0  0.54290  0.13147  0.28293  1.0000
  C   C1605     1.0  0.58250  0.16008  0.36717  1.0000
  C   C1606     1.0  0.60383  0.08404  0.21484  1.0000
  H   H1275     1.0  0.56586  0.12558  0.04784  1.0000
  H   H1276     1.0  0.50457  0.35270  0.45482  1.0000
  C   C1607     1.0  0.60006  0.13393  0.32204  1.0000
  C   C1608     1.0  0.69501  0.44149  0.37157  1.0000
  C   C1609     1.0  0.59242  0.10176  0.32616  1.0000
  H   H1277     1.0  0.55233  0.11804  0.31951  1.0000
  H   H1278     1.0  0.60828  0.05570  0.21930  1.0000
  C   C1610     1.0  0.55242  0.12997  0.28308  1.0000
  C   C1611     1.0  0.54463  0.04168  0.05438  1.0000
  C   C1612     1.0  0.57049  0.04152  0.04253  1.0000
  H   H1279     1.0  0.50155  0.44277  0.23235  1.0000
  H   H1280     1.0  0.59675  0.10824  0.10946  1.0000
  H   H1281     1.0  0.64651  0.26541  0.47654  1.0000
  H   H1282     1.0  0.59915  0.06253  0.02832  1.0000
  C   C1613     1.0  0.49242  0.14789  0.28781  1.0000
  H   H1283     1.0  0.50074  0.30826  0.19033  1.0000
  C   C1614     1.0  0.49195  0.16333  0.24673  1.0000
  H   H1284     1.0  0.60171  0.09096  0.14947  1.0000
  C   C1615     1.0  0.71809  0.06264  0.31020  1.0000
  C   C1616     1.0  0.49031  0.26195  0.24568  1.0000
  C   C1617     1.0  0.70888  0.07904  0.39493  1.0000
  Fe  Fe110     1.0  0.63713  0.44055  0.47893  1.0000
  H   H1285     1.0  0.62771  0.30127  0.46781  1.0000
  C   C1618     1.0  0.50085  0.98594  0.03927  1.0000
  H   H1286     1.0  0.64467  0.02688  0.15174  1.0000
  H   H1287     1.0  0.57890  0.08156  0.09407  1.0000
  S   S220      1.0  0.48292  0.14656  0.12224  1.0000
  C   C1619     1.0  0.57665  0.03825  0.14819  1.0000
  H   H1288     1.0  0.52293  0.07958  0.99606  1.0000
  H   H1289     1.0  0.70862  0.09996  0.40861  1.0000
  C   C1620     1.0  0.50985  0.45407  0.36537  1.0000
  Fe  Fe111     1.0  0.48298  0.11071  0.09026  1.0000
  C   C1621     1.0  0.57384  0.04843  0.12555  1.0000
  C   C1622     1.0  0.55457  0.10437  0.02266  1.0000
  C   C1623     1.0  0.54535  0.15717  0.99878  1.0000
  H   H1290     1.0  0.67372  0.00618  0.29398  1.0000
  C   C1624     1.0  0.55591  0.43988  0.48805  1.0000
  H   H1291     1.0  0.69622  0.43259  0.35402  1.0000
  H   H1292     1.0  0.54256  0.09423  0.99643  1.0000
  H   H1293     1.0  0.49363  0.31477  0.26400  1.0000
  C   C1625     1.0  0.72715  0.40511  0.40569  1.0000
  C   C1626     1.0  0.72150  0.47345  0.05314  1.0000
  H   H1294     1.0  0.69291  0.02870  0.30451  1.0000
  H   H1295     1.0  0.48435  0.28233  0.42330  1.0000
  S   S221      1.0  0.64991  0.99302  0.27793  1.0000
  C   C1627     1.0  0.56026  0.13397  0.03388  1.0000
  H   H1296     1.0  0.72672  0.32405  0.33374  1.0000
  C   C1628     1.0  0.72355  0.06499  0.26951  1.0000
  C   C1629     1.0  0.68192  0.45196  0.40501  1.0000
  C   C1630     1.0  0.71802  0.00182  0.28896  1.0000
  H   H1297     1.0  0.69770  0.42830  0.07952  1.0000
  P   P52       1.0  0.71911  0.45520  0.36976  1.0000
  C   C1631     1.0  0.57228  0.01473  0.06152  1.0000
  H   H1298     1.0  0.57912  0.07890  0.01574  1.0000
  H   H1299     1.0  0.67513  0.99963  0.13769  1.0000
  H   H1300     1.0  0.52330  0.08972  0.08730  1.0000
  Fe  Fe112     1.0  0.54740  0.98068  0.29038  1.0000
  H   H1301     1.0  0.70642  0.06138  0.19854  1.0000
  H   H1302     1.0  0.71462  0.46814  0.32083  1.0000
  C   C1632     1.0  0.53792  0.07341  0.06421  1.0000
  H   H1303     1.0  0.69812  0.02962  0.00393  1.0000
  C   C1633     1.0  0.69747  0.99718  0.24266  1.0000
  C   C1634     1.0  0.52870  0.06516  0.08035  1.0000
  C   C1635     1.0  0.70542  0.43240  0.06807  1.0000
  H   H1304     1.0  0.53518  0.01427  0.01551  1.0000
  C   C1636     1.0  0.54276  0.00612  0.00451  1.0000
  S   S222      1.0  0.72519  0.17089  0.33415  1.0000
  C   C1637     1.0  0.70258  0.46584  0.40611  1.0000
  C   C1638     1.0  0.54197  0.00164  0.06108  1.0000
  C   C1639     1.0  0.58366  0.00560  0.06856  1.0000
  C   C1640     1.0  0.57540  0.98162  0.20505  1.0000
  C   C1641     1.0  0.69133  0.46475  0.41682  1.0000
  H   H1305     1.0  0.72613  0.08214  0.25388  1.0000
  H   H1306     1.0  0.67320  0.45145  0.41341  1.0000
  S   S223      1.0  0.66952  0.98498  0.01253  1.0000
  H   H1307     1.0  0.57097  0.01845  0.15866  1.0000
  C   C1642     1.0  0.70004  0.00207  0.99499  1.0000
  C   C1643     1.0  0.47937  0.45216  0.18465  1.0000
  C   C1644     1.0  0.49072  0.45046  0.17404  1.0000
  H   H1308     1.0  0.49338  0.42623  0.16291  1.0000
  C   C1645     1.0  0.60415  0.98061  0.20763  1.0000
  Fe  Fe113     1.0  0.72722  0.23823  0.33047  1.0000
  P   P53       1.0  0.71049  0.99327  0.33513  1.0000
  P   P54       1.0  0.48044  0.32658  0.46590  1.0000
  C   C1646     1.0  0.64941  0.99141  0.09744  1.0000
  H   H1309     1.0  0.68983  0.47404  0.43430  1.0000
  H   H1310     1.0  0.56497  0.00061  0.07088  1.0000
  H   H1311     1.0  0.60217  0.01556  0.06195  1.0000
  C   C1647     1.0  0.61005  0.99815  0.16803  1.0000
  H   H1312     1.0  0.58502  0.98475  0.08313  1.0000
  C   C1648     1.0  0.63080  0.30083  0.48502  1.0000
  H   H1313     1.0  0.59841  0.98469  0.22278  1.0000
  H   H1314     1.0  0.50743  0.47883  0.16924  1.0000
  H   H1315     1.0  0.72819  0.01903  0.36477  1.0000
  H   H1316     1.0  0.47959  0.04784  0.22301  1.0000
  H   H1317     1.0  0.61314  0.06712  0.98888  1.0000
  H   H1318     1.0  0.67331  0.46573  0.57507  1.0000
  C   C1649     1.0  0.49816  0.23735  0.71332  1.0000
  H   H1319     1.0  0.71825  0.37093  0.96145  1.0000
  Fe  Fe114     1.0  0.53146  0.41845  0.75773  1.0000
  S   S224      1.0  0.51837  0.42813  0.78727  1.0000
  S   S225      1.0  0.52927  0.38241  0.72564  1.0000
  H   H1320     1.0  0.62785  0.13556  0.94189  1.0000
  Fe  Fe115     1.0  0.53298  0.40713  0.81008  1.0000
  S   S226      1.0  0.53004  0.36453  0.84201  1.0000
  H   H1321     1.0  0.68794  0.39607  0.82462  1.0000
  S   S227      1.0  0.54569  0.39415  0.78067  1.0000
  Fe  Fe116     1.0  0.71076  0.19710  0.86959  1.0000
  H   H1322     1.0  0.56403  0.27850  0.75968  1.0000
  S   S228      1.0  0.69456  0.15994  0.87920  1.0000
  H   H1323     1.0  0.60198  0.23322  0.49368  1.0000
  S   S229      1.0  0.71538  0.28979  0.79628  1.0000
  S   S230      1.0  0.71068  0.26484  0.86394  1.0000
  S   S231      1.0  0.71825  0.18632  0.83386  1.0000
  C   C1650     1.0  0.60170  0.27038  0.52298  1.0000
  C   C1651     1.0  0.72722  0.37774  0.80255  1.0000
  Fe  Fe117     1.0  0.54485  0.14234  0.89829  1.0000
  S   S232      1.0  0.54706  0.15891  0.93464  1.0000
  S   S233      1.0  0.54893  0.18316  0.86585  1.0000
  Fe  Fe118     1.0  0.53925  0.05433  0.91377  1.0000
  S   S234      1.0  0.54113  0.06554  0.95108  1.0000
  Fe  Fe119     1.0  0.53087  0.12318  0.94371  1.0000
  Fe  Fe120     1.0  0.55732  0.09972  0.93949  1.0000
  S   S235      1.0  0.57383  0.10080  0.96059  1.0000
  S   S236      1.0  0.52793  0.11017  0.90684  1.0000
  S   S237      1.0  0.55610  0.08508  0.90262  1.0000
  S   S238      1.0  0.67020  0.44418  0.49605  1.0000
  H   H1324     1.0  0.53480  0.33782  0.58258  1.0000
  H   H1325     1.0  0.68578  0.39404  0.55963  1.0000
  H   H1326     1.0  0.54466  0.38929  0.49436  1.0000
  H   H1327     1.0  0.65562  0.34147  0.59447  1.0000
  S   S239      1.0  0.49669  0.23801  0.57473  1.0000
  S   S240      1.0  0.65093  0.42334  0.71420  1.0000
  H   H1328     1.0  0.63800  0.38399  0.56941  1.0000
  Fe  Fe121     1.0  0.66194  0.42712  0.74491  1.0000
  S   S241      1.0  0.66624  0.37256  0.76903  1.0000
  C   C1652     1.0  0.51558  0.31400  0.51612  1.0000
  C   C1653     1.0  0.50704  0.33220  0.53099  1.0000
  C   C1654     1.0  0.50141  0.30975  0.54933  1.0000
  C   C1655     1.0  0.50398  0.26837  0.55263  1.0000
  C   C1656     1.0  0.51256  0.25020  0.53780  1.0000
  C   C1657     1.0  0.51838  0.27286  0.51978  1.0000
  H   H1329     1.0  0.50471  0.36389  0.52826  1.0000
  H   H1330     1.0  0.49496  0.32432  0.56072  1.0000
  H   H1331     1.0  0.51467  0.21828  0.54023  1.0000
  H   H1332     1.0  0.66275  0.32704  0.52183  1.0000
  C   C1658     1.0  0.70798  0.42576  0.96747  1.0000
  P   P55       1.0  0.72732  0.98385  0.83056  1.0000
  C   C1659     1.0  0.67107  0.36876  0.57928  1.0000
  C   C1660     1.0  0.61456  0.19748  0.82911  1.0000
  H   H1333     1.0  0.51139  0.01100  0.97220  1.0000
  S   S242      1.0  0.51576  0.14902  0.96639  1.0000
  C   C1661     1.0  0.56648  0.45677  0.49302  1.0000
  C   C1662     1.0  0.59009  0.04095  0.94565  1.0000
  C   C1663     1.0  0.58745  0.07223  0.96050  1.0000
  Fe  Fe122     1.0  0.63905  0.47170  0.72987  1.0000
  H   H1334     1.0  0.63784  0.46333  0.60349  1.0000
  C   C1664     1.0  0.53324  0.38287  0.64535  1.0000
  H   H1335     1.0  0.50065  0.45156  0.89880  1.0000
  C   C1665     1.0  0.69046  0.13662  0.90632  1.0000
  C   C1666     1.0  0.69694  0.14069  0.92565  1.0000
  C   C1667     1.0  0.69322  0.12222  0.94694  1.0000
  C   C1668     1.0  0.68299  0.09963  0.94917  1.0000
  C   C1669     1.0  0.67655  0.09532  0.92980  1.0000
  C   C1670     1.0  0.68030  0.11357  0.90847  1.0000
  H   H1336     1.0  0.70475  0.15836  0.92426  1.0000
  H   H1337     1.0  0.69824  0.12585  0.96185  1.0000
  H   H1338     1.0  0.66856  0.07868  0.93142  1.0000
  H   H1339     1.0  0.67521  0.11038  0.89363  1.0000
  C   C1671     1.0  0.70175  0.31457  0.78997  1.0000
  C   C1672     1.0  0.69121  0.30387  0.80165  1.0000
  C   C1673     1.0  0.68046  0.32224  0.79512  1.0000
  C   C1674     1.0  0.68012  0.35182  0.77703  1.0000
  C   C1675     1.0  0.69070  0.36323  0.76568  1.0000
  C   C1676     1.0  0.70144  0.34452  0.77205  1.0000
  H   H1340     1.0  0.69131  0.28063  0.81531  1.0000
  H   H1341     1.0  0.67234  0.31308  0.80395  1.0000
  H   H1342     1.0  0.69056  0.38571  0.75163  1.0000
  H   H1343     1.0  0.70954  0.35286  0.76281  1.0000
  C   C1677     1.0  0.53546  0.31407  0.84805  1.0000
  C   C1678     1.0  0.53189  0.29416  0.86900  1.0000
  C   C1679     1.0  0.53591  0.25431  0.87470  1.0000
  C   C1680     1.0  0.54366  0.23374  0.85957  1.0000
  C   C1681     1.0  0.54727  0.25366  0.83862  1.0000
  C   C1682     1.0  0.54314  0.29339  0.83279  1.0000
  H   H1344     1.0  0.52592  0.30966  0.88093  1.0000
  H   H1345     1.0  0.53298  0.23953  0.89082  1.0000
  H   H1346     1.0  0.55313  0.23802  0.82662  1.0000
  H   H1347     1.0  0.54584  0.30792  0.81647  1.0000
  C   C1683     1.0  0.51624  0.36663  0.71355  1.0000
  C   C1684     1.0  0.51723  0.34026  0.69531  1.0000
  C   C1685     1.0  0.50719  0.32788  0.68476  1.0000
  C   C1686     1.0  0.49595  0.34142  0.69246  1.0000
  C   C1687     1.0  0.49495  0.36722  0.71096  1.0000
  C   C1688     1.0  0.50500  0.37993  0.72136  1.0000
  H   H1348     1.0  0.52584  0.32910  0.68938  1.0000
  H   H1349     1.0  0.50814  0.30717  0.67105  1.0000
  C   C1689     1.0  0.55282  0.40261  0.49833  1.0000
  H   H1350     1.0  0.50406  0.40019  0.73533  1.0000
  C   C1690     1.0  0.48514  0.41803  0.63421  1.0000
  C   C1691     1.0  0.52930  0.41971  0.54127  1.0000
  H   H1351     1.0  0.50173  0.40097  0.64791  1.0000
  H   H1352     1.0  0.70014  0.44059  0.77796  1.0000
  C   C1692     1.0  0.55809  0.33324  0.60181  1.0000
  H   H1353     1.0  0.52525  0.23315  0.73491  1.0000
  H   H1354     1.0  0.49114  0.24863  0.76996  1.0000
  C   C1693     1.0  0.70329  0.09880  0.82791  1.0000
  C   C1694     1.0  0.66095  0.34642  0.57873  1.0000
  C   C1695     1.0  0.61196  0.42840  0.53308  1.0000
  C   C1696     1.0  0.67806  0.37609  0.55923  1.0000
  H   H1355     1.0  0.48632  0.37768  0.71722  1.0000
  C   C1697     1.0  0.56436  0.38915  0.83178  1.0000
  C   C1698     1.0  0.55488  0.27256  0.76408  1.0000
  H   H1356     1.0  0.49963  0.11665  0.80948  1.0000
  H   H1357     1.0  0.48369  0.01350  0.72637  1.0000
  P   P56       1.0  0.51571  0.24848  0.78199  1.0000
  C   C1699     1.0  0.50885  0.29357  0.79385  1.0000
  C   C1700     1.0  0.51396  0.20526  0.80197  1.0000
  C   C1701     1.0  0.52029  0.20208  0.82200  1.0000
  C   C1702     1.0  0.51918  0.16858  0.83733  1.0000
  C   C1703     1.0  0.51173  0.13783  0.83283  1.0000
  C   C1704     1.0  0.50539  0.14060  0.81296  1.0000
  C   C1705     1.0  0.50649  0.17412  0.79755  1.0000
  H   H1358     1.0  0.50446  0.32136  0.76079  1.0000
  C   C1706     1.0  0.62441  0.32151  0.50213  1.0000
  C   C1707     1.0  0.51306  0.99089  0.89489  1.0000
  C   C1708     1.0  0.50286  0.33367  0.82650  1.0000
  C   C1709     1.0  0.50841  0.29913  0.81757  1.0000
  C   C1710     1.0  0.53111  0.25799  0.77584  1.0000
  C   C1711     1.0  0.53991  0.22854  0.78092  1.0000
  C   C1712     1.0  0.56176  0.98767  0.97407  1.0000
  C   C1713     1.0  0.69045  0.39005  0.84212  1.0000
  C   C1714     1.0  0.54615  0.30128  0.75823  1.0000
  C   C1715     1.0  0.53435  0.29435  0.76439  1.0000
  H   H1359     1.0  0.69790  0.12648  0.82801  1.0000
  C   C1716     1.0  0.61284  0.16047  0.96095  1.0000
  C   C1717     1.0  0.66491  0.33815  0.53805  1.0000
  H   H1360     1.0  0.52621  0.22533  0.82568  1.0000
  C   C1718     1.0  0.61639  0.21941  0.87434  1.0000
  H   H1361     1.0  0.51092  0.11180  0.84472  1.0000
  C   C1719     1.0  0.61219  0.44520  0.55447  1.0000
  H   H1362     1.0  0.50156  0.17537  0.78223  1.0000
  C   C1720     1.0  0.61408  0.15581  0.91966  1.0000
  H   H1363     1.0  0.54404  0.37466  0.67460  1.0000
  S   S243      1.0  0.57036  0.47529  0.78473  1.0000
  H   H1364     1.0  0.50293  0.33830  0.84473  1.0000
  H   H1365     1.0  0.51248  0.27758  0.82934  1.0000
  C   C1721     1.0  0.71168  0.09235  0.80998  1.0000
  C   C1722     1.0  0.50376  0.05188  0.94724  1.0000
  H   H1366     1.0  0.70836  0.01358  0.86090  1.0000
  H   H1367     1.0  0.54848  0.32911  0.74889  1.0000
  H   H1368     1.0  0.52773  0.31718  0.75987  1.0000
  H   H1369     1.0  0.51275  0.02203  0.89957  1.0000
  C   C1723     1.0  0.64667  0.04154  0.88398  1.0000
  H   H1370     1.0  0.60180  0.09474  0.90373  1.0000
  H   H1371     1.0  0.57682  0.33206  0.49302  1.0000
  H   H1372     1.0  0.59420  0.03142  0.89175  1.0000
  H   H1373     1.0  0.69949  0.44529  0.84348  1.0000
  S   S244      1.0  0.72837  0.19411  0.88524  1.0000
  H   H1374     1.0  0.61968  0.46232  0.55848  1.0000
  H   H1375     1.0  0.49436  0.08713  0.92186  1.0000
  C   C1724     1.0  0.71430  0.40323  0.92986  1.0000
  S   S245      1.0  0.64509  0.39842  0.50551  1.0000
  Fe  Fe123     1.0  0.66430  0.03282  0.98599  1.0000
  C   C1725     1.0  0.71309  0.04782  0.90670  1.0000
  C   C1726     1.0  0.68722  0.35414  0.85384  1.0000
  H   H1376     1.0  0.69572  0.07584  0.86024  1.0000
  C   C1727     1.0  0.59790  0.25907  0.50196  1.0000
  H   H1377     1.0  0.59397  0.10531  0.98765  1.0000
  C   C1728     1.0  0.71394  0.39752  0.95373  1.0000
  H   H1378     1.0  0.57809  0.03243  0.86472  1.0000
  C   C1729     1.0  0.61760  0.31249  0.60637  1.0000
  C   C1730     1.0  0.61671  0.35416  0.60892  1.0000
  C   C1731     1.0  0.62411  0.37966  0.59560  1.0000
  C   C1732     1.0  0.63240  0.36365  0.57972  1.0000
  C   C1733     1.0  0.63365  0.32174  0.57763  1.0000
  C   C1734     1.0  0.62604  0.29626  0.59076  1.0000
  H   H1379     1.0  0.63500  0.22379  0.54812  1.0000
  C   C1735     1.0  0.64849  0.24986  0.56691  1.0000
  C   C1736     1.0  0.69726  0.37305  0.88695  1.0000
  H   H1380     1.0  0.61902  0.14659  0.90433  1.0000
  H   H1381     1.0  0.51856  0.37619  0.55977  1.0000
  C   C1737     1.0  0.72679  0.02672  0.93561  1.0000
  C   C1738     1.0  0.65759  0.24125  0.58188  1.0000
  C   C1739     1.0  0.66037  0.20135  0.58902  1.0000
  C   C1740     1.0  0.65407  0.16976  0.58137  1.0000
  C   C1741     1.0  0.64496  0.17806  0.56661  1.0000
  C   C1742     1.0  0.64215  0.21793  0.55944  1.0000
  C   C1743     1.0  0.69575  0.46259  0.78886  1.0000
  S   S246      1.0  0.62314  0.00029  0.96181  1.0000
  C   C1744     1.0  0.66319  0.46989  0.63160  1.0000
  C   C1745     1.0  0.60587  0.46701  0.74212  1.0000
  H   H1382     1.0  0.55515  0.38492  0.83658  1.0000
  H   H1383     1.0  0.52418  0.16643  0.85267  1.0000
  H   H1384     1.0  0.61189  0.29272  0.61678  1.0000
  H   H1385     1.0  0.61036  0.36674  0.62136  1.0000
  H   H1386     1.0  0.62355  0.41192  0.59770  1.0000
  S   S247      1.0  0.67849  0.07850  0.97660  1.0000
  H   H1387     1.0  0.62669  0.26391  0.58925  1.0000
  H   H1388     1.0  0.62357  0.33872  0.53703  1.0000
  H   H1389     1.0  0.51571  0.23022  0.69824  1.0000
  C   C1746     1.0  0.60145  0.17725  0.95984  1.0000
  H   H1390     1.0  0.66258  0.26512  0.58810  1.0000
  H   H1391     1.0  0.66743  0.19496  0.60051  1.0000
  H   H1392     1.0  0.65626  0.13887  0.58691  1.0000
  H   H1393     1.0  0.64006  0.15355  0.56071  1.0000
  C   C1747     1.0  0.48644  0.02977  0.93005  1.0000
  H   H1394     1.0  0.58611  0.45411  0.83855  1.0000
  C   C1748     1.0  0.56031  0.38203  0.51341  1.0000
  C   C1749     1.0  0.63916  0.30121  0.52933  1.0000
  C   C1750     1.0  0.52852  0.32032  0.59296  1.0000
  C   C1751     1.0  0.52396  0.40198  0.56117  1.0000
  C   C1752     1.0  0.55175  0.23615  0.77539  1.0000
  H   H1395     1.0  0.67336  0.38107  0.59524  1.0000
  H   H1396     1.0  0.53531  0.26415  0.57966  1.0000
  C   C1753     1.0  0.60236  0.40630  0.52774  1.0000
  C   C1754     1.0  0.59295  0.40016  0.54395  1.0000
  C   C1755     1.0  0.59321  0.41726  0.56544  1.0000
  P   P57       1.0  0.58084  0.37024  0.53680  1.0000
  C   C1756     1.0  0.57109  0.39831  0.51804  1.0000
  C   C1757     1.0  0.58732  0.32644  0.52311  1.0000
  C   C1758     1.0  0.51039  0.23346  0.71402  1.0000
  H   H1397     1.0  0.55847  0.21368  0.77983  1.0000
  C   C1759     1.0  0.70206  0.07019  0.84613  1.0000
  H   H1398     1.0  0.56905  0.98176  0.96185  1.0000
  C   C1760     1.0  0.71909  0.08358  0.90231  1.0000
  C   C1761     1.0  0.49679  0.41513  0.59087  1.0000
  H   H1399     1.0  0.70775  0.42142  0.98600  1.0000
  P   P58       1.0  0.64473  0.30132  0.55772  1.0000
  H   H1400     1.0  0.49436  0.38095  0.77686  1.0000
  H   H1401     1.0  0.72543  0.05342  0.79636  1.0000
  C   C1762     1.0  0.57200  0.35525  0.56228  1.0000
  H   H1402     1.0  0.67861  0.44003  0.78401  1.0000
  C   C1763     1.0  0.60678  0.05960  0.97685  1.0000
  Fe  Fe124     1.0  0.48223  0.25848  0.60093  1.0000
  C   C1764     1.0  0.56536  0.30432  0.59099  1.0000
  C   C1765     1.0  0.57229  0.31519  0.57130  1.0000
  S   S248      1.0  0.48286  0.32650  0.68021  1.0000
  C   C1766     1.0  0.53830  0.39522  0.66502  1.0000
  H   H1403     1.0  0.65370  0.26429  0.51554  1.0000
  C   C1767     1.0  0.70866  0.43715  0.91945  1.0000
  C   C1768     1.0  0.51576  0.23525  0.73490  1.0000
  C   C1769     1.0  0.50316  0.40746  0.61064  1.0000
  C   C1770     1.0  0.49720  0.40861  0.63235  1.0000
  C   C1771     1.0  0.70338  0.00424  0.97160  1.0000
  S   S249      1.0  0.61936  0.46252  0.72520  1.0000
  H   H1404     1.0  0.59967  0.31297  0.54954  1.0000
  H   H1405     1.0  0.49401  0.23744  0.69703  1.0000
  H   H1406     1.0  0.60879  0.25335  0.53097  1.0000
  C   C1772     1.0  0.65776  0.33090  0.55807  1.0000
  C   C1773     1.0  0.52562  0.41712  0.58272  1.0000
  H   H1407     1.0  0.53939  0.16609  0.98544  1.0000
  H   H1408     1.0  0.48054  0.41743  0.65098  1.0000
  H   H1409     1.0  0.52500  0.25844  0.50866  1.0000
  H   H1410     1.0  0.56557  0.27333  0.59780  1.0000
  H   H1411     1.0  0.57771  0.29207  0.56313  1.0000
  C   C1774     1.0  0.72491  0.43417  0.88015  1.0000
  C   C1775     1.0  0.49765  0.36285  0.81191  1.0000
  H   H1412     1.0  0.64461  0.04435  0.92084  1.0000
  C   C1776     1.0  0.57041  0.36282  0.81697  1.0000
  C   C1777     1.0  0.58229  0.36857  0.81025  1.0000
  C   C1778     1.0  0.58795  0.40151  0.81832  1.0000
  P   P59       1.0  0.58999  0.33445  0.79087  1.0000
  C   C1779     1.0  0.58533  0.34420  0.76191  1.0000
  C   C1780     1.0  0.60562  0.34172  0.79070  1.0000
  C   C1781     1.0  0.61277  0.31858  0.80556  1.0000
  C   C1782     1.0  0.62487  0.32494  0.80524  1.0000
  C   C1783     1.0  0.62988  0.35433  0.79011  1.0000
  C   C1784     1.0  0.62278  0.37777  0.77552  1.0000
  C   C1785     1.0  0.61070  0.37167  0.77590  1.0000
  C   C1786     1.0  0.59229  0.33030  0.74311  1.0000
  C   C1787     1.0  0.58865  0.33745  0.72074  1.0000
  C   C1788     1.0  0.57800  0.35830  0.71696  1.0000
  C   C1789     1.0  0.57107  0.37245  0.73551  1.0000
  C   C1790     1.0  0.57481  0.36597  0.75783  1.0000
  C   C1791     1.0  0.58674  0.28298  0.80021  1.0000
  C   C1792     1.0  0.58784  0.25197  0.78464  1.0000
  C   C1793     1.0  0.58424  0.21307  0.79131  1.0000
  C   C1794     1.0  0.57942  0.20491  0.81350  1.0000
  C   C1795     1.0  0.57859  0.23526  0.82926  1.0000
  C   C1796     1.0  0.58245  0.27385  0.82283  1.0000
  H   H1413     1.0  0.63204  0.24958  0.86164  1.0000
  C   C1797     1.0  0.61913  0.14952  0.94089  1.0000
  C   C1798     1.0  0.62481  0.23156  0.85730  1.0000
  H   H1414     1.0  0.56575  0.33832  0.81049  1.0000
  H   H1415     1.0  0.59694  0.40772  0.81282  1.0000
  H   H1416     1.0  0.60900  0.29594  0.81747  1.0000
  H   H1417     1.0  0.63041  0.30738  0.81675  1.0000
  H   H1418     1.0  0.63927  0.35921  0.78970  1.0000
  H   H1419     1.0  0.62661  0.40091  0.76392  1.0000
  H   H1420     1.0  0.60534  0.39054  0.76465  1.0000
  H   H1421     1.0  0.60066  0.31464  0.74569  1.0000
  H   H1422     1.0  0.59420  0.32748  0.70633  1.0000
  H   H1423     1.0  0.57524  0.36440  0.69964  1.0000
  H   H1424     1.0  0.56297  0.38976  0.73262  1.0000
  H   H1425     1.0  0.56967  0.37924  0.77172  1.0000
  H   H1426     1.0  0.59129  0.25781  0.76725  1.0000
  H   H1427     1.0  0.58494  0.18946  0.77910  1.0000
  H   H1428     1.0  0.57621  0.17522  0.81844  1.0000
  H   H1429     1.0  0.57459  0.22932  0.84631  1.0000
  H   H1430     1.0  0.58172  0.29674  0.83541  1.0000
  H   H1431     1.0  0.61634  0.33805  0.49814  1.0000
  H   H1432     1.0  0.50084  0.99905  0.74972  1.0000
  C   C1799     1.0  0.52535  0.40889  0.63368  1.0000
  C   C1800     1.0  0.50386  0.32375  0.77924  1.0000
  H   H1433     1.0  0.53771  0.19963  0.78905  1.0000
  H   H1434     1.0  0.68828  0.31739  0.88510  1.0000
  Fe  Fe125     1.0  0.66144  0.47413  0.69761  1.0000
  H   H1435     1.0  0.68219  0.33262  0.84547  1.0000
  H   H1436     1.0  0.69995  0.36514  0.90407  1.0000
  C   C1801     1.0  0.67573  0.99615  0.91025  1.0000
  H   H1437     1.0  0.68038  0.47121  0.61435  1.0000
  C   C1802     1.0  0.48354  0.98811  0.73872  1.0000
  C   C1803     1.0  0.60103  0.01942  0.94630  1.0000
  C   C1804     1.0  0.49660  0.24382  0.75449  1.0000
  C   C1805     1.0  0.59651  0.30415  0.53343  1.0000
  H   H1438     1.0  0.55782  0.35291  0.52098  1.0000
  C   C1806     1.0  0.59531  0.45802  0.73230  1.0000
  H   H1439     1.0  0.58614  0.41320  0.57832  1.0000
  H   H1440     1.0  0.49452  0.98995  0.88917  1.0000
  H   H1441     1.0  0.49357  0.38995  0.81884  1.0000
  C   C1807     1.0  0.57681  0.09730  0.86121  1.0000
  C   C1808     1.0  0.58161  0.06047  0.86957  1.0000
  C   C1809     1.0  0.59064  0.05991  0.88482  1.0000
  C   C1810     1.0  0.59490  0.09613  0.89170  1.0000
  C   C1811     1.0  0.59007  0.13333  0.88351  1.0000
  C   C1812     1.0  0.58096  0.13354  0.86824  1.0000
  P   P60       1.0  0.59611  0.18034  0.89090  1.0000
  C   C1813     1.0  0.60266  0.17300  0.91836  1.0000
  C   C1814     1.0  0.60709  0.19556  0.86894  1.0000
  C   C1815     1.0  0.53815  0.46811  0.56404  1.0000
  C   C1816     1.0  0.69703  0.41769  0.85286  1.0000
  C   C1817     1.0  0.72387  0.44617  0.78718  1.0000
  C   C1818     1.0  0.64426  0.02553  0.90624  1.0000
  C   C1819     1.0  0.60618  0.18502  0.84613  1.0000
  C   C1820     1.0  0.53550  0.43343  0.67317  1.0000
  C   C1821     1.0  0.64610  0.01708  0.86529  1.0000
  C   C1822     1.0  0.50439  0.01571  0.96046  1.0000
  H   H1442     1.0  0.47971  0.42859  0.57760  1.0000
  C   C1823     1.0  0.59632  0.18318  0.93867  1.0000
  C   C1824     1.0  0.58465  0.21948  0.89261  1.0000
  C   C1825     1.0  0.58698  0.25952  0.88524  1.0000
  C   C1826     1.0  0.57795  0.28930  0.88560  1.0000
  C   C1827     1.0  0.56658  0.27942  0.89345  1.0000
  C   C1828     1.0  0.56428  0.24000  0.90141  1.0000
  C   C1829     1.0  0.57326  0.21010  0.90104  1.0000
  H   H1443     1.0  0.56952  0.09783  0.85000  1.0000
  S   S250      1.0  0.53901  0.47063  0.81306  1.0000
  C   C1830     1.0  0.48709  0.99336  0.94314  1.0000
  C   C1831     1.0  0.66707  0.46626  0.58966  1.0000
  H   H1444     1.0  0.57689  0.16162  0.86203  1.0000
  S   S251      1.0  0.66890  0.47407  0.65958  1.0000
  C   C1832     1.0  0.54121  0.98207  0.98598  1.0000
  C   C1833     1.0  0.65505  0.46375  0.58623  1.0000
  S   S252      1.0  0.53691  0.98975  0.90316  1.0000
  H   H1445     1.0  0.59902  0.16728  0.84139  1.0000
  C   C1834     1.0  0.49609  0.98605  0.95845  1.0000
  C   C1835     1.0  0.53276  0.45045  0.58400  1.0000
  S   S253      1.0  0.67358  0.47436  0.72761  1.0000
  H   H1446     1.0  0.61382  0.18921  0.81155  1.0000
  H   H1447     1.0  0.58735  0.19499  0.93838  1.0000
  H   H1448     1.0  0.59569  0.26787  0.87895  1.0000
  H   H1449     1.0  0.57972  0.32002  0.87960  1.0000
  H   H1450     1.0  0.55950  0.30220  0.89329  1.0000
  H   H1451     1.0  0.55544  0.23238  0.90738  1.0000
  H   H1452     1.0  0.57124  0.17958  0.90706  1.0000
  C   C1836     1.0  0.51981  0.33912  0.60716  1.0000
  H   H1453     1.0  0.58370  0.03339  0.93370  1.0000
  C   C1837     1.0  0.52897  0.27837  0.59146  1.0000
  C   C1838     1.0  0.52093  0.25483  0.60450  1.0000
  C   C1839     1.0  0.51249  0.27316  0.61919  1.0000
  C   C1840     1.0  0.51192  0.31510  0.62052  1.0000
  H   H1454     1.0  0.72565  0.35453  0.81598  1.0000
  H   H1455     1.0  0.53525  0.35272  0.63975  1.0000
  C   C1841     1.0  0.70926  0.03518  0.84649  1.0000
  H   H1456     1.0  0.50096  0.41297  0.57392  1.0000
  H   H1457     1.0  0.52093  0.22250  0.60265  1.0000
  H   H1458     1.0  0.50609  0.25492  0.62888  1.0000
  H   H1459     1.0  0.50513  0.32862  0.63164  1.0000
  C   C1842     1.0  0.49478  0.05900  0.93208  1.0000
  C   C1843     1.0  0.62854  0.32170  0.52424  1.0000
  H   H1460     1.0  0.70524  0.04362  0.89767  1.0000
  C   C1844     1.0  0.48472  0.42436  0.59283  1.0000
  H   H1461     1.0  0.64492  0.46812  0.64278  1.0000
  C   C1845     1.0  0.71779  0.02855  0.82866  1.0000
  Fe  Fe126     1.0  0.71935  0.25365  0.82941  1.0000
  C   C1846     1.0  0.72189  0.41599  0.80445  1.0000
  S   S254      1.0  0.52243  0.34416  0.49341  1.0000
  C   C1847     1.0  0.71892  0.05733  0.81029  1.0000
  S   S255      1.0  0.64933  0.47196  0.76162  1.0000
  C   C1848     1.0  0.56443  0.38391  0.57296  1.0000
  S   S256      1.0  0.48089  0.32178  0.61235  1.0000
  C   C1849     1.0  0.70226  0.45950  0.95727  1.0000
  H   H1462     1.0  0.64793  0.02956  0.84802  1.0000
  H   H1463     1.0  0.60227  0.39410  0.51089  1.0000
  C   C1850     1.0  0.70049  0.40944  0.87540  1.0000
  C   C1851     1.0  0.60278  0.43985  0.57059  1.0000
  C   C1852     1.0  0.50891  0.24112  0.75528  1.0000
  P   P61       1.0  0.51867  0.39348  0.60834  1.0000
  H   H1464     1.0  0.54049  0.46664  0.52722  1.0000
  H   H1465     1.0  0.68038  0.36633  0.52301  1.0000
  C   C1853     1.0  0.49127  0.24226  0.73356  1.0000
  H   H1466     1.0  0.60296  0.45307  0.58716  1.0000
  C   C1854     1.0  0.64544  0.28005  0.51209  1.0000
  H   H1467     1.0  0.51492  0.45645  0.86519  1.0000
  C   C1855     1.0  0.62392  0.22044  0.83472  1.0000
  C   C1856     1.0  0.57006  0.42176  0.83977  1.0000
  H   H1468     1.0  0.52789  0.40772  0.52473  1.0000
  H   H1469     1.0  0.63049  0.22966  0.82155  1.0000
  C   C1857     1.0  0.60946  0.02853  0.96191  1.0000
  H   H1470     1.0  0.55274  0.32466  0.61706  1.0000
  H   H1471     1.0  0.72157  0.38819  0.85640  1.0000
  P   P62       1.0  0.70961  0.44437  0.88853  1.0000
  H   H1472     1.0  0.68572  0.00721  0.93917  1.0000
  H   H1473     1.0  0.55185  0.39529  0.60103  1.0000
  C   C1858     1.0  0.58888  0.28141  0.49145  1.0000
  S   S257      1.0  0.64933  0.45976  0.55825  1.0000
  H   H1474     1.0  0.71277  0.11509  0.79612  1.0000
  H   H1475     1.0  0.51025  0.07445  0.94874  1.0000
  Fe  Fe127     1.0  0.65358  0.45202  0.51917  1.0000
  H   H1476     1.0  0.71892  0.38091  0.91945  1.0000
  C   C1859     1.0  0.55759  0.37298  0.59276  1.0000
  C   C1860     1.0  0.67500  0.36065  0.53865  1.0000
  C   C1861     1.0  0.72814  0.40467  0.86434  1.0000
  H   H1477     1.0  0.71599  0.10602  0.88967  1.0000
  C   C1862     1.0  0.69061  0.34568  0.87622  1.0000
  C   C1863     1.0  0.49812  0.35781  0.78828  1.0000
  H   H1478     1.0  0.58235  0.44920  0.51102  1.0000
  C   C1864     1.0  0.71704  0.01874  0.92307  1.0000
  C   C1865     1.0  0.58440  0.46054  0.74495  1.0000
  H   H1479     1.0  0.61713  0.22876  0.89170  1.0000
  H   H1480     1.0  0.70398  0.03375  0.96290  1.0000
  C   C1866     1.0  0.58185  0.42789  0.83309  1.0000
  H   H1481     1.0  0.61923  0.43284  0.52055  1.0000
  C   C1867     1.0  0.52270  0.44748  0.64183  1.0000
  C   C1868     1.0  0.64133  0.28026  0.48998  1.0000
  H   H1482     1.0  0.53911  0.44232  0.68890  1.0000
  Fe  Fe128     1.0  0.55111  0.45844  0.78184  1.0000
  C   C1869     1.0  0.57408  0.43603  0.50791  1.0000
  H   H1483     1.0  0.56387  0.41477  0.56601  1.0000
  H   H1484     1.0  0.64898  0.07287  0.88128  1.0000
  C   C1870     1.0  0.59587  0.08120  0.97611  1.0000
  C   C1871     1.0  0.58362  0.31501  0.50190  1.0000
  C   C1872     1.0  0.68352  0.46209  0.79221  1.0000
  H   H1485     1.0  0.71632  0.42218  0.81950  1.0000
  H   H1486     1.0  0.56524  0.44303  0.85053  1.0000
  C   C1873     1.0  0.67107  0.46930  0.61208  1.0000
  Fe  Fe129     1.0  0.72908  0.26126  0.87689  1.0000
  C   C1874     1.0  0.58388  0.47161  0.76778  1.0000
  C   C1875     1.0  0.70257  0.46523  0.93334  1.0000
  H   H1487     1.0  0.59643  0.18455  0.97545  1.0000
  C   C1876     1.0  0.60535  0.47832  0.76493  1.0000
  H   H1488     1.0  0.60297  0.99537  0.93469  1.0000
  H   H1489     1.0  0.57637  0.45453  0.73694  1.0000
  H   H1490     1.0  0.59556  0.44934  0.71468  1.0000
  C   C1877     1.0  0.52773  0.45959  0.66156  1.0000
  H   H1491     1.0  0.48181  0.24597  0.73285  1.0000
  H   H1492     1.0  0.48067  0.06144  0.97836  1.0000
  C   C1878     1.0  0.72888  0.09104  0.91465  1.0000
  C   C1879     1.0  0.53640  0.45279  0.54269  1.0000
  C   C1880     1.0  0.68587  0.99346  0.92270  1.0000
  Fe  Fe130     1.0  0.63990  0.99794  0.98254  1.0000
  C   C1881     1.0  0.65116  0.46749  0.62814  1.0000
  C   C1882     1.0  0.64716  0.46464  0.60571  1.0000
  H   H1493     1.0  0.66793  0.01161  0.91720  1.0000
  S   S258      1.0  0.48025  0.23096  0.63734  1.0000
  C   C1883     1.0  0.64139  0.98504  0.90986  1.0000
  S   S259      1.0  0.65735  0.98910  0.96242  1.0000
  H   H1494     1.0  0.51659  0.46796  0.63314  1.0000
  H   H1495     1.0  0.53424  0.46296  0.60028  1.0000
  C   C1884     1.0  0.50050  0.47824  0.88733  1.0000
  H   H1496     1.0  0.61670  0.15495  0.97743  1.0000
  H   H1497     1.0  0.66779  0.98120  0.87941  1.0000
  H   H1498     1.0  0.47953  0.03512  0.91813  1.0000
  C   C1885     1.0  0.49332  0.97998  0.75193  1.0000
  H   H1499     1.0  0.49991  0.28428  0.48883  1.0000
  H   H1500     1.0  0.63939  0.53775  0.41870  1.0000
  S   S260      1.0  0.71451  0.76796  0.38403  1.0000
  S   S261      1.0  0.71101  0.80941  0.31925  1.0000
  Fe  Fe131     1.0  0.71584  0.69969  0.38725  1.0000
  S   S262      1.0  0.70765  0.65984  0.41704  1.0000
  H   H1501     1.0  0.65069  0.58839  0.43626  1.0000
  C   C1886     1.0  0.71321  0.89023  0.18871  1.0000
  C   C1887     1.0  0.72498  0.50463  0.99339  1.0000
  C   C1888     1.0  0.67452  0.69286  0.43020  1.0000
  C   C1889     1.0  0.50384  0.49206  0.36450  1.0000
  S   S263      1.0  0.64387  0.94676  0.00843  1.0000
  Fe  Fe132     1.0  0.65629  0.93549  0.26140  1.0000
  Fe  Fe133     1.0  0.66180  0.94149  0.98945  1.0000
  S   S264      1.0  0.66145  0.87874  0.28350  1.0000
  C   C1890     1.0  0.60158  0.96251  0.27327  1.0000
  H   H1502     1.0  0.48950  0.71560  0.26744  1.0000
  H   H1503     1.0  0.69855  0.90029  0.00329  1.0000
  S   S265      1.0  0.64100  0.93635  0.23809  1.0000
  H   H1504     1.0  0.62441  0.66942  0.46661  1.0000
  S   S266      1.0  0.51344  0.90290  0.32850  1.0000
  H   H1505     1.0  0.68657  0.78416  0.32869  1.0000
  C   C1891     1.0  0.53985  0.70213  0.33077  1.0000
  S   S267      1.0  0.66856  0.52769  0.44099  1.0000
  H   H1506     1.0  0.48054  0.50613  0.38889  1.0000
  C   C1892     1.0  0.50706  0.49512  0.24879  1.0000
  C   C1893     1.0  0.49398  0.51858  0.27982  1.0000
  C   C1894     1.0  0.65545  0.94160  0.12726  1.0000
  S   S268      1.0  0.49925  0.56985  0.37958  1.0000
  H   H1507     1.0  0.71597  0.97034  0.28794  1.0000
  C   C1895     1.0  0.72275  0.89440  0.37227  1.0000
  S   S269      1.0  0.48820  0.62402  0.32062  1.0000
  S   S270      1.0  0.56625  0.95340  0.28773  1.0000
  C   C1896     1.0  0.69750  0.96142  0.23099  1.0000
  H   H1508     1.0  0.49175  0.53939  0.29326  1.0000
  C   C1897     1.0  0.50579  0.52031  0.38074  1.0000
  C   C1898     1.0  0.51360  0.50974  0.39809  1.0000
  S   S271      1.0  0.71787  0.69291  0.34881  1.0000
  C   C1899     1.0  0.54585  0.56697  0.23448  1.0000
  H   H1509     1.0  0.51522  0.53144  0.41066  1.0000
  H   H1510     1.0  0.51285  0.58196  0.22205  1.0000
  C   C1900     1.0  0.50564  0.85825  0.32399  1.0000
  C   C1901     1.0  0.50201  0.84888  0.30245  1.0000
  C   C1902     1.0  0.49582  0.81333  0.29986  1.0000
  C   C1903     1.0  0.49310  0.78654  0.31875  1.0000
  C   C1904     1.0  0.49672  0.79589  0.34033  1.0000
  C   C1905     1.0  0.50291  0.83146  0.34289  1.0000
  H   H1511     1.0  0.50380  0.86938  0.28783  1.0000
  H   H1512     1.0  0.72499  0.79569  0.18044  1.0000
  H   H1513     1.0  0.49474  0.77581  0.35507  1.0000
  H   H1514     1.0  0.50557  0.83839  0.35970  1.0000
  H   H1515     1.0  0.65694  0.93259  0.09061  1.0000
  H   H1516     1.0  0.62898  0.92730  0.19084  1.0000
  C   C1906     1.0  0.66896  0.66237  0.46758  1.0000
  H   H1517     1.0  0.51514  0.49693  0.23824  1.0000
  Fe  Fe134     1.0  0.47930  0.68189  0.33224  1.0000
  H   H1518     1.0  0.69736  0.90746  0.10721  1.0000
  C   C1907     1.0  0.71376  0.84865  0.18511  1.0000
  H   H1519     1.0  0.72295  0.57748  0.42543  1.0000
  H   H1520     1.0  0.54690  0.97670  0.05347  1.0000
  H   H1521     1.0  0.55203  0.75578  0.26022  1.0000
  H   H1522     1.0  0.49309  0.80666  0.28307  1.0000
  C   C1908     1.0  0.50427  0.52302  0.26575  1.0000
  C   C1909     1.0  0.69731  0.62088  0.42245  1.0000
  C   C1910     1.0  0.68930  0.61121  0.40643  1.0000
  C   C1911     1.0  0.68069  0.58236  0.41238  1.0000
  C   C1912     1.0  0.68003  0.56236  0.43425  1.0000
  C   C1913     1.0  0.68833  0.57096  0.44996  1.0000
  C   C1914     1.0  0.69682  0.60023  0.44414  1.0000
  H   H1523     1.0  0.68949  0.62682  0.38972  1.0000
  H   H1524     1.0  0.67437  0.57590  0.40002  1.0000
  H   H1525     1.0  0.68809  0.55559  0.46672  1.0000
  H   H1526     1.0  0.70296  0.60738  0.45669  1.0000
  C   C1915     1.0  0.69704  0.82896  0.31031  1.0000
  C   C1916     1.0  0.69664  0.86350  0.29525  1.0000
  C   C1917     1.0  0.68587  0.87946  0.28713  1.0000
  C   C1918     1.0  0.67531  0.86084  0.29374  1.0000
  C   C1919     1.0  0.67571  0.82645  0.30888  1.0000
  C   C1920     1.0  0.68646  0.81074  0.31721  1.0000
  H   H1527     1.0  0.70473  0.87804  0.28982  1.0000
  H   H1528     1.0  0.68572  0.90608  0.27572  1.0000
  H   H1529     1.0  0.66763  0.81173  0.31416  1.0000
  C   C1921     1.0  0.53062  0.58170  0.20770  1.0000
  C   C1922     1.0  0.70028  0.92926  0.99461  1.0000
  P   P63       1.0  0.51405  0.56273  0.27091  1.0000
  C   C1923     1.0  0.52034  0.54783  0.29793  1.0000
  C   C1924     1.0  0.52531  0.56723  0.24808  1.0000
  H   H1530     1.0  0.71037  0.94361  0.37765  1.0000
  H   H1531     1.0  0.72849  0.60430  0.46196  1.0000
  S   S272      1.0  0.65411  0.95132  0.17431  1.0000
  H   H1532     1.0  0.53037  0.85267  0.00090  1.0000
  C   C1925     1.0  0.49393  0.95680  0.00525  1.0000
  C   C1926     1.0  0.51893  0.57196  0.31703  1.0000
  C   C1927     1.0  0.52371  0.55894  0.33781  1.0000
  H   H1533     1.0  0.62054  0.51501  0.43746  1.0000
  H   H1534     1.0  0.68610  0.68543  0.45802  1.0000
  Fe  Fe135     1.0  0.66093  0.48392  0.46948  1.0000
  C   C1928     1.0  0.50621  0.61115  0.27009  1.0000
  C   C1929     1.0  0.48908  0.65283  0.25995  1.0000
  H   H1535     1.0  0.61520  0.93620  0.22490  1.0000
  C   C1930     1.0  0.58019  0.97378  0.27912  1.0000
  C   C1931     1.0  0.50549  0.68316  0.27616  1.0000
  C   C1932     1.0  0.51154  0.64567  0.27710  1.0000
  H   H1536     1.0  0.54918  0.58005  0.19825  1.0000
  C   C1933     1.0  0.72803  0.93207  0.32921  1.0000
  C   C1934     1.0  0.69858  0.96460  0.00654  1.0000
  Fe  Fe136     1.0  0.48523  0.59912  0.35690  1.0000
  C   C1935     1.0  0.68596  0.95531  0.11998  1.0000
  C   C1936     1.0  0.63813  0.59661  0.46502  1.0000
  H   H1537     1.0  0.51390  0.60015  0.31633  1.0000
  H   H1538     1.0  0.52233  0.57695  0.35274  1.0000
  C   C1937     1.0  0.62115  0.55428  0.46559  1.0000
  C   C1938     1.0  0.62733  0.68392  0.48140  1.0000
  H   H1539     1.0  0.56378  0.93584  0.21925  1.0000
  H   H1540     1.0  0.52806  0.58961  0.19041  1.0000
  C   C1939     1.0  0.67998  0.93144  0.33367  1.0000
  C   C1940     1.0  0.69416  0.93197  0.16334  1.0000
  H   H1541     1.0  0.50926  0.70946  0.28268  1.0000
  H   H1542     1.0  0.52025  0.64354  0.28367  1.0000
  C   C1941     1.0  0.48233  0.96137  0.01442  1.0000
  H   H1543     1.0  0.66515  0.94494  0.31304  1.0000
  C   C1942     1.0  0.72463  0.82783  0.18306  1.0000
  C   C1943     1.0  0.67366  0.95451  0.31763  1.0000
  H   H1544     1.0  0.67131  0.65374  0.48487  1.0000
  S   S273      1.0  0.53338  0.94728  0.27412  1.0000
  C   C1944     1.0  0.52621  0.50994  0.30027  1.0000
  C   C1945     1.0  0.52116  0.73493  0.32232  1.0000
  C   C1946     1.0  0.53429  0.82006  0.34408  1.0000
  C   C1947     1.0  0.71697  0.93072  0.36584  1.0000
  C   C1948     1.0  0.53729  0.56258  0.25245  1.0000
  C   C1949     1.0  0.67733  0.68094  0.45256  1.0000
  C   C1950     1.0  0.72711  0.58458  0.34228  1.0000
  C   C1951     1.0  0.65487  0.66846  0.43794  1.0000
  H   H1545     1.0  0.62568  0.96674  0.15464  1.0000
  C   C1952     1.0  0.49505  0.61530  0.26095  1.0000
  C   C1953     1.0  0.53487  0.85285  0.35806  1.0000
  C   C1954     1.0  0.48388  0.51540  0.20105  1.0000
  C   C1955     1.0  0.55017  0.88093  0.33241  1.0000
  H   H1546     1.0  0.68191  0.97854  0.17586  1.0000
  C   C1956     1.0  0.61368  0.95304  0.20889  1.0000
  C   C1957     1.0  0.57612  0.74938  0.30473  1.0000
  C   C1958     1.0  0.54166  0.81754  0.32412  1.0000
  H   H1547     1.0  0.52783  0.79759  0.34860  1.0000
  P   P64       1.0  0.54078  0.77628  0.30536  1.0000
  C   C1959     1.0  0.69113  0.94293  0.33909  1.0000
  H   H1548     1.0  0.71991  0.51088  0.00907  1.0000
  H   H1549     1.0  0.54011  0.55606  0.26968  1.0000
  C   C1960     1.0  0.69423  0.92338  0.12221  1.0000
  C   C1961     1.0  0.71815  0.57847  0.35926  1.0000
  H   H1550     1.0  0.53299  0.51094  0.35623  1.0000
  H   H1551     1.0  0.50146  0.53580  0.19381  1.0000
  C   C1962     1.0  0.52204  0.57726  0.22562  1.0000
  C   C1963     1.0  0.72219  0.50606  0.35920  1.0000
  C   C1964     1.0  0.49530  0.51264  0.19114  1.0000
  H   H1552     1.0  0.65917  0.91199  0.13176  1.0000
  H   H1553     1.0  0.51610  0.75983  0.31469  1.0000
  H   H1554     1.0  0.69565  0.96303  0.02451  1.0000
  C   C1965     1.0  0.52130  0.77470  0.24860  1.0000
  H   H1555     1.0  0.64616  0.66441  0.43211  1.0000
  S   S274      1.0  0.66802  0.96645  0.23445  1.0000
  C   C1966     1.0  0.62754  0.58321  0.47570  1.0000
  C   C1967     1.0  0.56522  0.96789  0.21696  1.0000
  Fe  Fe137     1.0  0.65241  0.97177  0.21190  1.0000
  H   H1556     1.0  0.49075  0.58968  0.25490  1.0000
  H   H1557     1.0  0.71311  0.60412  0.36595  1.0000
  C   C1968     1.0  0.52969  0.52156  0.33985  1.0000
  H   H1558     1.0  0.48020  0.88447  0.00145  1.0000
  P   P65       1.0  0.69911  0.91672  0.19147  1.0000
  C   C1969     1.0  0.68864  0.88391  0.20649  1.0000
  C   C1970     1.0  0.69203  0.85892  0.22530  1.0000
  C   C1971     1.0  0.68378  0.83518  0.23773  1.0000
  C   C1972     1.0  0.67208  0.83657  0.23168  1.0000
  C   C1973     1.0  0.66868  0.86093  0.21283  1.0000
  C   C1974     1.0  0.67693  0.88424  0.20017  1.0000
  H   H1559     1.0  0.67639  0.90378  0.34127  1.0000
  H   H1560     1.0  0.48120  0.54057  0.21151  1.0000
  C   C1975     1.0  0.53236  0.79209  0.28094  1.0000
  C   C1976     1.0  0.62533  0.53831  0.44489  1.0000
  H   H1561     1.0  0.72901  0.61482  0.33561  1.0000
  H   H1562     1.0  0.51330  0.82480  0.22948  1.0000
  H   H1563     1.0  0.60921  0.94218  0.27360  1.0000
  C   C1977     1.0  0.65424  0.95328  0.10379  1.0000
  H   H1564     1.0  0.70578  0.83230  0.18388  1.0000
  H   H1565     1.0  0.70095  0.85852  0.23079  1.0000
  H   H1566     1.0  0.68635  0.81675  0.25260  1.0000
  H   H1567     1.0  0.66560  0.81955  0.24197  1.0000
  H   H1568     1.0  0.65957  0.86260  0.20829  1.0000
  H   H1569     1.0  0.67404  0.90313  0.18583  1.0000
  C   C1978     1.0  0.48632  0.48787  0.27635  1.0000
  C   C1979     1.0  0.65779  0.65461  0.46010  1.0000
  Fe  Fe138     1.0  0.71783  0.76172  0.34594  1.0000
  H   H1570     1.0  0.68114  0.70630  0.41845  1.0000
  P   P66       1.0  0.64688  0.63082  0.47937  1.0000
  C   C1980     1.0  0.62143  0.94805  0.18978  1.0000
  H   H1571     1.0  0.55509  0.56332  0.23795  1.0000
  H   H1572     1.0  0.58294  0.74824  0.31700  1.0000
  C   C1981     1.0  0.54963  0.84822  0.31841  1.0000
  C   C1982     1.0  0.61957  0.97046  0.16935  1.0000
  C   C1983     1.0  0.53348  0.73437  0.32026  1.0000
  H   H1573     1.0  0.55613  0.90492  0.32755  1.0000
  H   H1574     1.0  0.66109  0.69650  0.40564  1.0000
  C   C1984     1.0  0.69833  0.91169  0.14380  1.0000
  H   H1575     1.0  0.58802  0.73424  0.27627  1.0000
  H   H1576     1.0  0.51699  0.64828  0.35481  1.0000
  C   C1985     1.0  0.65207  0.96788  0.14490  1.0000
  H   H1577     1.0  0.70465  0.88672  0.14514  1.0000
  H   H1578     1.0  0.54935  0.70107  0.32975  1.0000
  H   H1579     1.0  0.70866  0.53559  0.38081  1.0000
  C   C1986     1.0  0.64230  0.58012  0.44433  1.0000
  H   H1580     1.0  0.58934  0.91623  0.28399  1.0000
  C   C1987     1.0  0.59027  0.94788  0.27917  1.0000
  C   C1988     1.0  0.70050  0.96157  0.20735  1.0000
  H   H1581     1.0  0.61317  0.54300  0.47416  1.0000
  H   H1582     1.0  0.53062  0.96265  0.08218  1.0000
  H   H1583     1.0  0.72609  0.50146  0.05312  1.0000
  S   S275      1.0  0.48553  0.74153  0.31407  1.0000
  H   H1584     1.0  0.53005  0.73120  0.27081  1.0000
  C   C1989     1.0  0.63591  0.55116  0.43430  1.0000
  C   C1990     1.0  0.66326  0.68699  0.42296  1.0000
  C   C1991     1.0  0.57898  0.74152  0.28179  1.0000
  C   C1992     1.0  0.52966  0.83309  0.27591  1.0000
  H   H1585     1.0  0.52076  0.87642  0.25364  1.0000
  C   C1993     1.0  0.71568  0.53938  0.36773  1.0000
  H   H1586     1.0  0.52880  0.85557  0.37288  1.0000
  H   H1587     1.0  0.53246  0.85624  0.28661  1.0000
  C   C1994     1.0  0.55563  0.76152  0.29598  1.0000
  H   H1588     1.0  0.58161  0.95973  0.19774  1.0000
  H   H1589     1.0  0.57248  0.73803  0.24806  1.0000
  H   H1590     1.0  0.61232  0.72537  0.48286  1.0000
  C   C1995     1.0  0.49428  0.68672  0.26759  1.0000
  Fe  Fe139     1.0  0.52243  0.95466  0.30701  1.0000
  C   C1996     1.0  0.52814  0.76298  0.26711  1.0000
  C   C1997     1.0  0.54252  0.57644  0.21212  1.0000
  C   C1998     1.0  0.71929  0.94925  0.34395  1.0000
  C   C1999     1.0  0.51587  0.89165  0.99045  1.0000
  C   C2000     1.0  0.54276  0.88336  0.35218  1.0000
  H   H1591     1.0  0.54286  0.90946  0.36256  1.0000
  H   H1592     1.0  0.50574  0.70472  0.33619  1.0000
  C   C2001     1.0  0.57022  0.74361  0.26591  1.0000
  H   H1593     1.0  0.51789  0.75212  0.23822  1.0000
  H   H1594     1.0  0.72649  0.96515  0.40894  1.0000
  C   C2002     1.0  0.55859  0.75362  0.27293  1.0000
  H   H1595     1.0  0.55524  0.84751  0.30283  1.0000
  C   C2003     1.0  0.53393  0.67093  0.34299  1.0000
  C   C2004     1.0  0.51870  0.81559  0.24365  1.0000
  C   C2005     1.0  0.52294  0.84473  0.25722  1.0000
  C   C2006     1.0  0.56451  0.75939  0.31181  1.0000
  H   H1596     1.0  0.53885  0.64625  0.35125  1.0000
  H   H1597     1.0  0.69590  0.92360  0.35099  1.0000
  H   H1598     1.0  0.56246  0.76594  0.32961  1.0000
  C   C2007     1.0  0.52164  0.67189  0.34496  1.0000
  H   H1599     1.0  0.66808  0.57889  0.47979  1.0000
  C   C2008     1.0  0.51527  0.70379  0.33453  1.0000
  H   H1600     1.0  0.51059  0.88519  0.00610  1.0000
  C   C2009     1.0  0.53087  0.49693  0.32114  1.0000
  C   C2010     1.0  0.69597  0.97819  0.32876  1.0000
  H   H1601     1.0  0.70847  0.49198  0.07900  1.0000
  H   H1602     1.0  0.56213  0.97410  0.33653  1.0000
  H   H1603     1.0  0.49799  0.49988  0.35089  1.0000
  H   H1604     1.0  0.52705  0.49017  0.28604  1.0000
  H   H1605     1.0  0.55551  0.97602  0.37769  1.0000
  H   H1606     1.0  0.48024  0.65536  0.25391  1.0000
  C   C2011     1.0  0.68568  0.96354  0.16096  1.0000
  C   C2012     1.0  0.68175  0.97547  0.13934  1.0000
  H   H1607     1.0  0.69466  0.93428  0.24032  1.0000
  C   C2013     1.0  0.72369  0.91073  0.18992  1.0000
  H   H1608     1.0  0.72071  0.87942  0.38887  1.0000
  C   C2014     1.0  0.50317  0.96973  0.01777  1.0000
  H   H1609     1.0  0.68261  0.96402  0.10336  1.0000
  H   H1610     1.0  0.72353  0.94279  0.19248  1.0000
  H   H1611     1.0  0.51215  0.96842  0.01073  1.0000
  H   H1612     1.0  0.64143  0.85616  0.98899  1.0000
  H   H1613     1.0  0.56895  0.48541  0.48479  1.0000
  C   C2015     1.0  0.48008  0.97739  0.03601  1.0000
  C   C2016     1.0  0.49868  0.48042  0.17744  1.0000
  Fe  Fe140     1.0  0.71274  0.69890  0.83589  1.0000
  S   S276      1.0  0.70800  0.68709  0.87345  1.0000
  S   S277      1.0  0.70771  0.66006  0.80640  1.0000
  Fe  Fe141     1.0  0.70825  0.75507  0.87704  1.0000
  S   S278      1.0  0.69453  0.80321  0.89009  1.0000
  S   S279      1.0  0.71165  0.76648  0.83875  1.0000
  S   S280      1.0  0.51125  0.54349  0.79024  1.0000
  Fe  Fe142     1.0  0.48969  0.76218  0.84602  1.0000
  S   S281      1.0  0.48938  0.82460  0.82854  1.0000
  S   S282      1.0  0.50451  0.71415  0.83868  1.0000
  H   H1614     1.0  0.70633  0.60470  0.77040  1.0000
  Fe  Fe143     1.0  0.48499  0.84947  0.86326  1.0000
  S   S283      1.0  0.48945  0.91050  0.87683  1.0000
  C   C2017     1.0  0.63792  0.89096  0.92504  1.0000
  H   H1615     1.0  0.53455  0.91082  0.93365  1.0000
  H   H1616     1.0  0.65362  0.85306  0.91858  1.0000
  C   C2018     1.0  0.71099  0.85322  0.77891  1.0000
  H   H1617     1.0  0.62441  0.59417  0.49215  1.0000
  H   H1618     1.0  0.48272  0.71338  0.78172  1.0000
  H   H1619     1.0  0.48605  0.50673  0.90598  1.0000
  H   H1620     1.0  0.72579  0.79663  0.52648  1.0000
  C   C2019     1.0  0.49479  0.80385  0.76793  1.0000
  C   C2020     1.0  0.69981  0.90823  0.83043  1.0000
  C   C2021     1.0  0.48759  0.62827  0.89152  1.0000
  S   S284      1.0  0.66434  0.57305  0.76560  1.0000
  H   H1621     1.0  0.68982  0.56999  0.75434  1.0000
  H   H1622     1.0  0.51333  0.67778  0.88928  1.0000
  C   C2022     1.0  0.48055  0.65601  0.90411  1.0000
  C   C2023     1.0  0.71089  0.52391  0.74765  1.0000
  H   H1623     1.0  0.72898  0.82413  0.71775  1.0000
  H   H1624     1.0  0.72164  0.59372  0.70811  1.0000
  C   C2024     1.0  0.63788  0.67122  0.49127  1.0000
  C   C2025     1.0  0.52939  0.90556  0.94961  1.0000
  H   H1625     1.0  0.51462  0.51748  0.83893  1.0000
  C   C2026     1.0  0.62049  0.71579  0.49048  1.0000
  C   C2027     1.0  0.49198  0.54432  0.87643  1.0000
  C   C2028     1.0  0.69287  0.50478  0.87760  1.0000
  C   C2029     1.0  0.50291  0.93200  0.88308  1.0000
  C   C2030     1.0  0.51361  0.90991  0.88281  1.0000
  C   C2031     1.0  0.52396  0.92827  0.88859  1.0000
  H   H1626     1.0  0.49799  0.61808  0.74208  1.0000
  C   C2032     1.0  0.71261  0.69655  0.71096  1.0000
  H   H1627     1.0  0.47953  0.57697  0.93071  1.0000
  H   H1628     1.0  0.51390  0.87868  0.87826  1.0000
  H   H1629     1.0  0.53217  0.91085  0.88839  1.0000
  H   H1630     1.0  0.67678  0.53388  0.50968  1.0000
  H   H1631     1.0  0.68640  0.68247  0.75558  1.0000
  C   C2033     1.0  0.50974  0.59138  0.80337  1.0000
  C   C2034     1.0  0.49898  0.61369  0.80232  1.0000
  C   C2035     1.0  0.49713  0.65078  0.81321  1.0000
  C   C2036     1.0  0.50611  0.66673  0.82505  1.0000
  C   C2037     1.0  0.51688  0.64451  0.82603  1.0000
  C   C2038     1.0  0.51868  0.60714  0.81541  1.0000
  H   H1632     1.0  0.49195  0.60189  0.79327  1.0000
  H   H1633     1.0  0.48875  0.66697  0.81247  1.0000
  H   H1634     1.0  0.52393  0.65632  0.83509  1.0000
  H   H1635     1.0  0.52700  0.59059  0.81654  1.0000
  H   H1636     1.0  0.51493  0.94341  0.93864  1.0000
  H   H1637     1.0  0.49365  0.90814  0.93162  1.0000
  C   C2039     1.0  0.67914  0.86251  0.95627  1.0000
  C   C2040     1.0  0.68604  0.82640  0.95778  1.0000
  C   C2041     1.0  0.69099  0.80816  0.93791  1.0000
  C   C2042     1.0  0.68900  0.82552  0.91607  1.0000
  C   C2043     1.0  0.68226  0.86201  0.91459  1.0000
  C   C2044     1.0  0.67743  0.88051  0.93446  1.0000
  H   H1638     1.0  0.68745  0.81211  0.97451  1.0000
  H   H1639     1.0  0.69614  0.78023  0.93952  1.0000
  H   H1640     1.0  0.68091  0.87638  0.89795  1.0000
  H   H1641     1.0  0.67224  0.90838  0.93290  1.0000
  C   C2045     1.0  0.69554  0.63431  0.79645  1.0000
  C   C2046     1.0  0.68402  0.63975  0.80560  1.0000
  C   C2047     1.0  0.67465  0.62053  0.79609  1.0000
  C   C2048     1.0  0.67664  0.59490  0.77760  1.0000
  C   C2049     1.0  0.68819  0.58897  0.76873  1.0000
  C   C2050     1.0  0.69753  0.60868  0.77798  1.0000
  H   H1642     1.0  0.68226  0.65947  0.81966  1.0000
  H   H1643     1.0  0.66576  0.62567  0.80305  1.0000
  H   H1644     1.0  0.70296  0.65991  0.68950  1.0000
  H   H1645     1.0  0.48366  0.89745  0.78344  1.0000
  C   C2051     1.0  0.70577  0.84272  0.75908  1.0000
  C   C2052     1.0  0.70995  0.80871  0.74756  1.0000
  H   H1646     1.0  0.48052  0.97132  0.94129  1.0000
  H   H1647     1.0  0.61890  0.76017  0.51627  1.0000
  H   H1648     1.0  0.48908  0.84650  0.74151  1.0000
  C   C2053     1.0  0.71280  0.71424  0.73229  1.0000
  C   C2054     1.0  0.51153  0.91816  0.97318  1.0000
  H   H1649     1.0  0.61336  0.48535  0.77278  1.0000
  H   H1650     1.0  0.71701  0.57875  0.80638  1.0000
  H   H1651     1.0  0.54361  0.49391  0.56510  1.0000
  C   C2055     1.0  0.71942  0.78495  0.75580  1.0000
  C   C2056     1.0  0.48781  0.81704  0.74989  1.0000
  C   C2057     1.0  0.49223  0.50975  0.89135  1.0000
  C   C2058     1.0  0.70307  0.67378  0.70588  1.0000
  C   C2059     1.0  0.69362  0.66879  0.72194  1.0000
  C   C2060     1.0  0.69368  0.68676  0.74303  1.0000
  C   C2061     1.0  0.64026  0.86512  0.97114  1.0000
  C   C2062     1.0  0.63094  0.89134  0.96513  1.0000
  Fe  Fe144     1.0  0.66058  0.51950  0.74327  1.0000
  H   H1652     1.0  0.50149  0.82292  0.77347  1.0000
  H   H1653     1.0  0.62250  0.92466  0.93792  1.0000
  C   C2063     1.0  0.70703  0.94132  0.82681  1.0000
  H   H1654     1.0  0.62483  0.90287  0.97832  1.0000
  C   C2064     1.0  0.72453  0.79546  0.77591  1.0000
  H   H1655     1.0  0.70586  0.80104  0.73211  1.0000
  H   H1656     1.0  0.66158  0.90311  0.88555  1.0000
  C   C2065     1.0  0.67567  0.97914  0.88891  1.0000
  C   C2066     1.0  0.66878  0.55131  0.51368  1.0000
  C   C2067     1.0  0.70540  0.96880  0.95954  1.0000
  C   C2068     1.0  0.70325  0.70904  0.74831  1.0000
  C   C2069     1.0  0.53380  0.88004  0.96710  1.0000
  C   C2070     1.0  0.71918  0.52607  0.76444  1.0000
  C   C2071     1.0  0.48786  0.89247  0.94416  1.0000
  H   H1657     1.0  0.68627  0.65078  0.71820  1.0000
  C   C2072     1.0  0.72106  0.57458  0.72367  1.0000
  H   H1658     1.0  0.72784  0.91758  0.79835  1.0000
  H   H1659     1.0  0.71619  0.82828  0.91323  1.0000
  C   C2073     1.0  0.70369  0.93127  0.97124  1.0000
  C   C2074     1.0  0.51827  0.92435  0.95256  1.0000
  C   C2075     1.0  0.72230  0.52654  0.97313  1.0000
  P   P67       1.0  0.71767  0.49622  0.79114  1.0000
  S   S285      1.0  0.64489  0.49497  0.49328  1.0000
  P   P68       1.0  0.72515  0.74278  0.73967  1.0000
  H   H1660     1.0  0.63776  0.73896  0.53332  1.0000
  H   H1661     1.0  0.70781  0.87963  0.78776  1.0000
  C   C2076     1.0  0.70486  0.49567  0.88056  1.0000
  C   C2077     1.0  0.68380  0.51971  0.81580  1.0000
  C   C2078     1.0  0.60283  0.86867  0.89385  1.0000
  C   C2079     1.0  0.59675  0.90134  0.88339  1.0000
  C   C2080     1.0  0.60266  0.93635  0.87641  1.0000
  C   C2081     1.0  0.61466  0.93877  0.87986  1.0000
  C   C2082     1.0  0.62084  0.90603  0.89035  1.0000
  C   C2083     1.0  0.61482  0.87099  0.89735  1.0000
  P   P69       1.0  0.63628  0.90862  0.89556  1.0000
  C   C2084     1.0  0.64534  0.87802  0.87633  1.0000
  C   C2085     1.0  0.64074  0.96029  0.89124  1.0000
  H   H1662     1.0  0.72204  0.52172  0.88100  1.0000
  C   C2086     1.0  0.72122  0.90862  0.85162  1.0000
  H   H1663     1.0  0.48472  0.56099  0.74866  1.0000
  C   C2087     1.0  0.62421  0.73546  0.50927  1.0000
  H   H1664     1.0  0.59792  0.96173  0.86844  1.0000
  C   C2088     1.0  0.65759  0.88176  0.87516  1.0000
  C   C2089     1.0  0.66481  0.85660  0.86146  1.0000
  C   C2090     1.0  0.65983  0.82802  0.84853  1.0000
  C   C2091     1.0  0.64763  0.82475  0.84918  1.0000
  C   C2092     1.0  0.64039  0.84961  0.86303  1.0000
  C   C2093     1.0  0.69697  0.57540  0.86998  1.0000
  H   H1665     1.0  0.50095  0.72532  0.91238  1.0000
  H   H1666     1.0  0.52543  0.48894  0.66818  1.0000
  H   H1667     1.0  0.70420  0.88776  0.92471  1.0000
  C   C2094     1.0  0.64767  0.59428  0.52348  1.0000
  H   H1668     1.0  0.69778  0.84942  0.84724  1.0000
  H   H1669     1.0  0.59822  0.84161  0.89940  1.0000
  H   H1670     1.0  0.58744  0.89959  0.88082  1.0000
  C   C2095     1.0  0.66388  0.57707  0.49682  1.0000
  C   C2096     1.0  0.71281  0.52717  0.87854  1.0000
  H   H1671     1.0  0.61939  0.84556  0.90570  1.0000
  C   C2097     1.0  0.50840  0.51530  0.85364  1.0000
  C   C2098     1.0  0.71848  0.92896  0.92070  1.0000
  C   C2099     1.0  0.55070  0.97299  0.97071  1.0000
  C   C2100     1.0  0.49727  0.69799  0.90691  1.0000
  H   H1672     1.0  0.69397  0.60614  0.86573  1.0000
  C   C2101     1.0  0.49297  0.76631  0.77918  1.0000
  C   C2102     1.0  0.64827  0.85116  0.95415  1.0000
  H   H1673     1.0  0.66545  0.80800  0.83829  1.0000
  H   H1674     1.0  0.64379  0.80240  0.83923  1.0000
  H   H1675     1.0  0.63099  0.84610  0.86347  1.0000
  H   H1676     1.0  0.70053  0.54407  0.82003  1.0000
  H   H1677     1.0  0.67429  0.85836  0.86133  1.0000
  H   H1678     1.0  0.64797  0.56344  0.55694  1.0000
  C   C2103     1.0  0.69603  0.52052  0.81241  1.0000
  C   C2104     1.0  0.70884  0.56684  0.87346  1.0000
  H   H1679     1.0  0.70429  0.96623  0.81539  1.0000
  H   H1680     1.0  0.63929  0.60952  0.52735  1.0000
  P   P70       1.0  0.49688  0.94019  0.97638  1.0000
  C   C2105     1.0  0.72868  0.55166  0.76017  1.0000
  H   H1681     1.0  0.71977  0.70012  0.69822  1.0000
  C   C2106     1.0  0.48105  0.59160  0.74719  1.0000
  C   C2107     1.0  0.63482  0.72348  0.51888  1.0000
  C   C2108     1.0  0.65345  0.59947  0.50172  1.0000
  H   H1682     1.0  0.71499  0.59111  0.87233  1.0000
  S   S286      1.0  0.67253  0.88259  0.98205  1.0000
  H   H1683     1.0  0.67974  0.55116  0.86978  1.0000
  H   H1684     1.0  0.67908  0.54271  0.82550  1.0000
  H   H1685     1.0  0.61898  0.96642  0.87461  1.0000
  S   S287      1.0  0.64924  0.52283  0.71226  1.0000
  C   C2109     1.0  0.52703  0.87300  0.98750  1.0000
  H   H1686     1.0  0.69847  0.86094  0.75261  1.0000
  H   H1687     1.0  0.69813  0.49164  0.92584  1.0000
  C   C2110     1.0  0.48024  0.87966  0.98328  1.0000
  C   C2111     1.0  0.48855  0.62384  0.74343  1.0000
  H   H1688     1.0  0.71675  0.84944  0.86565  1.0000
  H   H1689     1.0  0.49830  0.75618  0.79334  1.0000
  C   C2112     1.0  0.64169  0.69166  0.50982  1.0000
  Fe  Fe145     1.0  0.52535  0.49115  0.78805  1.0000
  C   C2113     1.0  0.71344  0.89112  0.92014  1.0000
  H   H1690     1.0  0.66673  0.52624  0.54837  1.0000
  C   C2114     1.0  0.50016  0.54675  0.85762  1.0000
  C   C2115     1.0  0.48393  0.66346  0.74202  1.0000
  C   C2116     1.0  0.72032  0.82952  0.78738  1.0000
  C   C2117     1.0  0.69607  0.97350  0.91381  1.0000
  S   S288      1.0  0.53777  0.48242  0.75683  1.0000
  C   C2118     1.0  0.48412  0.74208  0.77254  1.0000
  H   H1691     1.0  0.70328  0.72148  0.76513  1.0000
  C   C2119     1.0  0.64716  0.86406  0.93119  1.0000
  H   H1692     1.0  0.50008  0.57302  0.84594  1.0000
  H   H1693     1.0  0.68572  0.94647  0.86331  1.0000
  C   C2120     1.0  0.71777  0.94204  0.83755  1.0000
  P   P71       1.0  0.48106  0.58479  0.88053  1.0000
  H   H1694     1.0  0.71523  0.54930  0.97330  1.0000
  P   P72       1.0  0.70941  0.97236  0.92910  1.0000
  C   C2121     1.0  0.72536  0.52005  0.81289  1.0000
  H   H1695     1.0  0.54241  0.86542  0.96470  1.0000
  C   C2122     1.0  0.48740  0.90209  0.96737  1.0000
  C   C2123     1.0  0.70330  0.87530  0.84453  1.0000
  H   H1696     1.0  0.50503  0.61685  0.87580  1.0000
  C   C2124     1.0  0.66312  0.54697  0.53543  1.0000
  H   H1697     1.0  0.65556  0.83112  0.95891  1.0000
  C   C2125     1.0  0.49946  0.63640  0.88630  1.0000
  C   C2126     1.0  0.65253  0.56820  0.54028  1.0000
  C   C2127     1.0  0.71180  0.54823  0.72743  1.0000
  C   C2128     1.0  0.49338  0.94739  0.76806  1.0000
  H   H1698     1.0  0.50090  0.94128  0.77845  1.0000
  H   H1699     1.0  0.70464  0.90340  0.96251  1.0000
  H   H1700     1.0  0.70520  0.54689  0.71483  1.0000
  C   C2129     1.0  0.59444  0.48062  0.77761  1.0000
  H   H1701     1.0  0.64997  0.68302  0.51725  1.0000
  C   C2130     1.0  0.67753  0.49080  0.80551  1.0000
  C   C2131     1.0  0.72023  0.85733  0.91352  1.0000
  H   H1702     1.0  0.69154  0.90791  0.82216  1.0000
  H   H1703     1.0  0.54939  0.95596  0.95575  1.0000
  C   C2132     1.0  0.68898  0.54441  0.87219  1.0000
  C   C2133     1.0  0.52375  0.96879  0.89476  1.0000
  S   S289      1.0  0.48689  0.78819  0.88119  1.0000
  H   H1704     1.0  0.66801  0.49128  0.80731  1.0000
  C   C2134     1.0  0.62970  0.90389  0.94218  1.0000
  C   C2135     1.0  0.50273  0.97256  0.88908  1.0000
  C   C2136     1.0  0.50427  0.67103  0.89406  1.0000
  C   C2137     1.0  0.71400  0.87545  0.85503  1.0000
  H   H1705     1.0  0.64261  0.95810  0.85424  1.0000
  C   C2138     1.0  0.68580  0.95964  0.87983  1.0000
  H   H1706     1.0  0.63964  0.97344  0.92726  1.0000
  C   C2139     1.0  0.48540  0.69057  0.91186  1.0000
  C   C2140     1.0  0.48370  0.92273  0.77088  1.0000
  Fe  Fe146     1.0  0.72765  0.68627  0.87810  1.0000
  H   H1707     1.0  0.72426  0.83738  0.80295  1.0000
  C   C2141     1.0  0.72338  0.56136  0.81618  1.0000
  H   H1708     1.0  0.72230  0.66429  0.76530  1.0000
  H   H1709     1.0  0.47984  0.71224  0.92109  1.0000
  H   H1710     1.0  0.48994  0.68788  0.73907  1.0000
  C   C2142     1.0  0.69600  0.95706  0.89212  1.0000
  H   H1711     1.0  0.70380  0.94222  0.88468  1.0000
  S   S290      1.0  0.72751  0.75324  0.88451  1.0000
  H   H1712     1.0  0.70356  0.50410  0.75020  1.0000
  H   H1713     1.0  0.72696  0.53732  0.93711  1.0000
  H   H1714     1.0  0.68649  0.48133  0.87961  1.0000
  C   C2143     1.0  0.70211  0.49234  0.79856  1.0000
  C   C2144     1.0  0.48086  0.86244  0.93683  1.0000
  C   C2145     1.0  0.72888  0.51975  0.95271  1.0000
  H   H1715     1.0  0.48120  0.85557  0.91882  1.0000
  H   H1716     1.0  0.72801  0.61262  0.83446  1.0000
  H   H1717     1.0  0.53256  0.97178  0.98290  1.0000
  C   C2146     1.0  0.64315  0.97659  0.86888  1.0000
  H   H1718     1.0  0.59416  0.48969  0.79516  1.0000
  C   C2147     1.0  0.50856  0.48096  0.86844  1.0000
  H   H1719     1.0  0.69761  0.48133  0.96792  1.0000
  H   H1720     1.0  0.84408  0.44591  0.13868  1.0000
  S   S291      1.0  0.77167  0.44388  0.99405  1.0000
  C   C2148     1.0  0.92087  0.47082  0.13679  1.0000
  Fe  Fe147     1.0  0.97008  0.29172  0.08214  1.0000
  C   C2149     1.0  0.75290  0.35153  0.37487  1.0000
  S   S292      1.0  0.96388  0.29581  0.04528  1.0000
  Fe  Fe148     1.0  0.96710  0.29208  0.13515  1.0000
  S   S293      1.0  0.95441  0.28781  0.16702  1.0000
  S   S294      1.0  0.96789  0.24245  0.10986  1.0000
  Fe  Fe149     1.0  0.78535  0.41953  0.24437  1.0000
  S   S295      1.0  0.77996  0.36442  0.26754  1.0000
  C   C2150     1.0  0.97416  0.15108  0.18790  1.0000
  S   S296      1.0  0.80080  0.41426  0.21864  1.0000
  Fe  Fe150     1.0  0.91819  0.42740  0.25910  1.0000
  S   S297      1.0  0.92933  0.42092  0.28955  1.0000
  S   S298      1.0  0.92505  0.42486  0.22142  1.0000
  H   H1721     1.0  0.88645  0.41473  0.09007  1.0000
  S   S299      1.0  0.90645  0.44677  0.32197  1.0000
  H   H1722     1.0  0.76895  0.98289  0.41809  1.0000
  H   H1723     1.0  0.92052  0.31443  0.04756  1.0000
  Fe  Fe151     1.0  0.91417  0.38855  0.30782  1.0000
  S   S300      1.0  0.91999  0.32694  0.32468  1.0000
  H   H1724     1.0  0.94783  0.23227  0.39219  1.0000
  S   S301      1.0  0.90332  0.39242  0.27630  1.0000
  H   H1725     1.0  0.88240  0.46299  0.15684  1.0000
  Fe  Fe152     1.0  0.73190  0.17551  0.36952  1.0000
  C   C2151     1.0  0.84250  0.47841  0.19324  1.0000
  C   C2152     1.0  0.96636  0.03836  0.22944  1.0000
  S   S302      1.0  0.74586  0.12688  0.37821  1.0000
  H   H1726     1.0  0.87599  0.35674  0.03710  1.0000
  C   C2153     1.0  0.78771  0.43117  0.32650  1.0000
  C   C2154     1.0  0.97888  0.44455  0.19398  1.0000
  C   C2155     1.0  0.87312  0.14881  0.46828  1.0000
  Fe  Fe153     1.0  0.90706  0.14009  0.41916  1.0000
  S   S303      1.0  0.90270  0.12127  0.45656  1.0000
  S   S304      1.0  0.90212  0.20555  0.40755  1.0000
  Fe  Fe154     1.0  0.91595  0.05474  0.40784  1.0000
  S   S305      1.0  0.91216  0.03090  0.44387  1.0000
  Fe  Fe155     1.0  0.89492  0.06633  0.44273  1.0000
  S   S306      1.0  0.87923  0.03091  0.45852  1.0000
  Fe  Fe156     1.0  0.92016  0.08733  0.45499  1.0000
  H   H1727     1.0  0.76128  0.29992  0.99718  1.0000
  S   S307      1.0  0.89819  0.08695  0.40577  1.0000
  S   S308      1.0  0.92505  0.10922  0.41860  1.0000
  C   C2156     1.0  0.79094  0.46180  0.13070  1.0000
  C   C2157     1.0  0.83873  0.03832  0.45493  1.0000
  C   C2158     1.0  0.76567  0.47707  0.29728  1.0000
  C   C2159     1.0  0.85812  0.06382  0.44232  1.0000
  C   C2160     1.0  0.86367  0.03441  0.45637  1.0000
  C   C2161     1.0  0.74530  0.40091  0.01368  1.0000
  H   H1728     1.0  0.93591  0.22287  0.02295  1.0000
  H   H1729     1.0  0.86336  0.08510  0.43196  1.0000
  C   C2162     1.0  0.91918  0.43101  0.08046  1.0000
  C   C2163     1.0  0.75124  0.11212  0.40538  1.0000
  C   C2164     1.0  0.76158  0.08780  0.40625  1.0000
  C   C2165     1.0  0.76602  0.07430  0.42741  1.0000
  C   C2166     1.0  0.76013  0.08482  0.44801  1.0000
  C   C2167     1.0  0.74984  0.10950  0.44714  1.0000
  C   C2168     1.0  0.74541  0.12313  0.42593  1.0000
  H   H1730     1.0  0.76622  0.07944  0.39047  1.0000
  H   H1731     1.0  0.77397  0.05556  0.42775  1.0000
  H   H1732     1.0  0.74523  0.11787  0.46297  1.0000
  H   H1733     1.0  0.73741  0.14169  0.42551  1.0000
  C   C2169     1.0  0.91463  0.29342  0.34754  1.0000
  C   C2170     1.0  0.90522  0.30396  0.36275  1.0000
  C   C2171     1.0  0.90152  0.27664  0.38086  1.0000
  C   C2172     1.0  0.90706  0.23821  0.38396  1.0000
  C   C2173     1.0  0.91643  0.22754  0.36870  1.0000
  C   C2174     1.0  0.92022  0.25505  0.35076  1.0000
  H   H1734     1.0  0.90084  0.33328  0.36064  1.0000
  H   H1735     1.0  0.89429  0.28539  0.39251  1.0000
  H   H1736     1.0  0.92079  0.19822  0.37080  1.0000
  H   H1737     1.0  0.92751  0.24647  0.33916  1.0000
  C   C2175     1.0  0.76649  0.34109  0.27587  1.0000
  C   C2176     1.0  0.75713  0.34121  0.26136  1.0000
  C   C2177     1.0  0.74697  0.31963  0.26807  1.0000
  C   C2178     1.0  0.74594  0.29831  0.28949  1.0000
  C   C2179     1.0  0.75514  0.29926  0.30432  1.0000
  C   C2180     1.0  0.76543  0.31986  0.29735  1.0000
  H   H1738     1.0  0.75786  0.35703  0.24472  1.0000
  H   H1739     1.0  0.73992  0.31905  0.25644  1.0000
  H   H1740     1.0  0.75441  0.28354  0.32093  1.0000
  H   H1741     1.0  0.77259  0.31942  0.30872  1.0000
  C   C2181     1.0  0.86852  0.42403  0.14842  1.0000
  C   C2182     1.0  0.79264  0.47130  0.08842  1.0000
  S   S309      1.0  0.78177  0.42188  0.05848  1.0000
  C   C2183     1.0  0.73515  0.39154  0.42188  1.0000
  H   H1742     1.0  0.94732  0.39235  0.24357  1.0000
  C   C2184     1.0  0.94658  0.32674  0.18213  1.0000
  C   C2185     1.0  0.94626  0.36704  0.17386  1.0000
  C   C2186     1.0  0.93964  0.39656  0.18609  1.0000
  C   C2187     1.0  0.93344  0.38643  0.20698  1.0000
  C   C2188     1.0  0.93392  0.34626  0.21546  1.0000
  C   C2189     1.0  0.94039  0.31664  0.20303  1.0000
  H   H1743     1.0  0.95117  0.37534  0.15810  1.0000
  H   H1744     1.0  0.93935  0.42754  0.17948  1.0000
  H   H1745     1.0  0.92920  0.33792  0.23146  1.0000
  H   H1746     1.0  0.94058  0.28562  0.20967  1.0000
  C   C2190     1.0  0.92807  0.32160  0.01305  1.0000
  C   C2191     1.0  0.92858  0.31428  0.03693  1.0000
  C   C2192     1.0  0.93944  0.30698  0.04720  1.0000
  C   C2193     1.0  0.94992  0.30617  0.03359  1.0000
  C   C2194     1.0  0.94939  0.31288  0.00966  1.0000
  Fe  Fe157     1.0  0.80767  0.00927  0.47154  1.0000
  H   H1747     1.0  0.93970  0.30159  0.06557  1.0000
  H   H1748     1.0  0.95744  0.31221  0.99899  1.0000
  C   C2195     1.0  0.75321  0.02992  0.35159  1.0000
  H   H1749     1.0  0.97097  0.17743  0.19691  1.0000
  C   C2196     1.0  0.75660  0.32734  0.00228  1.0000
  C   C2197     1.0  0.74126  0.37853  0.99607  1.0000
  H   H1750     1.0  0.74663  0.44794  0.06656  1.0000
  C   C2198     1.0  0.85934  0.30439  0.18813  1.0000
  H   H1751     1.0  0.78590  0.36496  0.35756  1.0000
  H   H1752     1.0  0.74529  0.46374  0.25820  1.0000
  C   C2199     1.0  0.95727  0.05950  0.37551  1.0000
  C   C2200     1.0  0.78003  0.98214  0.37615  1.0000
  C   C2201     1.0  0.80361  0.39505  0.30586  1.0000
  C   C2202     1.0  0.79203  0.39704  0.31515  1.0000
  H   H1753     1.0  0.75474  0.99625  0.44984  1.0000
  C   C2203     1.0  0.94978  0.35350  0.27350  1.0000
  P   P73       1.0  0.77246  0.43428  0.33686  1.0000
  H   H1754     1.0  0.87104  0.11749  0.46693  1.0000
  S   S310      1.0  0.77615  0.46800  0.22243  1.0000
  C   C2204     1.0  0.74831  0.42414  0.28780  1.0000
  C   C2205     1.0  0.75499  0.41645  0.30700  1.0000
  C   C2206     1.0  0.79453  0.03411  0.37325  1.0000
  C   C2207     1.0  0.78141  0.41684  0.10603  1.0000
  H   H1755     1.0  0.80667  0.36948  0.29606  1.0000
  H   H1756     1.0  0.78631  0.37251  0.31284  1.0000
  H   H1757     1.0  0.86281  0.30142  0.05010  1.0000
  H   H1758     1.0  0.95656  0.20542  0.47272  1.0000
  C   C2208     1.0  0.81709  0.39307  0.14156  1.0000
  H   H1759     1.0  0.75365  0.38864  0.31698  1.0000
  H   H1760     1.0  0.84657  0.27046  0.20893  1.0000
  H   H1761     1.0  0.93439  0.11398  0.35314  1.0000
  H   H1762     1.0  0.95601  0.47476  0.19594  1.0000
  H   H1763     1.0  0.84282  0.31702  0.06664  1.0000
  H   H1764     1.0  0.96646  0.27048  0.46518  1.0000
  C   C2209     1.0  0.80058  0.33362  0.05845  1.0000
  Fe  Fe158     1.0  0.80931  0.46042  0.23876  1.0000
  C   C2210     1.0  0.96727  0.36354  0.29385  1.0000
  H   H1765     1.0  0.79770  0.30238  0.02793  1.0000
  H   H1766     1.0  0.84304  0.34112  0.10745  1.0000
  H   H1767     1.0  0.80546  0.36792  0.08615  1.0000
  C   C2211     1.0  0.74790  0.05294  0.33405  1.0000
  C   C2212     1.0  0.76133  0.32290  0.38213  1.0000
  C   C2213     1.0  0.77725  0.47281  0.37613  1.0000
  H   H1768     1.0  0.97186  0.17972  0.15440  1.0000
  C   C2214     1.0  0.84465  0.38180  0.06384  1.0000
  C   C2215     1.0  0.95951  0.09796  0.44698  1.0000
  C   C2216     1.0  0.93284  0.24703  0.41426  1.0000
  C   C2217     1.0  0.92613  0.23639  0.43419  1.0000
  C   C2218     1.0  0.92964  0.20330  0.44821  1.0000
  C   C2219     1.0  0.93986  0.18066  0.44229  1.0000
  C   C2220     1.0  0.94664  0.19097  0.42217  1.0000
  C   C2221     1.0  0.94302  0.22436  0.40819  1.0000
  C   C2222     1.0  0.96526  0.13192  0.43729  1.0000
  H   H1769     1.0  0.96429  0.45479  0.13362  1.0000
  C   C2223     1.0  0.96352  0.40424  0.25906  1.0000
  H   H1770     1.0  0.92987  0.27191  0.40301  1.0000
  H   H1771     1.0  0.85650  0.38420  0.13444  1.0000
  H   H1772     1.0  0.75806  0.40102  0.04002  1.0000
  H   H1773     1.0  0.94215  0.15456  0.45318  1.0000
  H   H1774     1.0  0.95140  0.08865  0.44026  1.0000
  C   C2224     1.0  0.90718  0.45910  0.04165  1.0000
  H   H1775     1.0  0.97788  0.11602  0.21867  1.0000
  C   C2225     1.0  0.80674  0.46154  0.31899  1.0000
  C   C2226     1.0  0.80203  0.00944  0.38650  1.0000
  C   C2227     1.0  0.84235  0.33425  0.20842  1.0000
  H   H1776     1.0  0.83906  0.98716  0.47900  1.0000
  H   H1777     1.0  0.91568  0.40859  0.02485  1.0000
  H   H1778     1.0  0.76800  0.33751  0.02951  1.0000
  H   H1779     1.0  0.90547  0.39755  0.18163  1.0000
  C   C2228     1.0  0.91993  0.43014  0.13176  1.0000
  C   C2229     1.0  0.75446  0.22396  0.41917  1.0000
  C   C2230     1.0  0.75950  0.24408  0.43638  1.0000
  C   C2231     1.0  0.77148  0.25190  0.43452  1.0000
  C   C2232     1.0  0.77841  0.23959  0.41544  1.0000
  C   C2233     1.0  0.77339  0.21980  0.39785  1.0000
  C   C2234     1.0  0.76137  0.21167  0.40010  1.0000
  P   P74       1.0  0.78264  0.20033  0.37438  1.0000
  C   C2235     1.0  0.79223  0.16131  0.38655  1.0000
  C   C2236     1.0  0.77382  0.17993  0.35314  1.0000
  C   C2237     1.0  0.77599  0.14043  0.34600  1.0000
  C   C2238     1.0  0.76929  0.12529  0.32920  1.0000
  C   C2239     1.0  0.76039  0.14942  0.31944  1.0000
  C   C2240     1.0  0.75813  0.18864  0.32651  1.0000
  C   C2241     1.0  0.76475  0.20376  0.34339  1.0000
  C   C2242     1.0  0.80337  0.15293  0.37599  1.0000
  C   C2243     1.0  0.81111  0.12474  0.38629  1.0000
  C   C2244     1.0  0.80771  0.10429  0.40693  1.0000
  C   C2245     1.0  0.79651  0.11148  0.41714  1.0000
  C   C2246     1.0  0.78877  0.13982  0.40698  1.0000
  C   C2247     1.0  0.79164  0.24011  0.36121  1.0000
  C   C2248     1.0  0.78938  0.25788  0.33942  1.0000
  C   C2249     1.0  0.79657  0.28788  0.32941  1.0000
  C   C2250     1.0  0.80608  0.30050  0.34097  1.0000
  C   C2251     1.0  0.80846  0.28293  0.36251  1.0000
  C   C2252     1.0  0.80133  0.25277  0.37254  1.0000
  H   H1780     1.0  0.74520  0.21715  0.42072  1.0000
  H   H1781     1.0  0.75414  0.25293  0.45133  1.0000
  H   H1782     1.0  0.77544  0.26666  0.44815  1.0000
  H   H1783     1.0  0.78773  0.24465  0.41483  1.0000
  H   H1784     1.0  0.75729  0.19522  0.38745  1.0000
  H   H1785     1.0  0.78278  0.12116  0.35339  1.0000
  H   H1786     1.0  0.77094  0.09474  0.32386  1.0000
  H   H1787     1.0  0.75515  0.13773  0.30651  1.0000
  H   H1788     1.0  0.75119  0.20726  0.31894  1.0000
  H   H1789     1.0  0.76283  0.23412  0.34882  1.0000
  H   H1790     1.0  0.80614  0.16855  0.35999  1.0000
  H   H1791     1.0  0.81979  0.11884  0.37838  1.0000
  H   H1792     1.0  0.81375  0.08268  0.41499  1.0000
  H   H1793     1.0  0.79387  0.09530  0.43308  1.0000
  H   H1794     1.0  0.78015  0.14510  0.41529  1.0000
  H   H1795     1.0  0.78225  0.24857  0.32972  1.0000
  H   H1796     1.0  0.79485  0.30095  0.31245  1.0000
  H   H1797     1.0  0.81173  0.32342  0.33306  1.0000
  H   H1798     1.0  0.81599  0.29221  0.37124  1.0000
  H   H1799     1.0  0.80359  0.23872  0.38891  1.0000
  C   C2253     1.0  0.76027  0.98103  0.32416  1.0000
  H   H1800     1.0  0.83232  0.10576  0.48741  1.0000
  H   H1801     1.0  0.83115  0.35655  0.02938  1.0000
  H   H1802     1.0  0.73340  0.98781  0.44558  1.0000
  C   C2254     1.0  0.94195  0.10687  0.36329  1.0000
  H   H1803     1.0  0.96479  0.43186  0.06194  1.0000
  C   C2255     1.0  0.97528  0.99896  0.26854  1.0000
  H   H1804     1.0  0.94155  0.33857  0.27221  1.0000
  C   C2256     1.0  0.75936  0.99359  0.34683  1.0000
  H   H1805     1.0  0.94348  0.43730  0.13805  1.0000
  C   C2257     1.0  0.74795  0.44564  0.40914  1.0000
  C   C2258     1.0  0.84574  0.06584  0.44172  1.0000
  C   C2259     1.0  0.84914  0.30013  0.20234  1.0000
  H   H1806     1.0  0.84156  0.08903  0.43098  1.0000
  C   C2260     1.0  0.92130  0.22669  0.00099  1.0000
  H   H1807     1.0  0.74372  0.34746  0.37991  1.0000
  C   C2261     1.0  0.96404  0.07601  0.46575  1.0000
  H   H1808     1.0  0.84042  0.32815  0.14931  1.0000
  H   H1809     1.0  0.77782  0.04021  0.35800  1.0000
  C   C2262     1.0  0.77067  0.47461  0.35646  1.0000
  H   H1810     1.0  0.82112  0.43626  0.03307  1.0000
  C   C2263     1.0  0.81848  0.40054  0.11782  1.0000
  S   S311      1.0  0.92209  0.01354  0.37901  1.0000
  S   S312      1.0  0.82847  0.43867  0.24517  1.0000
  H   H1811     1.0  0.88271  0.25899  0.47212  1.0000
  H   H1812     1.0  0.92419  0.19437  0.46324  1.0000
  C   C2264     1.0  0.91417  0.40388  0.14795  1.0000
  C   C2265     1.0  0.86351  0.40387  0.04720  1.0000
  H   H1813     1.0  0.92628  0.38421  0.05867  1.0000
  C   C2266     1.0  0.95681  0.34357  0.29192  1.0000
  C   C2267     1.0  0.84429  0.00849  0.46870  1.0000
  C   C2268     1.0  0.87981  0.22846  0.47115  1.0000
  C   C2269     1.0  0.84860  0.34149  0.06161  1.0000
  C   C2270     1.0  0.83434  0.34850  0.14045  1.0000
  C   C2271     1.0  0.87779  0.41801  0.20773  1.0000
  H   H1814     1.0  0.81739  0.31647  0.00980  1.0000
  H   H1815     1.0  0.87779  0.38598  0.20521  1.0000
  C   C2272     1.0  0.76362  0.44330  0.31216  1.0000
  Fe  Fe159     1.0  0.78106  0.02411  0.47929  1.0000
  H   H1816     1.0  0.75240  0.04040  0.36890  1.0000
  S   S313      1.0  0.73318  0.27005  0.29650  1.0000
  C   C2273     1.0  0.75632  0.38535  0.36127  1.0000
  C   C2274     1.0  0.73435  0.47590  0.99337  1.0000
  C   C2275     1.0  0.87092  0.39723  0.11035  1.0000
  H   H1817     1.0  0.90708  0.46918  0.19005  1.0000
  C   C2276     1.0  0.91667  0.29518  0.09995  1.0000
  C   C2277     1.0  0.92587  0.27243  0.10960  1.0000
  C   C2278     1.0  0.93524  0.29183  0.11818  1.0000
  C   C2279     1.0  0.93553  0.33395  0.11682  1.0000
  C   C2280     1.0  0.92651  0.35701  0.10655  1.0000
  C   C2281     1.0  0.91690  0.33735  0.09868  1.0000
  P   P75       1.0  0.92673  0.41148  0.10542  1.0000
  C   C2282     1.0  0.75469  0.38488  0.02631  1.0000
  C   C2283     1.0  0.94193  0.42594  0.10212  1.0000
  H   H1818     1.0  0.91486  0.23312  0.01478  1.0000
  C   C2284     1.0  0.86401  0.46773  0.27519  1.0000
  Fe  Fe160     1.0  0.78583  0.43954  0.01998  1.0000
  H   H1819     1.0  0.89820  0.99022  0.40219  1.0000
  C   C2285     1.0  0.94816  0.42406  0.08073  1.0000
  H   H1820     1.0  0.74197  0.40265  0.28351  1.0000
  H   H1821     1.0  0.81983  0.42623  0.29993  1.0000
  H   H1822     1.0  0.90939  0.28011  0.09337  1.0000
  H   H1823     1.0  0.92576  0.23976  0.11056  1.0000
  H   H1824     1.0  0.94230  0.27422  0.12599  1.0000
  H   H1825     1.0  0.94278  0.34831  0.12392  1.0000
  H   H1826     1.0  0.90962  0.35446  0.09141  1.0000
  C   C2286     1.0  0.88547  0.44105  0.12315  1.0000
  C   C2287     1.0  0.84572  0.37260  0.20026  1.0000
  H   H1827     1.0  0.85070  0.39485  0.24770  1.0000
  H   H1828     1.0  0.77600  0.39113  0.10450  1.0000
  H   H1829     1.0  0.94408  0.41385  0.06591  1.0000
  C   C2288     1.0  0.86733  0.36370  0.04492  1.0000
  H   H1830     1.0  0.91361  0.37211  0.14502  1.0000
  C   C2289     1.0  0.72948  0.43889  0.39097  1.0000
  H   H1831     1.0  0.96162  0.02998  0.37467  1.0000
  C   C2290     1.0  0.95997  0.43429  0.07836  1.0000
  C   C2291     1.0  0.87884  0.21243  0.44970  1.0000
  C   C2292     1.0  0.87556  0.17255  0.44826  1.0000
  S   S314      1.0  0.79710  0.39680  0.99861  1.0000
  C   C2293     1.0  0.93855  0.32072  0.99943  1.0000
  C   C2294     1.0  0.95305  0.38402  0.25731  1.0000
  C   C2295     1.0  0.86255  0.43138  0.26466  1.0000
  C   C2296     1.0  0.86451  0.40045  0.13135  1.0000
  C   C2297     1.0  0.97024  0.19256  0.39957  1.0000
  H   H1832     1.0  0.86977  0.40937  0.26372  1.0000
  H   H1833     1.0  0.97343  0.33254  0.18345  1.0000
  C   C2298     1.0  0.96341  0.01109  0.26849  1.0000
  C   C2299     1.0  0.80389  0.31874  0.03702  1.0000
  H   H1834     1.0  0.96601  0.36130  0.21953  1.0000
  H   H1835     1.0  0.78068  0.41155  0.14329  1.0000
  C   C2300     1.0  0.78564  0.43811  0.08593  1.0000
  S   S315      1.0  0.96777  0.34093  0.10718  1.0000
  H   H1836     1.0  0.89140  0.41116  0.23202  1.0000
  H   H1837     1.0  0.88097  0.23047  0.43413  1.0000
  H   H1838     1.0  0.87530  0.15967  0.43160  1.0000
  C   C2301     1.0  0.97209  0.23003  0.40869  1.0000
  H   H1839     1.0  0.83455  0.33126  0.21979  1.0000
  H   H1840     1.0  0.79178  0.32919  0.06591  1.0000
  C   C2302     1.0  0.97436  0.08764  0.47500  1.0000
  P   P76       1.0  0.95926  0.15996  0.41298  1.0000
  H   H1841     1.0  0.86085  0.98382  0.48038  1.0000
  H   H1842     1.0  0.74969  0.40769  0.35613  1.0000
  C   C2303     1.0  0.85592  0.37722  0.18588  1.0000
  S   S316      1.0  0.76517  0.06725  0.47509  1.0000
  H   H1843     1.0  0.86778  0.37882  0.09731  1.0000
  C   C2304     1.0  0.94772  0.06913  0.36202  1.0000
  C   C2305     1.0  0.97839  0.02751  0.22959  1.0000
  C   C2306     1.0  0.77664  0.36144  0.36192  1.0000
  P   P77       1.0  0.82972  0.39315  0.07441  1.0000
  C   C2307     1.0  0.83577  0.35597  0.11665  1.0000
  H   H1844     1.0  0.78336  0.44761  0.37935  1.0000
  H   H1845     1.0  0.77976  0.30634  0.38191  1.0000
  H   H1846     1.0  0.74309  0.08082  0.33794  1.0000
  C   C2308     1.0  0.82281  0.34928  0.03810  1.0000
  S   S317      1.0  0.79227  0.00246  0.44945  1.0000
  H   H1847     1.0  0.91796  0.25291  0.43827  1.0000
  C   C2309     1.0  0.76819  0.38996  0.35408  1.0000
  C   C2310     1.0  0.85166  0.42321  0.25560  1.0000
  S   S318      1.0  0.82312  0.04381  0.45418  1.0000
  C   C2311     1.0  0.85990  0.33254  0.05223  1.0000
  C   C2312     1.0  0.92055  0.41082  0.05987  1.0000
  H   H1848     1.0  0.82392  0.36177  0.17134  1.0000
  H   H1849     1.0  0.96820  0.07897  0.40122  1.0000
  H   H1850     1.0  0.86470  0.27796  0.18377  1.0000
  H   H1851     1.0  0.94084  0.16355  0.37921  1.0000
  H   H1852     1.0  0.94458  0.04698  0.35099  1.0000
  C   C2313     1.0  0.80842  0.35583  0.06991  1.0000
  H   H1853     1.0  0.95938  0.05036  0.47337  1.0000
  H   H1854     1.0  0.74487  0.05840  0.29798  1.0000
  H   H1855     1.0  0.79722  0.06382  0.36711  1.0000
  H   H1856     1.0  0.84040  0.39850  0.20561  1.0000
  C   C2314     1.0  0.77320  0.32807  0.37588  1.0000
  S   S319      1.0  0.91416  0.33201  0.00121  1.0000
  H   H1857     1.0  0.75179  0.40113  0.43611  1.0000
  C   C2315     1.0  0.82608  0.44568  0.06773  1.0000
  C   C2316     1.0  0.87903  0.44458  0.14407  1.0000
  C   C2317     1.0  0.85667  0.00674  0.46948  1.0000
  C   C2318     1.0  0.95493  0.12492  0.39252  1.0000
  C   C2319     1.0  0.81099  0.42717  0.30791  1.0000
  C   C2320     1.0  0.81968  0.36337  0.05999  1.0000
  C   C2321     1.0  0.78355  0.02059  0.36809  1.0000
  C   C2322     1.0  0.97572  0.14319  0.44652  1.0000
  C   C2323     1.0  0.78403  0.42842  0.12817  1.0000
  C   C2324     1.0  0.96088  0.08725  0.39069  1.0000
  H   H1858     1.0  0.95400  0.32088  0.30485  1.0000
  C   C2325     1.0  0.85223  0.41295  0.05666  1.0000
  C   C2326     1.0  0.74886  0.04027  0.31158  1.0000
  C   C2327     1.0  0.81500  0.32666  0.02682  1.0000
  C   C2328     1.0  0.91181  0.46587  0.08128  1.0000
  C   C2329     1.0  0.94560  0.13486  0.37829  1.0000
  H   H1859     1.0  0.80982  0.40737  0.15122  1.0000
  C   C2330     1.0  0.97804  0.11619  0.20012  1.0000
  C   C2331     1.0  0.97462  0.15241  0.16394  1.0000
  C   C2332     1.0  0.96379  0.21283  0.48282  1.0000
  C   C2333     1.0  0.88142  0.41744  0.10627  1.0000
  H   H1860     1.0  0.75862  0.29696  0.39276  1.0000
  C   C2334     1.0  0.84202  0.45107  0.25691  1.0000
  C   C2335     1.0  0.86275  0.34279  0.17997  1.0000
  C   C2336     1.0  0.90944  0.41818  0.16874  1.0000
  C   C2337     1.0  0.88558  0.43212  0.22292  1.0000
  C   C2338     1.0  0.96939  0.24937  0.47860  1.0000
  H   H1861     1.0  0.83141  0.46644  0.09999  1.0000
  C   C2339     1.0  0.76040  0.34854  0.02040  1.0000
  H   H1862     1.0  0.96270  0.05307  0.21433  1.0000
  P   P78       1.0  0.73844  0.44963  0.01979  1.0000
  H   H1863     1.0  0.87082  0.34558  0.16943  1.0000
  C   C2340     1.0  0.94785  0.43716  0.12117  1.0000
  C   C2341     1.0  0.97080  0.38035  0.20701  1.0000
  S   S320      1.0  0.73519  0.24212  0.36451  1.0000
  C   C2342     1.0  0.95894  0.03055  0.24891  1.0000
  H   H1864     1.0  0.96699  0.23948  0.42381  1.0000
  H   H1865     1.0  0.95767  0.00535  0.28362  1.0000
  C   C2343     1.0  0.95968  0.44718  0.11876  1.0000
  C   C2344     1.0  0.74558  0.41175  0.42359  1.0000
  C   C2345     1.0  0.93316  0.22084  0.00558  1.0000
  C   C2346     1.0  0.91456  0.42466  0.04062  1.0000
  S   S321      1.0  0.79414  0.46400  0.26515  1.0000
  H   H1866     1.0  0.94972  0.03980  0.24884  1.0000
  C   C2347     1.0  0.74692  0.34200  0.99036  1.0000
  C   C2348     1.0  0.82789  0.38235  0.10513  1.0000
  P   P79       1.0  0.86038  0.42700  0.17582  1.0000
  C   C2349     1.0  0.96571  0.44606  0.09733  1.0000
  C   C2350     1.0  0.79510  0.46383  0.32800  1.0000
  C   C2351     1.0  0.82504  0.36727  0.15290  1.0000
  H   H1867     1.0  0.81217  0.42054  0.10938  1.0000
  C   C2352     1.0  0.97067  0.39361  0.27740  1.0000
  H   H1868     1.0  0.94189  0.00422  0.40866  1.0000
  H   H1869     1.0  0.81050  0.01998  0.39074  1.0000
  C   C2353     1.0  0.95483  0.47565  0.23312  1.0000
  H   H1870     1.0  0.86920  0.42802  0.04111  1.0000
  C   C2354     1.0  0.75501  0.00431  0.30664  1.0000
  C   C2355     1.0  0.94235  0.97956  0.39717  1.0000
  Fe  Fe161     1.0  0.89639  0.45228  0.28914  1.0000
  C   C2356     1.0  0.75024  0.45831  0.27342  1.0000
  C   C2357     1.0  0.97276  0.42088  0.21099  1.0000
  C   C2358     1.0  0.82231  0.45801  0.04591  1.0000
  C   C2359     1.0  0.84722  0.45902  0.17379  1.0000
  H   H1871     1.0  0.89364  0.45651  0.12016  1.0000
  C   C2360     1.0  0.73995  0.45922  0.39289  1.0000
  C   C2361     1.0  0.97497  0.36381  0.18645  1.0000
  Fe  Fe162     1.0  0.79240  0.46588  0.19802  1.0000
  C   C2362     1.0  0.87010  0.44509  0.19620  1.0000
  P   P80       1.0  0.96762  0.44293  0.23756  1.0000
  C   C2363     1.0  0.73967  0.98139  0.43151  1.0000
  H   H1872     1.0  0.97876  0.40880  0.27931  1.0000
  C   C2364     1.0  0.91038  0.45868  0.17353  1.0000
  H   H1873     1.0  0.97494  0.45302  0.09559  1.0000
  H   H1874     1.0  0.95073  0.21206  0.99154  1.0000
  C   C2365     1.0  0.84092  0.46151  0.15370  1.0000
  H   H1875     1.0  0.73323  0.36516  0.43298  1.0000
  H   H1876     1.0  0.84940  0.44431  0.05778  1.0000
  C   C2366     1.0  0.82800  0.47503  0.08349  1.0000
  S   S322      1.0  0.93380  0.07508  0.48227  1.0000
  H   H1877     1.0  0.90259  0.46983  0.02662  1.0000
  C   C2367     1.0  0.97698  0.18095  0.38000  1.0000
  H   H1878     1.0  0.97574  0.15223  0.37263  1.0000
  H   H1879     1.0  0.97266  0.35605  0.30825  1.0000
  H   H1880     1.0  0.75570  0.99444  0.28920  1.0000
  C   C2368     1.0  0.75093  0.47215  0.05666  1.0000
  H   H1881     1.0  0.75599  0.46142  0.41053  1.0000
  C   C2369     1.0  0.75165  0.98606  0.43395  1.0000
  C   C2370     1.0  0.88565  0.47320  0.22694  1.0000
  H   H1882     1.0  0.97872  0.98338  0.28365  1.0000
  C   C2371     1.0  0.97889  0.11884  0.15219  1.0000
  S   S323      1.0  0.79478  0.47765  0.15830  1.0000
  H   H1883     1.0  0.84680  0.47537  0.20935  1.0000
  H   H1884     1.0  0.85044  0.14368  0.48779  1.0000
  H   H1885     1.0  0.74297  0.00096  0.48822  1.0000
  H   H1886     1.0  0.95423  0.15869  0.68236  1.0000
  H   H1887     1.0  0.92442  0.10530  0.91031  1.0000
  Fe  Fe163     1.0  0.91422  0.06043  0.80820  1.0000
  S   S324      1.0  0.90287  0.07981  0.77916  1.0000
  S   S325      1.0  0.92246  0.11129  0.82661  1.0000
  Fe  Fe164     1.0  0.89215  0.02522  0.78876  1.0000
  S   S326      1.0  0.87195  0.03587  0.79038  1.0000
  Fe  Fe165     1.0  0.91466  0.03931  0.75761  1.0000
  S   S327      1.0  0.91902  0.06232  0.72072  1.0000
  C   C2372     1.0  0.97264  0.13361  0.97418  1.0000
  S   S328      1.0  0.92673  0.02240  0.78586  1.0000
  C   C2373     1.0  0.95435  0.18992  0.67605  1.0000
  C   C2374     1.0  0.92621  0.22030  0.96047  1.0000
  S   S329      1.0  0.77893  0.34960  0.95314  1.0000
  C   C2375     1.0  0.82264  0.99510  0.64012  1.0000
  C   C2376     1.0  0.94676  0.40145  0.81457  1.0000
  Fe  Fe166     1.0  0.91551  0.37421  0.91462  1.0000
  S   S330      1.0  0.90421  0.39556  0.94515  1.0000
  S   S331      1.0  0.92968  0.40568  0.89100  1.0000
  Fe  Fe167     1.0  0.90689  0.28701  0.92035  1.0000
  S   S332      1.0  0.89546  0.30225  0.95165  1.0000
  S   S333      1.0  0.90551  0.22123  0.91021  1.0000
  Fe  Fe168     1.0  0.88974  0.35891  0.93220  1.0000
  S   S334      1.0  0.86961  0.36691  0.92971  1.0000
  Fe  Fe169     1.0  0.91049  0.33713  0.96294  1.0000
  C   C2377     1.0  0.88485  0.06136  0.51065  1.0000
  S   S335      1.0  0.90056  0.34209  0.90010  1.0000
  S   S336      1.0  0.92238  0.31750  0.93339  1.0000
  H   H1888     1.0  0.73589  0.46692  0.82325  1.0000
  H   H1889     1.0  0.81979  0.98653  0.62368  1.0000
  C   C2378     1.0  0.83731  0.06243  0.51402  1.0000
  Fe  Fe170     1.0  0.73590  0.18655  0.84895  1.0000
  S   S337      1.0  0.74890  0.13284  0.84428  1.0000
  H   H1890     1.0  0.85303  0.39705  0.89040  1.0000
  H   H1891     1.0  0.84708  0.05508  0.79062  1.0000
  C   C2379     1.0  0.74427  0.00169  0.79566  1.0000
  S   S338      1.0  0.97060  0.16735  0.62283  1.0000
  S   S339      1.0  0.96947  0.07061  0.66789  1.0000
  Fe  Fe171     1.0  0.96785  0.14328  0.58789  1.0000
  S   S340      1.0  0.95319  0.16814  0.56523  1.0000
  S   S341      1.0  0.97055  0.07801  0.59911  1.0000
  S   S342      1.0  0.80168  0.02344  0.71663  1.0000
  Fe  Fe172     1.0  0.78621  0.01858  0.74237  1.0000
  S   S343      1.0  0.77688  0.07800  0.75242  1.0000
  C   C2380     1.0  0.93905  0.10215  0.50503  1.0000
  C   C2381     1.0  0.94744  0.08301  0.51910  1.0000
  C   C2382     1.0  0.95184  0.10275  0.53751  1.0000
  C   C2383     1.0  0.94785  0.14198  0.54223  1.0000
  C   C2384     1.0  0.93949  0.16128  0.52811  1.0000
  C   C2385     1.0  0.93515  0.14160  0.50955  1.0000
  H   H1892     1.0  0.95052  0.05250  0.51586  1.0000
  H   H1893     1.0  0.95829  0.08750  0.54811  1.0000
  H   H1894     1.0  0.93638  0.19169  0.53151  1.0000
  C   C2386     1.0  0.84598  0.04965  0.52902  1.0000
  C   C2387     1.0  0.75618  0.11756  0.81825  1.0000
  C   C2388     1.0  0.75587  0.14131  0.79781  1.0000
  C   C2389     1.0  0.76220  0.12863  0.77783  1.0000
  C   C2390     1.0  0.76882  0.09196  0.77795  1.0000
  C   C2391     1.0  0.76899  0.06795  0.79828  1.0000
  C   C2392     1.0  0.76271  0.08072  0.81831  1.0000
  H   H1895     1.0  0.75089  0.16971  0.79748  1.0000
  H   H1896     1.0  0.76200  0.14748  0.76220  1.0000
  H   H1897     1.0  0.77405  0.03982  0.79848  1.0000
  H   H1898     1.0  0.76286  0.06204  0.83397  1.0000
  H   H1899     1.0  0.89211  0.14185  0.81730  1.0000
  C   C2393     1.0  0.76628  0.34085  0.93773  1.0000
  C   C2394     1.0  0.75679  0.36869  0.93661  1.0000
  C   C2395     1.0  0.74676  0.35962  0.92496  1.0000
  C   C2396     1.0  0.74615  0.32306  0.91386  1.0000
  C   C2397     1.0  0.75576  0.29563  0.91458  1.0000
  C   C2398     1.0  0.76572  0.30442  0.92655  1.0000
  H   H1900     1.0  0.75710  0.39681  0.94509  1.0000
  H   H1901     1.0  0.91587  0.04931  0.64946  1.0000
  H   H1902     1.0  0.75544  0.26737  0.90622  1.0000
  H   H1903     1.0  0.77300  0.28264  0.92729  1.0000
  C   C2399     1.0  0.83779  0.43032  0.96776  1.0000
  H   H1904     1.0  0.76281  0.01099  0.89262  1.0000
  C   C2400     1.0  0.85918  0.42311  0.95959  1.0000
  C   C2401     1.0  0.85770  0.39014  0.94611  1.0000
  C   C2402     1.0  0.84621  0.37694  0.94400  1.0000
  C   C2403     1.0  0.83635  0.39651  0.95495  1.0000
  C   C2404     1.0  0.84580  0.12776  0.73511  1.0000
  H   H1905     1.0  0.97747  0.11836  0.70314  1.0000
  H   H1906     1.0  0.93597  0.10364  0.87317  1.0000
  C   C2405     1.0  0.91676  0.14314  0.84867  1.0000
  C   C2406     1.0  0.92148  0.18152  0.85027  1.0000
  C   C2407     1.0  0.91792  0.20648  0.86850  1.0000
  C   C2408     1.0  0.90984  0.19281  0.88580  1.0000
  C   C2409     1.0  0.90519  0.15441  0.88424  1.0000
  C   C2410     1.0  0.90845  0.13000  0.86564  1.0000
  H   H1907     1.0  0.92800  0.19188  0.83740  1.0000
  H   H1908     1.0  0.92165  0.23577  0.86950  1.0000
  H   H1909     1.0  0.89915  0.14322  0.89776  1.0000
  H   H1910     1.0  0.90486  0.10041  0.86491  1.0000
  C   C2411     1.0  0.93319  0.06544  0.70663  1.0000
  C   C2412     1.0  0.93419  0.08200  0.68400  1.0000
  C   C2413     1.0  0.94522  0.08393  0.67190  1.0000
  C   C2414     1.0  0.95539  0.06945  0.68239  1.0000
  C   C2415     1.0  0.95439  0.05323  0.70511  1.0000
  C   C2416     1.0  0.94336  0.05133  0.71720  1.0000
  H   H1911     1.0  0.92639  0.09334  0.67576  1.0000
  H   H1912     1.0  0.94587  0.09646  0.65443  1.0000
  H   H1913     1.0  0.96220  0.04205  0.71340  1.0000
  H   H1914     1.0  0.94272  0.03881  0.73466  1.0000
  H   H1915     1.0  0.97718  0.14213  0.74606  1.0000
  H   H1916     1.0  0.73144  0.47342  0.90467  1.0000
  C   C2417     1.0  0.83309  0.47592  0.89530  1.0000
  H   H1917     1.0  0.78548  0.03813  0.61417  1.0000
  C   C2418     1.0  0.87962  0.08467  0.88831  1.0000
  C   C2419     1.0  0.92349  0.99024  0.65706  1.0000
  C   C2420     1.0  0.94681  0.27183  0.90835  1.0000
  C   C2421     1.0  0.91783  0.22642  0.97845  1.0000
  H   H1918     1.0  0.75752  0.01551  0.76886  1.0000
  C   C2422     1.0  0.83764  0.43707  0.89071  1.0000
  C   C2423     1.0  0.87259  0.06593  0.72946  1.0000
  H   H1919     1.0  0.89532  0.15028  0.52620  1.0000
  H   H1920     1.0  0.91385  0.10917  0.52539  1.0000
  H   H1921     1.0  0.85532  0.04931  0.72093  1.0000
  C   C2424     1.0  0.84278  0.17776  0.79422  1.0000
  H   H1922     1.0  0.83585  0.13078  0.81734  1.0000
  C   C2425     1.0  0.86048  0.19440  0.54022  1.0000
  H   H1923     1.0  0.93756  0.40125  0.81083  1.0000
  C   C2426     1.0  0.86876  0.16200  0.54055  1.0000
  S   S344      1.0  0.90324  0.98596  0.76533  1.0000
  Fe  Fe173     1.0  0.80552  0.45152  0.98190  1.0000
  H   H1924     1.0  0.92869  0.15672  0.49898  1.0000
  H   H1925     1.0  0.73394  0.38982  0.98632  1.0000
  H   H1926     1.0  0.84490  0.35155  0.93364  1.0000
  H   H1927     1.0  0.86621  0.44836  0.90251  1.0000
  C   C2427     1.0  0.84281  0.15200  0.81388  1.0000
  H   H1928     1.0  0.91344  0.24079  0.79445  1.0000
  H   H1929     1.0  0.88049  0.12568  0.56185  1.0000
  H   H1930     1.0  0.94413  0.32239  0.88432  1.0000
  C   C2428     1.0  0.87739  0.12399  0.87946  1.0000
  H   H1931     1.0  0.80241  0.01758  0.85340  1.0000
  H   H1932     1.0  0.95270  0.37164  0.90840  1.0000
  H   H1933     1.0  0.87412  0.10289  0.82363  1.0000
  C   C2429     1.0  0.84871  0.02976  0.77979  1.0000
  C   C2430     1.0  0.96622  0.42845  0.80698  1.0000
  C   C2431     1.0  0.73423  0.36877  0.78297  1.0000
  C   C2432     1.0  0.87985  0.05224  0.87392  1.0000
  C   C2433     1.0  0.95086  0.25904  0.92991  1.0000
  C   C2434     1.0  0.79904  0.44284  0.88078  1.0000
  C   C2435     1.0  0.87778  0.05908  0.85069  1.0000
  C   C2436     1.0  0.88787  0.24185  0.82739  1.0000
  C   C2437     1.0  0.94775  0.31214  0.90045  1.0000
  C   C2438     1.0  0.95126  0.17329  0.89899  1.0000
  H   H1934     1.0  0.92995  0.14939  0.94023  1.0000
  C   C2439     1.0  0.74871  0.41234  0.87104  1.0000
  C   C2440     1.0  0.83924  0.01361  0.76895  1.0000
  H   H1935     1.0  0.83576  0.17665  0.78250  1.0000
  C   C2441     1.0  0.84286  0.13093  0.69425  1.0000
  H   H1936     1.0  0.73344  0.11895  0.91141  1.0000
  C   C2442     1.0  0.88879  0.02473  0.71403  1.0000
  C   C2443     1.0  0.87564  0.09833  0.84175  1.0000
  C   C2444     1.0  0.85637  0.07079  0.52925  1.0000
  H   H1937     1.0  0.84467  0.02309  0.54028  1.0000
  C   C2445     1.0  0.80881  0.44518  0.89425  1.0000
  H   H1938     1.0  0.86790  0.43396  0.96126  1.0000
  C   C2446     1.0  0.88464  0.10160  0.51697  1.0000
  H   H1939     1.0  0.72973  0.00521  0.94882  1.0000
  C   C2447     1.0  0.89785  0.25637  0.81516  1.0000
  C   C2448     1.0  0.90560  0.22975  0.80363  1.0000
  H   H1940     1.0  0.75233  0.45465  0.89627  1.0000
  H   H1941     1.0  0.89963  0.28823  0.81483  1.0000
  H   H1942     1.0  0.88168  0.02181  0.88071  1.0000
  C   C2449     1.0  0.86083  0.20645  0.80490  1.0000
  H   H1943     1.0  0.87789  0.03395  0.83949  1.0000
  P   P81       1.0  0.94890  0.20810  0.94141  1.0000
  C   C2450     1.0  0.86398  0.20662  0.57978  1.0000
  C   C2451     1.0  0.87203  0.17381  0.58040  1.0000
  C   C2452     1.0  0.87436  0.15135  0.56091  1.0000
  H   H1944     1.0  0.86298  0.06072  0.54107  1.0000
  C   C2453     1.0  0.96221  0.15100  0.96602  1.0000
  H   H1945     1.0  0.94965  0.44231  0.86711  1.0000
  H   H1946     1.0  0.86224  0.22413  0.59484  1.0000
  H   H1947     1.0  0.87651  0.16580  0.59596  1.0000
  C   C2454     1.0  0.93810  0.21347  0.96494  1.0000
  H   H1948     1.0  0.74235  0.36997  0.84827  1.0000
  H   H1949     1.0  0.74855  0.44893  0.97242  1.0000
  C   C2455     1.0  0.84121  0.98116  0.75466  1.0000
  C   C2456     1.0  0.86094  0.18054  0.82464  1.0000
  P   P82       1.0  0.97553  0.46529  0.79204  1.0000
  H   H1950     1.0  0.78407  0.40835  0.87375  1.0000
  H   H1951     1.0  0.95828  0.27846  0.96069  1.0000
  S   S345      1.0  0.79281  0.45826  0.95338  1.0000
  H   H1952     1.0  0.88192  0.26311  0.83599  1.0000
  H   H1953     1.0  0.78808  0.02012  0.57330  1.0000
  C   C2457     1.0  0.95643  0.32766  0.93571  1.0000
  H   H1954     1.0  0.97337  0.29828  0.61357  1.0000
  C   C2458     1.0  0.86470  0.04329  0.71841  1.0000
  C   C2459     1.0  0.73999  0.39404  0.85972  1.0000
  C   C2460     1.0  0.86855  0.21520  0.86713  1.0000
  C   C2461     1.0  0.87726  0.22958  0.88042  1.0000
  C   C2462     1.0  0.87427  0.25612  0.89781  1.0000
  C   C2463     1.0  0.86255  0.26849  0.90215  1.0000
  C   C2464     1.0  0.85380  0.25408  0.88917  1.0000
  C   C2465     1.0  0.85676  0.22748  0.87172  1.0000
  H   H1955     1.0  0.85167  0.13343  0.84433  1.0000
  H   H1956     1.0  0.88640  0.22039  0.87732  1.0000
  H   H1957     1.0  0.88107  0.26719  0.90794  1.0000
  H   H1958     1.0  0.86030  0.28929  0.91560  1.0000
  H   H1959     1.0  0.84471  0.26365  0.89266  1.0000
  H   H1960     1.0  0.84985  0.21677  0.86187  1.0000
  H   H1961     1.0  0.87857  0.21729  0.50763  1.0000
  C   C2466     1.0  0.95441  0.42655  0.80148  1.0000
  C   C2467     1.0  0.78925  0.00881  0.61005  1.0000
  C   C2468     1.0  0.84957  0.42741  0.89313  1.0000
  H   H1962     1.0  0.82935  0.04563  0.51341  1.0000
  H   H1963     1.0  0.83126  0.02447  0.70021  1.0000
  H   H1964     1.0  0.93829  0.32599  0.98104  1.0000
  C   C2469     1.0  0.89518  0.11882  0.52218  1.0000
  H   H1965     1.0  0.96738  0.40608  0.76063  1.0000
  C   C2470     1.0  0.93851  0.12304  0.88634  1.0000
  C   C2471     1.0  0.84948  0.14000  0.71270  1.0000
  H   H1966     1.0  0.74576  0.02851  0.80478  1.0000
  C   C2472     1.0  0.73855  0.02893  0.86176  1.0000
  C   C2473     1.0  0.74746  0.03572  0.87648  1.0000
  C   C2474     1.0  0.93200  0.12398  0.90728  1.0000
  H   H1967     1.0  0.97377  0.22959  0.93350  1.0000
  Fe  Fe174     1.0  0.97455  0.10203  0.63317  1.0000
  H   H1968     1.0  0.89815  0.01746  0.71307  1.0000
  H   H1969     1.0  0.97238  0.10671  0.98548  1.0000
  H   H1970     1.0  0.95311  0.14697  0.86587  1.0000
  C   C2475     1.0  0.97109  0.26243  0.58449  1.0000
  C   C2476     1.0  0.79164  0.41007  0.88400  1.0000
  C   C2477     1.0  0.85177  0.20501  0.78975  1.0000
  H   H1971     1.0  0.79696  0.46660  0.86815  1.0000
  H   H1972     1.0  0.85749  0.15646  0.70964  1.0000
  C   C2478     1.0  0.84929  0.44315  0.97019  1.0000
  P   P83       1.0  0.87138  0.13284  0.51542  1.0000
  S   S346      1.0  0.90281  0.00797  0.81968  1.0000
  C   C2479     1.0  0.86027  0.01346  0.77675  1.0000
  C   C2480     1.0  0.84938  0.11745  0.49936  1.0000
  H   H1973     1.0  0.84254  0.09115  0.63939  1.0000
  C   C2481     1.0  0.89346  0.17393  0.81674  1.0000
  C   C2482     1.0  0.96266  0.27111  0.73419  1.0000
  C   C2483     1.0  0.82900  0.01709  0.68323  1.0000
  H   H1974     1.0  0.95879  0.19202  0.89560  1.0000
  C   C2484     1.0  0.95086  0.37778  0.83311  1.0000
  C   C2485     1.0  0.88463  0.05691  0.72704  1.0000
  H   H1975     1.0  0.86939  0.08952  0.74057  1.0000
  C   C2486     1.0  0.96771  0.14089  0.74582  1.0000
  H   H1976     1.0  0.85094  0.13454  0.74942  1.0000
  H   H1977     1.0  0.78241  0.03704  0.84150  1.0000
  C   C2487     1.0  0.75095  0.99440  0.77538  1.0000
  C   C2488     1.0  0.96167  0.25733  0.67719  1.0000
  C   C2489     1.0  0.95560  0.26910  0.65762  1.0000
  C   C2490     1.0  0.94880  0.24144  0.64745  1.0000
  C   C2491     1.0  0.94816  0.20189  0.65671  1.0000
  C   C2492     1.0  0.88094  0.00162  0.70297  1.0000
  S   S347      1.0  0.79034  0.99626  0.65715  1.0000
  C   C2493     1.0  0.96175  0.11409  0.76122  1.0000
  C   C2494     1.0  0.97702  0.28927  0.59703  1.0000
  C   C2495     1.0  0.97331  0.20309  0.94503  1.0000
  C   C2496     1.0  0.85824  0.10444  0.51412  1.0000
  H   H1978     1.0  0.74405  0.32558  0.97620  1.0000
  C   C2497     1.0  0.79381  0.37998  0.90098  1.0000
  C   C2498     1.0  0.73613  0.39850  0.76550  1.0000
  C   C2499     1.0  0.94951  0.11247  0.76141  1.0000
  C   C2500     1.0  0.94322  0.13766  0.74623  1.0000
  C   C2501     1.0  0.94914  0.16459  0.73088  1.0000
  H   H1979     1.0  0.85174  0.22509  0.77456  1.0000
  H   H1980     1.0  0.78792  0.35509  0.90392  1.0000
  C   C2502     1.0  0.96245  0.18638  0.95182  1.0000
  C   C2503     1.0  0.81073  0.41538  0.91164  1.0000
  C   C2504     1.0  0.75585  0.00530  0.88143  1.0000
  H   H1981     1.0  0.74145  0.39128  0.75023  1.0000
  C   C2505     1.0  0.75031  0.98176  0.52025  1.0000
  H   H1982     1.0  0.94426  0.25027  0.63207  1.0000
  H   H1983     1.0  0.94322  0.18000  0.64841  1.0000
  H   H1984     1.0  0.74804  0.06525  0.88342  1.0000
  H   H1985     1.0  0.88128  0.07945  0.90632  1.0000
  H   H1986     1.0  0.89077  0.07419  0.73572  1.0000
  H   H1987     1.0  0.91414  0.03864  0.51364  1.0000
  C   C2506     1.0  0.94815  0.14762  0.88220  1.0000
  H   H1988     1.0  0.96576  0.36072  0.85294  1.0000
  C   C2507     1.0  0.96451  0.30278  0.74837  1.0000
  H   H1989     1.0  0.85189  0.24211  0.55922  1.0000
  H   H1990     1.0  0.94487  0.09174  0.77331  1.0000
  H   H1991     1.0  0.93373  0.13597  0.74626  1.0000
  H   H1992     1.0  0.94404  0.18429  0.71962  1.0000
  C   C2508     1.0  0.87550  0.13122  0.85602  1.0000
  H   H1993     1.0  0.89560  0.00824  0.50362  1.0000
  C   C2509     1.0  0.93411  0.45688  0.88824  1.0000
  H   H1994     1.0  0.83203  0.41406  0.88544  1.0000
  H   H1995     1.0  0.86250  0.99351  0.69748  1.0000
  H   H1996     1.0  0.95100  0.44559  0.78758  1.0000
  P   P84       1.0  0.82343  0.09942  0.67460  1.0000
  C   C2510     1.0  0.82774  0.13041  0.64947  1.0000
  C   C2511     1.0  0.80812  0.11044  0.68268  1.0000
  C   C2512     1.0  0.80495  0.13649  0.70043  1.0000
  C   C2513     1.0  0.79314  0.14218  0.70779  1.0000
  C   C2514     1.0  0.78439  0.12281  0.69714  1.0000
  C   C2515     1.0  0.78742  0.09845  0.67878  1.0000
  C   C2516     1.0  0.79921  0.09255  0.67145  1.0000
  C   C2517     1.0  0.82133  0.16608  0.64372  1.0000
  C   C2518     1.0  0.82450  0.18921  0.62382  1.0000
  C   C2519     1.0  0.83410  0.17697  0.60957  1.0000
  C   C2520     1.0  0.84061  0.14174  0.61531  1.0000
  C   C2521     1.0  0.83747  0.11856  0.63522  1.0000
  C   C2522     1.0  0.83250  0.10932  0.69809  1.0000
  S   S348      1.0  0.79646  0.03576  0.50059  1.0000
  C   C2523     1.0  0.93507  0.14962  0.92409  1.0000
  H   H1997     1.0  0.84584  0.14106  0.67711  1.0000
  C   C2524     1.0  0.83557  0.10607  0.73906  1.0000
  C   C2525     1.0  0.82901  0.09653  0.72066  1.0000
  H   H1998     1.0  0.87698  0.04789  0.50548  1.0000
  C   C2526     1.0  0.95558  0.28735  0.94361  1.0000
  C   C2527     1.0  0.85817  0.21679  0.55972  1.0000
  H   H1999     1.0  0.82765  0.38552  0.95338  1.0000
  H   H2000     1.0  0.81154  0.15176  0.70901  1.0000
  H   H2001     1.0  0.79073  0.16056  0.72226  1.0000
  H   H2002     1.0  0.77530  0.12596  0.70349  1.0000
  H   H2003     1.0  0.78067  0.08283  0.67072  1.0000
  H   H2004     1.0  0.80128  0.07288  0.65752  1.0000
  H   H2005     1.0  0.81380  0.17587  0.65443  1.0000
  H   H2006     1.0  0.81942  0.21641  0.61932  1.0000
  H   H2007     1.0  0.83643  0.19461  0.59398  1.0000
  C   C2528     1.0  0.97186  0.24335  0.72869  1.0000
  H   H2008     1.0  0.74016  0.06890  0.94115  1.0000
  H   H2009     1.0  0.73944  0.38115  0.92457  1.0000
  H   H2010     1.0  0.86772  0.22774  0.80116  1.0000
  H   H2011     1.0  0.84800  0.13212  0.60418  1.0000
  H   H2012     1.0  0.83273  0.09642  0.75640  1.0000
  H   H2013     1.0  0.82113  0.07948  0.72411  1.0000
  C   C2529     1.0  0.80331  0.38273  0.91487  1.0000
  S   S349      1.0  0.73783  0.25359  0.84174  1.0000
  H   H2014     1.0  0.92342  0.22164  0.94302  1.0000
  H   H2015     1.0  0.81773  0.41811  0.92318  1.0000
  C   C2530     1.0  0.89544  0.03867  0.50958  1.0000
  C   C2531     1.0  0.90587  0.05585  0.51505  1.0000
  C   C2532     1.0  0.90571  0.09579  0.52155  1.0000
  C   C2533     1.0  0.82519  0.04709  0.66722  1.0000
  C   C2534     1.0  0.96266  0.37872  0.83836  1.0000
  H   H2016     1.0  0.90942  0.16790  0.79553  1.0000
  C   C2535     1.0  0.97033  0.40396  0.82537  1.0000
  H   H2017     1.0  0.83042  0.02627  0.77161  1.0000
  H   H2018     1.0  0.85584  0.20234  0.52482  1.0000
  C   C2536     1.0  0.90333  0.18868  0.80421  1.0000
  H   H2019     1.0  0.94480  0.35946  0.84372  1.0000
  H   H2020     1.0  0.95972  0.34958  0.94669  1.0000
  C   C2537     1.0  0.74559  0.44149  0.88692  1.0000
  H   H2021     1.0  0.75783  0.40272  0.86816  1.0000
  C   C2538     1.0  0.94460  0.17511  0.91989  1.0000
  H   H2022     1.0  0.87732  0.14852  0.89097  1.0000
  P   P85       1.0  0.87265  0.18186  0.84420  1.0000
  H   H2023     1.0  0.95632  0.29947  0.65013  1.0000
  C   C2539     1.0  0.85181  0.15350  0.82911  1.0000
  C   C2540     1.0  0.95253  0.34005  0.91414  1.0000
  H   H2024     1.0  0.75014  0.01205  0.52644  1.0000
  H   H2025     1.0  0.81878  0.05793  0.63307  1.0000
  H   H2026     1.0  0.94239  0.25144  0.89809  1.0000
  Fe  Fe175     1.0  0.78366  0.40562  0.97162  1.0000
  C   C2541     1.0  0.82205  0.03567  0.64556  1.0000
  C   C2542     1.0  0.88572  0.20033  0.82872  1.0000
  H   H2027     1.0  0.80464  0.36027  0.92870  1.0000
  C   C2543     1.0  0.73107  0.43730  0.76767  1.0000
  C   C2544     1.0  0.85704  0.45643  0.89996  1.0000
  H   H2028     1.0  0.95008  0.00117  0.80770  1.0000
  C   C2545     1.0  0.96088  0.21782  0.68680  1.0000
  S   S350      1.0  0.73312  0.31288  0.89989  1.0000
  H   H2029     1.0  0.81903  0.45750  0.84607  1.0000
  C   C2546     1.0  0.94444  0.46629  0.87496  1.0000
  C   C2547     1.0  0.79072  0.99868  0.58676  1.0000
  H   H2030     1.0  0.96716  0.27878  0.68445  1.0000
  H   H2031     1.0  0.85056  0.46913  0.98011  1.0000
  C   C2548     1.0  0.83899  0.09642  0.49931  1.0000
  H   H2032     1.0  0.93227  0.99842  0.65090  1.0000
  C   C2549     1.0  0.96147  0.16590  0.73026  1.0000
  H   H2033     1.0  0.95737  0.32407  0.75259  1.0000
  H   H2034     1.0  0.73272  0.45997  0.75404  1.0000
  C   C2550     1.0  0.97654  0.19560  0.51393  1.0000
  C   C2551     1.0  0.91423  0.01896  0.65627  1.0000
  H   H2035     1.0  0.90869  0.23212  0.97480  1.0000
  C   C2552     1.0  0.79680  0.99482  0.84771  1.0000
  H   H2036     1.0  0.96307  0.15758  0.50359  1.0000
  C   C2553     1.0  0.73797  0.99145  0.85172  1.0000
  S   S351      1.0  0.82563  0.45816  0.98070  1.0000
  P   P86       1.0  0.96921  0.20170  0.71117  1.0000
  H   H2037     1.0  0.89597  0.03194  0.66454  1.0000
  H   H2038     1.0  0.95394  0.13714  0.97098  1.0000
  H   H2039     1.0  0.95405  0.26802  0.72763  1.0000
  C   C2554     1.0  0.97525  0.41939  0.75296  1.0000
  C   C2555     1.0  0.86884  0.01123  0.70521  1.0000
  H   H2040     1.0  0.97552  0.38338  0.72309  1.0000
  C   C2556     1.0  0.96743  0.18590  0.50034  1.0000
  H   H2041     1.0  0.96279  0.25056  0.59120  1.0000
  H   H2042     1.0  0.96660  0.09460  0.77304  1.0000
  C   C2557     1.0  0.73270  0.06270  0.93135  1.0000
  C   C2558     1.0  0.90296  0.00894  0.66483  1.0000
  H   H2043     1.0  0.97696  0.33119  0.76831  1.0000
  H   H2044     1.0  0.76972  0.98546  0.82719  1.0000
  H   H2045     1.0  0.73249  0.05382  0.85772  1.0000
  C   C2559     1.0  0.78551  0.00581  0.84095  1.0000
  C   C2560     1.0  0.74100  0.46967  0.97281  1.0000
  H   H2046     1.0  0.73793  0.33841  0.78122  1.0000
  C   C2561     1.0  0.79255  0.98146  0.62803  1.0000
  C   C2562     1.0  0.73374  0.45218  0.89157  1.0000
  C   C2563     1.0  0.97552  0.30676  0.75727  1.0000
  H   H2047     1.0  0.97127  0.22867  0.55436  1.0000
  C   C2564     1.0  0.97600  0.24985  0.56347  1.0000
  C   C2565     1.0  0.86216  0.98033  0.76295  1.0000
  H   H2048     1.0  0.97893  0.17475  0.52792  1.0000
  Fe  Fe176     1.0  0.79269  0.97939  0.69577  1.0000
  H   H2049     1.0  0.88602  0.97936  0.63755  1.0000
  C   C2566     1.0  0.87737  0.20476  0.49122  1.0000
  C   C2567     1.0  0.87372  0.16502  0.48989  1.0000
  C   C2568     1.0  0.97859  0.25909  0.49201  1.0000
  C   C2569     1.0  0.94156  0.21462  0.98763  1.0000
  H   H2050     1.0  0.97771  0.07093  0.48984  1.0000
  Fe  Fe177     1.0  0.73742  0.69589  0.35287  1.0000
  C   C2570     1.0  0.90582  0.47976  0.06195  1.0000
  S   S352      1.0  0.75178  0.64758  0.34335  1.0000
  C   C2571     1.0  0.92994  0.80217  0.36147  1.0000
  S   S353      1.0  0.74051  0.81643  0.40881  1.0000
  S   S354      1.0  0.73765  0.76378  0.34758  1.0000
  C   C2572     1.0  0.78912  0.63748  0.43771  1.0000
  P   P87       1.0  0.96502  0.85887  0.25858  1.0000
  C   C2573     1.0  0.92273  0.83969  0.40227  1.0000
  C   C2574     1.0  0.92949  0.80336  0.40292  1.0000
  S   S355      1.0  0.80164  0.51219  0.21707  1.0000
  H   H2051     1.0  0.76538  0.58527  0.45903  1.0000
  Fe  Fe178     1.0  0.78580  0.51211  0.24228  1.0000
  S   S356      1.0  0.77570  0.57104  0.25227  1.0000
  C   C2575     1.0  0.95136  0.48664  0.21087  1.0000
  C   C2576     1.0  0.96794  0.78727  0.99094  1.0000
  S   S357      1.0  0.93513  0.52324  0.31270  1.0000
  Fe  Fe179     1.0  0.79037  0.94073  0.46651  1.0000
  S   S358      1.0  0.78755  0.88646  0.44469  1.0000
  C   C2577     1.0  0.93300  0.78466  0.38262  1.0000
  H   H2052     1.0  0.93813  0.75645  0.38321  1.0000
  S   S359      1.0  0.91066  0.48781  0.26992  1.0000
  C   C2578     1.0  0.96179  0.80816  0.26909  1.0000
  Fe  Fe180     1.0  0.96836  0.82275  0.36862  1.0000
  S   S360      1.0  0.96448  0.76443  0.38854  1.0000
  S   S361      1.0  0.96464  0.88368  0.38479  1.0000
  Fe  Fe181     1.0  0.96230  0.73738  0.35406  1.0000
  S   S362      1.0  0.94615  0.70045  0.34640  1.0000
  S   S363      1.0  0.96484  0.79760  0.33455  1.0000
  C   C2579     1.0  0.77205  0.83480  0.34447  1.0000
  H   H2053     1.0  0.81741  0.50815  0.02327  1.0000
  C   C2580     1.0  0.94370  0.91509  0.36766  1.0000
  C   C2581     1.0  0.95246  0.91840  0.38321  1.0000
  C   C2582     1.0  0.95185  0.95119  0.39761  1.0000
  C   C2583     1.0  0.87058  0.48658  0.19968  1.0000
  C   C2584     1.0  0.73371  0.55170  0.33387  1.0000
  H   H2054     1.0  0.94414  0.89019  0.35636  1.0000
  H   H2055     1.0  0.96835  0.52018  0.26119  1.0000
  C   C2585     1.0  0.94844  0.76150  0.28943  1.0000
  C   C2586     1.0  0.73446  0.60688  0.44692  1.0000
  C   C2587     1.0  0.93795  0.57303  0.32174  1.0000
  C   C2588     1.0  0.94963  0.58330  0.32507  1.0000
  C   C2589     1.0  0.95234  0.62186  0.33241  1.0000
  C   C2590     1.0  0.94338  0.65107  0.33670  1.0000
  C   C2591     1.0  0.93171  0.64091  0.33322  1.0000
  C   C2592     1.0  0.92901  0.60242  0.32579  1.0000
  H   H2056     1.0  0.95666  0.56109  0.32207  1.0000
  H   H2057     1.0  0.96135  0.62880  0.33495  1.0000
  H   H2058     1.0  0.92466  0.66295  0.33641  1.0000
  H   H2059     1.0  0.91999  0.59538  0.32338  1.0000
  H   H2060     1.0  0.79187  0.49152  0.33549  1.0000
  H   H2061     1.0  0.78142  0.50260  0.40645  1.0000
  H   H2062     1.0  0.81974  0.55942  0.05202  1.0000
  Fe  Fe182     1.0  0.92109  0.47954  0.30165  1.0000
  H   H2063     1.0  0.76755  0.55653  0.02147  1.0000
  H   H2064     1.0  0.77261  0.49718  0.30024  1.0000
  H   H2065     1.0  0.74344  0.83214  0.18290  1.0000
  H   H2066     1.0  0.93279  0.78754  0.34582  1.0000
  H   H2067     1.0  0.93080  0.93026  0.20031  1.0000
  H   H2068     1.0  0.97344  0.81058  0.22029  1.0000
  S   S364      1.0  0.79470  0.49439  0.00431  1.0000
  C   C2593     1.0  0.75377  0.83507  0.41866  1.0000
  C   C2594     1.0  0.75304  0.86810  0.43300  1.0000
  C   C2595     1.0  0.76325  0.88412  0.44116  1.0000
  C   C2596     1.0  0.77435  0.86749  0.43501  1.0000
  C   C2597     1.0  0.77509  0.83448  0.42073  1.0000
  C   C2598     1.0  0.76490  0.81835  0.41265  1.0000
  H   H2069     1.0  0.74451  0.88158  0.43767  1.0000
  H   H2070     1.0  0.76258  0.90956  0.45205  1.0000
  H   H2071     1.0  0.78363  0.82137  0.41579  1.0000
  H   H2072     1.0  0.76571  0.79338  0.40152  1.0000
  C   C2599     1.0  0.75820  0.62677  0.31769  1.0000
  C   C2600     1.0  0.75382  0.63578  0.29604  1.0000
  C   C2601     1.0  0.75920  0.61809  0.27636  1.0000
  C   C2602     1.0  0.76891  0.59068  0.27798  1.0000
  C   C2603     1.0  0.77328  0.58173  0.29966  1.0000
  C   C2604     1.0  0.76799  0.59973  0.31927  1.0000
  H   H2073     1.0  0.74635  0.65657  0.29437  1.0000
  H   H2074     1.0  0.75582  0.62580  0.25969  1.0000
  H   H2075     1.0  0.78099  0.56201  0.30117  1.0000
  H   H2076     1.0  0.77169  0.59323  0.33573  1.0000
  C   C2605     1.0  0.73578  0.96879  0.41085  1.0000
  C   C2606     1.0  0.97062  0.77751  0.26891  1.0000
  C   C2607     1.0  0.73129  0.51257  0.34231  1.0000
  H   H2077     1.0  0.75263  0.88893  0.37788  1.0000
  H   H2078     1.0  0.78128  0.70952  0.45398  1.0000
  H   H2079     1.0  0.80060  0.50881  0.11213  1.0000
  C   C2608     1.0  0.73503  0.84837  0.18445  1.0000
  H   H2080     1.0  0.75774  0.80493  0.47622  1.0000
  C   C2609     1.0  0.82160  0.52780  0.05638  1.0000
  C   C2610     1.0  0.76845  0.91260  0.36090  1.0000
  H   H2081     1.0  0.78497  0.92547  0.34226  1.0000
  C   C2611     1.0  0.79799  0.61296  0.44734  1.0000
  C   C2612     1.0  0.77044  0.75824  0.46669  1.0000
  H   H2082     1.0  0.80712  0.62050  0.44410  1.0000
  H   H2083     1.0  0.73622  0.58531  0.39053  1.0000
  H   H2084     1.0  0.81713  0.51849  0.17223  1.0000
  P   P88       1.0  0.76596  0.96369  0.36980  1.0000
  H   H2085     1.0  0.79154  0.66382  0.42701  1.0000
  C   C2613     1.0  0.76285  0.50758  0.35257  1.0000
  H   H2086     1.0  0.94889  0.91602  0.28312  1.0000
  C   C2614     1.0  0.96833  0.73914  0.27873  1.0000
  C   C2615     1.0  0.75891  0.48474  0.27818  1.0000
  C   C2616     1.0  0.76583  0.71000  0.38939  1.0000
  C   C2617     1.0  0.88594  0.95115  0.42076  1.0000
  H   H2087     1.0  0.94556  0.82497  0.23509  1.0000
  H   H2088     1.0  0.93358  0.52842  0.26357  1.0000
  Fe  Fe183     1.0  0.73423  0.76784  0.38573  1.0000
  C   C2618     1.0  0.73100  0.87661  0.35706  1.0000
  H   H2089     1.0  0.76759  0.56060  0.39940  1.0000
  H   H2090     1.0  0.79544  0.85360  0.48596  1.0000
  C   C2619     1.0  0.91676  0.82596  0.47296  1.0000
  C   C2620     1.0  0.74995  0.75886  0.45794  1.0000
  C   C2621     1.0  0.78140  0.66053  0.36381  1.0000
  S   S365      1.0  0.80671  0.94559  0.48648  1.0000
  H   H2091     1.0  0.76137  0.48667  0.08461  1.0000
  C   C2622     1.0  0.94154  0.51246  0.20771  1.0000
  C   C2623     1.0  0.77442  0.59349  0.45561  1.0000
  C   C2624     1.0  0.93853  0.51677  0.24882  1.0000
  H   H2092     1.0  0.74262  0.90573  0.18882  1.0000
  C   C2625     1.0  0.76319  0.70439  0.44500  1.0000
  H   H2093     1.0  0.94367  0.84969  0.42654  1.0000
  H   H2094     1.0  0.74134  0.77391  0.45811  1.0000
  H   H2095     1.0  0.77342  0.80484  0.33805  1.0000
  C   C2626     1.0  0.78759  0.95760  0.38952  1.0000
  C   C2627     1.0  0.97594  0.87904  0.29750  1.0000
  C   C2628     1.0  0.92726  0.92566  0.45122  1.0000
  C   C2629     1.0  0.78331  0.56906  0.46524  1.0000
  H   H2096     1.0  0.87859  0.97276  0.41956  1.0000
  H   H2097     1.0  0.91704  0.51616  0.16162  1.0000
  H   H2098     1.0  0.74197  0.48555  0.38198  1.0000
  C   C2630     1.0  0.91424  0.82283  0.44987  1.0000
  C   C2631     1.0  0.94798  0.93188  0.45687  1.0000
  C   C2632     1.0  0.95049  0.89669  0.44508  1.0000
  C   C2633     1.0  0.97719  0.50794  0.25835  1.0000
  H   H2099     1.0  0.77194  0.54062  0.06223  1.0000
  C   C2634     1.0  0.73879  0.59598  0.40667  1.0000
  H   H2100     1.0  0.95868  0.95441  0.40943  1.0000
  C   C2635     1.0  0.76030  0.88275  0.36676  1.0000
  C   C2636     1.0  0.90814  0.76123  0.48255  1.0000
  H   H2101     1.0  0.97531  0.71605  0.27916  1.0000
  C   C2637     1.0  0.73456  0.88981  0.18781  1.0000
  C   C2638     1.0  0.90838  0.78902  0.44340  1.0000
  H   H2102     1.0  0.95031  0.94930  0.31968  1.0000
  C   C2639     1.0  0.77664  0.69601  0.35365  1.0000
  H   H2103     1.0  0.86500  0.50829  0.19058  1.0000
  C   C2640     1.0  0.75590  0.96672  0.39471  1.0000
  C   C2641     1.0  0.73134  0.59153  0.42634  1.0000
  C   C2642     1.0  0.93370  0.97671  0.38137  1.0000
  H   H2104     1.0  0.80198  0.55983  0.46859  1.0000
  C   C2643     1.0  0.75924  0.49418  0.06701  1.0000
  C   C2644     1.0  0.94842  0.79911  0.00835  1.0000
  C   C2645     1.0  0.74385  0.96178  0.39246  1.0000
  C   C2646     1.0  0.93722  0.91658  0.21159  1.0000
  H   H2105     1.0  0.85535  0.52389  0.28445  1.0000
  H   H2106     1.0  0.96793  0.93732  0.34239  1.0000
  H   H2107     1.0  0.92091  0.85199  0.34420  1.0000
  H   H2108     1.0  0.90615  0.78641  0.42575  1.0000
  H   H2109     1.0  0.92781  0.94216  0.35417  1.0000
  C   C2647     1.0  0.93516  0.52769  0.22669  1.0000
  P   P89       1.0  0.91786  0.86270  0.42879  1.0000
  H   H2110     1.0  0.93872  0.51997  0.19059  1.0000
  C   C2648     1.0  0.96751  0.92366  0.32600  1.0000
  C   C2649     1.0  0.82015  0.49893  0.04027  1.0000
  C   C2650     1.0  0.93447  0.94454  0.36649  1.0000
  H   H2111     1.0  0.77768  0.77273  0.47387  1.0000
  C   C2651     1.0  0.95391  0.92260  0.23496  1.0000
  H   H2112     1.0  0.75570  0.56394  0.36482  1.0000
  H   H2113     1.0  0.73518  0.84791  0.36188  1.0000
  H   H2114     1.0  0.78176  0.62125  0.39396  1.0000
  H   H2115     1.0  0.74472  0.71127  0.43777  1.0000
  C   C2652     1.0  0.96030  0.80832  0.00603  1.0000
  C   C2653     1.0  0.90656  0.93391  0.41330  1.0000
  C   C2654     1.0  0.75194  0.72323  0.44631  1.0000
  C   C2655     1.0  0.76165  0.53829  0.36816  1.0000
  H   H2116     1.0  0.87587  0.90640  0.44011  1.0000
  C   C2656     1.0  0.93721  0.87509  0.21708  1.0000
  H   H2117     1.0  0.75460  0.62090  0.39171  1.0000
  H   H2118     1.0  0.89133  0.48386  0.23943  1.0000
  H   H2119     1.0  0.75578  0.82109  0.36324  1.0000
  C   C2657     1.0  0.94142  0.87626  0.43605  1.0000
  C   C2658     1.0  0.77725  0.62795  0.44175  1.0000
  H   H2120     1.0  0.91511  0.94246  0.40622  1.0000
  H   H2121     1.0  0.75942  0.72865  0.39871  1.0000
  H   H2122     1.0  0.90103  0.73202  0.45450  1.0000
  H   H2123     1.0  0.80423  0.95231  0.40531  1.0000
  C   C2659     1.0  0.94416  0.76888  0.99553  1.0000
  H   H2124     1.0  0.97315  0.96702  0.20304  1.0000
  C   C2660     1.0  0.94552  0.85730  0.23156  1.0000
  H   H2125     1.0  0.76466  0.74694  0.35827  1.0000
  H   H2126     1.0  0.78713  0.64085  0.35359  1.0000
  C   C2661     1.0  0.82555  0.51586  0.07799  1.0000
  C   C2662     1.0  0.77834  0.64964  0.38674  1.0000
  C   C2663     1.0  0.90517  0.89632  0.42499  1.0000
  H   H2127     1.0  0.91447  0.88494  0.37973  1.0000
  C   C2664     1.0  0.76208  0.84407  0.35845  1.0000
  H   H2128     1.0  0.77861  0.70349  0.33560  1.0000
  C   C2665     1.0  0.79509  0.57877  0.46111  1.0000
  C   C2666     1.0  0.90542  0.75824  0.45967  1.0000
  C   C2667     1.0  0.89400  0.88631  0.43449  1.0000
  H   H2129     1.0  0.95952  0.88587  0.44220  1.0000
  C   C2668     1.0  0.74502  0.62683  0.44782  1.0000
  H   H2130     1.0  0.93999  0.75532  0.29809  1.0000
  C   C2669     1.0  0.91961  0.85697  0.38091  1.0000
  H   H2131     1.0  0.78495  0.92809  0.39632  1.0000
  H   H2132     1.0  0.76055  0.51068  0.26667  1.0000
  C   C2670     1.0  0.78031  0.86417  0.33886  1.0000
  C   C2671     1.0  0.95072  0.80005  0.27974  1.0000
  C   C2672     1.0  0.82561  0.50257  0.17255  1.0000
  S   S366      1.0  0.73531  0.70061  0.39130  1.0000
  C   C2673     1.0  0.87819  0.50043  0.21530  1.0000
  C   C2674     1.0  0.93637  0.94644  0.45986  1.0000
  C   C2675     1.0  0.95724  0.73106  0.28889  1.0000
  C   C2676     1.0  0.96614  0.88626  0.28423  1.0000
  S   S367      1.0  0.87746  0.47976  0.28748  1.0000
  C   C2677     1.0  0.76836  0.53653  0.38754  1.0000
  H   H2133     1.0  0.87819  0.53220  0.21873  1.0000
  H   H2134     1.0  0.74722  0.63911  0.46381  1.0000
  P   P90       1.0  0.76585  0.65941  0.42884  1.0000
  H   H2135     1.0  0.74067  0.55678  0.32072  1.0000
  H   H2136     1.0  0.96053  0.94106  0.24134  1.0000
  C   C2678     1.0  0.92972  0.89056  0.43902  1.0000
  H   H2137     1.0  0.96360  0.83183  0.01591  1.0000
  H   H2138     1.0  0.74382  0.93179  0.47341  1.0000
  H   H2139     1.0  0.78810  0.85692  0.32815  1.0000
  C   C2679     1.0  0.85438  0.49568  0.27637  1.0000
  C   C2680     1.0  0.77069  0.67478  0.39985  1.0000
  H   H2140     1.0  0.90018  0.50673  0.06264  1.0000
  C   C2681     1.0  0.89698  0.96109  0.41108  1.0000
  C   C2682     1.0  0.76280  0.53337  0.03144  1.0000
  C   C2683     1.0  0.76882  0.72060  0.36642  1.0000
  H   H2141     1.0  0.83624  0.50941  0.26843  1.0000
  H   H2142     1.0  0.93081  0.85659  0.20995  1.0000
  H   H2143     1.0  0.95556  0.70156  0.29698  1.0000
  C   C2684     1.0  0.95684  0.91159  0.29237  1.0000
  H   H2144     1.0  0.75776  0.51006  0.33746  1.0000
  C   C2685     1.0  0.75920  0.77645  0.46805  1.0000
  C   C2686     1.0  0.75248  0.63190  0.42802  1.0000
  H   H2145     1.0  0.82676  0.53827  0.09043  1.0000
  H   H2146     1.0  0.95505  0.94818  0.46339  1.0000
  C   C2687     1.0  0.88444  0.91375  0.43242  1.0000
  C   C2688     1.0  0.92324  0.83831  0.36061  1.0000
  H   H2147     1.0  0.89263  0.85777  0.44380  1.0000
  C   C2689     1.0  0.75975  0.97850  0.41572  1.0000
  C   C2690     1.0  0.77853  0.90292  0.34701  1.0000
  C   C2691     1.0  0.95375  0.88117  0.24104  1.0000
  C   C2692     1.0  0.76524  0.52452  0.05436  1.0000
  C   C2693     1.0  0.94815  0.49020  0.25208  1.0000
  H   H2148     1.0  0.93206  0.78934  0.41910  1.0000
  H   H2149     1.0  0.75299  0.51846  0.00310  1.0000
  C   C2694     1.0  0.95758  0.93042  0.31314  1.0000
  H   H2150     1.0  0.97713  0.59704  0.48453  1.0000
  C   C2695     1.0  0.77244  0.72237  0.45524  1.0000
  H   H2151     1.0  0.78107  0.54257  0.47596  1.0000
  C   C2696     1.0  0.97665  0.89780  0.31825  1.0000
  H   H2152     1.0  0.94395  0.82370  0.28107  1.0000
  H   H2153     1.0  0.92107  0.85205  0.47847  1.0000
  C   C2697     1.0  0.74928  0.61621  0.40746  1.0000
  H   H2154     1.0  0.92747  0.54728  0.22435  1.0000
  C   C2698     1.0  0.79855  0.97121  0.39462  1.0000
  H   H2155     1.0  0.73649  0.48740  0.33556  1.0000
  C   C2699     1.0  0.75447  0.51151  0.02104  1.0000
  C   C2700     1.0  0.84349  0.48752  0.26729  1.0000
  C   C2701     1.0  0.97826  0.86016  0.24017  1.0000
  H   H2156     1.0  0.97472  0.90738  0.17951  1.0000
  H   H2157     1.0  0.97194  0.65087  0.45540  1.0000
  H   H2158     1.0  0.82817  0.51433  0.20785  1.0000
  H   H2159     1.0  0.94250  0.81547  0.02003  1.0000
  H   H2160     1.0  0.91832  0.93716  0.45411  1.0000
  C   C2702     1.0  0.94562  0.94030  0.22043  1.0000
  H   H2161     1.0  0.76493  0.95325  0.31987  1.0000
  H   H2162     1.0  0.73033  0.94592  0.31258  1.0000
  H   H2163     1.0  0.74071  0.95336  0.37629  1.0000
  C   C2703     1.0  0.77617  0.50383  0.39151  1.0000
  H   H2164     1.0  0.74022  0.88160  0.32401  1.0000
  C   C2704     1.0  0.83182  0.50033  0.19254  1.0000
  H   H2165     1.0  0.82503  0.48407  0.13807  1.0000
  C   C2705     1.0  0.73380  0.89569  0.33572  1.0000
  H   H2166     1.0  0.93494  0.76186  0.99723  1.0000
  C   C2706     1.0  0.79522  0.48305  0.11058  1.0000
  H   H2167     1.0  0.92557  0.49133  0.12487  1.0000
  H   H2168     1.0  0.79603  0.48805  0.07328  1.0000
  H   H2169     1.0  0.93443  0.97405  0.46876  1.0000
  C   C2707     1.0  0.91607  0.48502  0.15756  1.0000
  H   H2170     1.0  0.81236  0.48703  0.31973  1.0000
  C   C2708     1.0  0.74860  0.48022  0.03347  1.0000
  C   C2709     1.0  0.97770  0.65704  0.46889  1.0000
  C   C2710     1.0  0.83014  0.48314  0.15318  1.0000
  H   H2171     1.0  0.91065  0.48257  0.09665  1.0000
  H   H2172     1.0  0.95041  0.48136  0.26946  1.0000
  H   H2173     1.0  0.94575  0.97234  0.21589  1.0000
  H   H2174     1.0  0.97711  0.79500  0.98919  1.0000
  H   H2175     1.0  0.87091  0.96715  0.76069  1.0000
  C   C2711     1.0  0.92143  0.95122  0.66610  1.0000
  S   S368      1.0  0.74194  0.81864  0.83538  1.0000
  H   H2176     1.0  0.74126  0.70137  0.70737  1.0000
  C   C2712     1.0  0.79249  0.85157  0.50390  1.0000
  C   C2713     1.0  0.96587  0.60984  0.96287  1.0000
  S   S369      1.0  0.91921  0.90278  0.79998  1.0000
  H   H2177     1.0  0.75808  0.95540  0.55007  1.0000
  Fe  Fe184     1.0  0.96012  0.62491  0.85832  1.0000
  S   S370      1.0  0.96570  0.67958  0.87612  1.0000
  S   S371      1.0  0.94520  0.58974  0.87727  1.0000
  Fe  Fe185     1.0  0.96484  0.71373  0.84177  1.0000
  S   S372      1.0  0.95999  0.78216  0.83862  1.0000
  C   C2714     1.0  0.77004  0.78136  0.84822  1.0000
  S   S373      1.0  0.95806  0.66059  0.82459  1.0000
  C   C2715     1.0  0.94154  0.94456  0.72743  1.0000
  H   H2178     1.0  0.77461  0.86793  0.49717  1.0000
  S   S374      1.0  0.77175  0.55752  0.96833  1.0000
  C   C2716     1.0  0.97521  0.79232  0.73419  1.0000
  C   C2717     1.0  0.85265  0.49543  0.90397  1.0000
  Fe  Fe186     1.0  0.91463  0.97110  0.79542  1.0000
  C   C2718     1.0  0.80060  0.84175  0.52050  1.0000
  Fe  Fe187     1.0  0.78601  0.92720  0.74009  1.0000
  C   C2719     1.0  0.97085  0.91185  0.78942  1.0000
  S   S375      1.0  0.77697  0.86729  0.74966  1.0000
  H   H2179     1.0  0.97633  0.64848  0.98103  1.0000
  H   H2180     1.0  0.82282  0.89663  0.81995  1.0000
  C   C2720     1.0  0.97204  0.92914  0.81048  1.0000
  C   C2721     1.0  0.81687  0.52275  0.93482  1.0000
  C   C2722     1.0  0.74665  0.96147  0.85635  1.0000
  S   S376      1.0  0.80147  0.92597  0.71399  1.0000
  S   S377      1.0  0.73235  0.69730  0.84032  1.0000
  H   H2181     1.0  0.77208  0.93565  0.61133  1.0000
  H   H2182     1.0  0.75568  0.64492  0.79499  1.0000
  H   H2183     1.0  0.80320  0.83209  0.55658  1.0000
  H   H2184     1.0  0.92865  0.92908  0.66687  1.0000
  H   H2185     1.0  0.94830  0.72458  0.97059  1.0000
  C   C2723     1.0  0.81685  0.55572  0.86080  1.0000
  C   C2724     1.0  0.91377  0.79513  0.48920  1.0000
  P   P91       1.0  0.96066  0.90457  0.74747  1.0000
  H   H2186     1.0  0.79994  0.92213  0.63574  1.0000
  C   C2725     1.0  0.94138  0.53806  0.88146  1.0000
  C   C2726     1.0  0.93112  0.52859  0.89491  1.0000
  C   C2727     1.0  0.81828  0.88594  0.80575  1.0000
  C   C2728     1.0  0.95863  0.52295  0.80623  1.0000
  P   P92       1.0  0.76159  0.86789  0.54217  1.0000
  C   C2729     1.0  0.95336  0.58395  0.78421  1.0000
  H   H2187     1.0  0.92585  0.55265  0.90258  1.0000
  C   C2730     1.0  0.96514  0.78730  0.77171  1.0000
  H   H2188     1.0  0.95613  0.51318  0.86179  1.0000
  C   C2731     1.0  0.93071  0.86999  0.81084  1.0000
  C   C2732     1.0  0.93020  0.82806  0.80829  1.0000
  C   C2733     1.0  0.93896  0.80073  0.81676  1.0000
  C   C2734     1.0  0.94842  0.81489  0.82799  1.0000
  C   C2735     1.0  0.94897  0.85685  0.83042  1.0000
  C   C2736     1.0  0.94021  0.88416  0.82194  1.0000
  H   H2189     1.0  0.92292  0.81655  0.79981  1.0000
  H   H2190     1.0  0.93837  0.76869  0.81464  1.0000
  H   H2191     1.0  0.95623  0.86834  0.83900  1.0000
  H   H2192     1.0  0.94073  0.91612  0.82425  1.0000
  C   C2737     1.0  0.76631  0.91438  0.60457  1.0000
  C   C2738     1.0  0.92970  0.95006  0.72259  1.0000
  H   H2193     1.0  0.87153  0.96766  0.60902  1.0000
  C   C2739     1.0  0.79371  0.92523  0.83919  1.0000
  H   H2194     1.0  0.83333  0.79955  0.86961  1.0000
  C   C2740     1.0  0.74659  0.60883  0.91321  1.0000
  C   C2741     1.0  0.75009  0.63272  0.93052  1.0000
  C   C2742     1.0  0.75777  0.61646  0.94711  1.0000
  C   C2743     1.0  0.76219  0.57625  0.94661  1.0000
  C   C2744     1.0  0.75890  0.55261  0.92899  1.0000
  C   C2745     1.0  0.75107  0.56864  0.91260  1.0000
  H   H2195     1.0  0.74674  0.66356  0.93137  1.0000
  H   H2196     1.0  0.76026  0.63519  0.96055  1.0000
  H   H2197     1.0  0.76233  0.52185  0.92816  1.0000
  C   C2746     1.0  0.79577  0.56610  0.92789  1.0000
  C   C2747     1.0  0.75177  0.83092  0.81142  1.0000
  C   C2748     1.0  0.75524  0.80330  0.79484  1.0000
  C   C2749     1.0  0.76301  0.81479  0.77613  1.0000
  C   C2750     1.0  0.76740  0.85398  0.77378  1.0000
  C   C2751     1.0  0.76410  0.88128  0.79057  1.0000
  C   C2752     1.0  0.75636  0.86975  0.80922  1.0000
  H   H2198     1.0  0.75202  0.77309  0.79662  1.0000
  H   H2199     1.0  0.76565  0.79326  0.76339  1.0000
  H   H2200     1.0  0.76739  0.91150  0.78900  1.0000
  H   H2201     1.0  0.75385  0.89126  0.82191  1.0000
  C   C2753     1.0  0.78506  0.84675  0.55026  1.0000
  C   C2754     1.0  0.79737  0.94362  0.62225  1.0000
  C   C2755     1.0  0.96499  0.85151  0.74966  1.0000
  H   H2202     1.0  0.95650  0.84150  0.78341  1.0000
  H   H2203     1.0  0.81643  0.60697  0.83668  1.0000
  C   C2756     1.0  0.79883  0.93348  0.59896  1.0000
  C   C2757     1.0  0.74114  0.73326  0.70237  1.0000
  C   C2758     1.0  0.74998  0.66299  0.78398  1.0000
  C   C2759     1.0  0.82398  0.88659  0.78393  1.0000
  H   H2204     1.0  0.82007  0.81929  0.83867  1.0000
  H   H2205     1.0  0.89012  0.88930  0.76363  1.0000
  C   C2760     1.0  0.81168  0.54595  0.95222  1.0000
  H   H2206     1.0  0.96286  0.59307  0.75161  1.0000
  C   C2761     1.0  0.73418  0.80203  0.70828  1.0000
  H   H2207     1.0  0.74547  0.83899  0.58051  1.0000
  C   C2762     1.0  0.73721  0.89870  0.90712  1.0000
  H   H2208     1.0  0.73732  0.83488  0.90162  1.0000
  C   C2763     1.0  0.75564  0.91027  0.52520  1.0000
  H   H2209     1.0  0.89175  0.82075  0.74842  1.0000
  C   C2764     1.0  0.73566  0.97471  0.80399  1.0000
  C   C2765     1.0  0.73395  0.49862  0.82548  1.0000
  S   S378      1.0  0.82976  0.96042  0.73961  1.0000
  H   H2210     1.0  0.74641  0.90156  0.90195  1.0000
  C   C2766     1.0  0.76749  0.90559  0.58140  1.0000
  C   C2767     1.0  0.92541  0.88692  0.74322  1.0000
  H   H2211     1.0  0.85340  0.93103  0.62056  1.0000
  C   C2768     1.0  0.96960  0.93184  0.72579  1.0000
  C   C2769     1.0  0.74039  0.51833  0.84099  1.0000
  H   H2212     1.0  0.97868  0.91725  0.82181  1.0000
  P   P93       1.0  0.79923  0.87391  0.83694  1.0000
  H   H2213     1.0  0.94586  0.56789  0.81800  1.0000
  C   C2770     1.0  0.74871  0.78806  0.67757  1.0000
  H   H2214     1.0  0.83279  0.89779  0.78134  1.0000
  H   H2215     1.0  0.82981  0.82709  0.90818  1.0000
  H   H2216     1.0  0.97244  0.64512  0.69261  1.0000
  H   H2217     1.0  0.76895  0.78325  0.53393  1.0000
  H   H2218     1.0  0.79634  0.79383  0.81904  1.0000
  C   C2771     1.0  0.73817  0.49109  0.95256  1.0000
  C   C2772     1.0  0.77691  0.85824  0.53372  1.0000
  C   C2773     1.0  0.80909  0.85978  0.85931  1.0000
  H   H2219     1.0  0.96104  0.90850  0.69726  1.0000
  C   C2774     1.0  0.96825  0.53713  0.76884  1.0000
  C   C2775     1.0  0.75544  0.96815  0.87136  1.0000
  H   H2220     1.0  0.91907  0.86545  0.75022  1.0000
  H   H2221     1.0  0.93981  0.85537  0.75884  1.0000
  H   H2222     1.0  0.78051  0.74503  0.82483  1.0000
  H   H2223     1.0  0.82636  0.93396  0.65227  1.0000
  C   C2776     1.0  0.94544  0.91007  0.74018  1.0000
  C   C2777     1.0  0.73406  0.93978  0.79201  1.0000
  C   C2778     1.0  0.95838  0.60690  0.94490  1.0000
  H   H2224     1.0  0.73169  0.77749  0.78297  1.0000
  Fe  Fe188     1.0  0.73080  0.76373  0.84620  1.0000
  H   H2225     1.0  0.82252  0.87554  0.74820  1.0000
  H   H2226     1.0  0.74326  0.57469  0.85624  1.0000
  C   C2779     1.0  0.80114  0.56768  0.94874  1.0000
  C   C2780     1.0  0.92165  0.92122  0.73046  1.0000
  C   C2781     1.0  0.95465  0.95894  0.78153  1.0000
  H   H2227     1.0  0.91958  0.48177  0.90862  1.0000
  C   C2782     1.0  0.80698  0.87448  0.88134  1.0000
  C   C2783     1.0  0.96773  0.68159  0.95337  1.0000
  C   C2784     1.0  0.75389  0.69885  0.77313  1.0000
  C   C2785     1.0  0.74847  0.74690  0.68383  1.0000
  Fe  Fe189     1.0  0.78125  0.49642  0.97704  1.0000
  H   H2228     1.0  0.77420  0.92030  0.57046  1.0000
  H   H2229     1.0  0.94786  0.97086  0.77058  1.0000
  C   C2786     1.0  0.80675  0.87237  0.80900  1.0000
  C   C2787     1.0  0.96144  0.57289  0.76657  1.0000
  C   C2788     1.0  0.96170  0.82811  0.76951  1.0000
  H   H2230     1.0  0.74845  0.54975  0.89935  1.0000
  C   C2789     1.0  0.80080  0.86181  0.78989  1.0000
  H   H2231     1.0  0.78243  0.84423  0.56832  1.0000
  C   C2790     1.0  0.81685  0.57433  0.83878  1.0000
  C   C2791     1.0  0.78767  0.83807  0.84086  1.0000
  H   H2232     1.0  0.80196  0.85369  0.75346  1.0000
  H   H2233     1.0  0.79643  0.54076  0.89477  1.0000
  C   C2792     1.0  0.78068  0.85986  0.51040  1.0000
  H   H2234     1.0  0.76303  0.76007  0.85059  1.0000
  C   C2793     1.0  0.74686  0.93673  0.49024  1.0000
  C   C2794     1.0  0.96758  0.92857  0.70244  1.0000
  C   C2795     1.0  0.93725  0.88138  0.74817  1.0000
  C   C2796     1.0  0.75137  0.85999  0.58694  1.0000
  C   C2797     1.0  0.82601  0.82063  0.87284  1.0000
  C   C2798     1.0  0.95196  0.55898  0.80407  1.0000
  S   S379      1.0  0.79739  0.94561  0.55189  1.0000
  H   H2235     1.0  0.74677  0.93321  0.84801  1.0000
  H   H2236     1.0  0.90892  0.91091  0.68205  1.0000
  H   H2237     1.0  0.78737  0.58184  0.92562  1.0000
  C   C2799     1.0  0.73520  0.79381  0.52826  1.0000
  H   H2238     1.0  0.94840  0.61237  0.78276  1.0000
  C   C2800     1.0  0.82632  0.96549  0.65623  1.0000
  C   C2801     1.0  0.81852  0.83213  0.85529  1.0000
  C   C2802     1.0  0.87634  0.94838  0.66572  1.0000
  C   C2803     1.0  0.75360  0.82385  0.53623  1.0000
  C   C2804     1.0  0.77793  0.84571  0.85600  1.0000
  C   C2805     1.0  0.75164  0.90436  0.50331  1.0000
  C   C2806     1.0  0.95539  0.64126  0.93142  1.0000
  H   H2239     1.0  0.75228  0.87483  0.49617  1.0000
  H   H2240     1.0  0.73677  0.59631  0.73699  1.0000
  H   H2241     1.0  0.76268  0.70865  0.77562  1.0000
  H   H2242     1.0  0.81285  0.87445  0.91581  1.0000
  H   H2243     1.0  0.79953  0.89475  0.88502  1.0000
  S   S380      1.0  0.73645  0.62687  0.89232  1.0000
  H   H2244     1.0  0.73539  0.55300  0.77248  1.0000
  H   H2245     1.0  0.97187  0.95075  0.66772  1.0000
  H   H2246     1.0  0.96625  0.84817  0.90519  1.0000
  H   H2247     1.0  0.79691  0.58465  0.96248  1.0000
  H   H2248     1.0  0.91245  0.92606  0.72723  1.0000
  C   C2807     1.0  0.78250  0.93668  0.83189  1.0000
  H   H2249     1.0  0.75799  0.72510  0.52330  1.0000
  C   C2808     1.0  0.96199  0.92611  0.77498  1.0000
  C   C2809     1.0  0.95999  0.67847  0.93566  1.0000
  H   H2250     1.0  0.74192  0.84760  0.68523  1.0000
  C   C2810     1.0  0.73860  0.65076  0.78093  1.0000
  H   H2251     1.0  0.94959  0.63892  0.91745  1.0000
  H   H2252     1.0  0.77699  0.91478  0.82512  1.0000
  C   C2811     1.0  0.80093  0.54283  0.91048  1.0000
  C   C2812     1.0  0.97039  0.81842  0.90733  1.0000
  C   C2813     1.0  0.97494  0.75862  0.93144  1.0000
  H   H2253     1.0  0.97779  0.57695  0.67874  1.0000
  C   C2814     1.0  0.76007  0.87820  0.57237  1.0000
  C   C2815     1.0  0.78871  0.80108  0.83013  1.0000
  C   C2816     1.0  0.94812  0.50651  0.87176  1.0000
  C   C2817     1.0  0.85784  0.92135  0.65584  1.0000
  C   C2818     1.0  0.87824  0.96296  0.64289  1.0000
  C   C2819     1.0  0.91017  0.94106  0.67472  1.0000
  C   C2820     1.0  0.79553  0.96086  0.58098  1.0000
  C   C2821     1.0  0.74080  0.93249  0.77182  1.0000
  C   C2822     1.0  0.86606  0.92759  0.67208  1.0000
  C   C2823     1.0  0.87001  0.95649  0.62665  1.0000
  C   C2824     1.0  0.88766  0.91484  0.70674  1.0000
  H   H2254     1.0  0.81893  0.49063  0.80725  1.0000
  H   H2255     1.0  0.81563  0.54584  0.96868  1.0000
  H   H2256     1.0  0.75412  0.72562  0.67454  1.0000
  H   H2257     1.0  0.82475  0.50479  0.93828  1.0000
  C   C2825     1.0  0.73485  0.71091  0.75671  1.0000
  H   H2258     1.0  0.91584  0.79754  0.50695  1.0000
  C   C2826     1.0  0.88850  0.87594  0.69823  1.0000
  C   C2827     1.0  0.88994  0.84210  0.71322  1.0000
  C   C2828     1.0  0.89054  0.84688  0.73678  1.0000
  C   C2829     1.0  0.88958  0.88545  0.74537  1.0000
  C   C2830     1.0  0.88807  0.91925  0.73043  1.0000
  C   C2831     1.0  0.90085  0.96999  0.67436  1.0000
  H   H2259     1.0  0.74705  0.50179  0.85051  1.0000
  C   C2832     1.0  0.73109  0.67441  0.76723  1.0000
  H   H2260     1.0  0.80251  0.90406  0.59483  1.0000
  H   H2261     1.0  0.77711  0.87339  0.86507  1.0000
  C   C2833     1.0  0.81733  0.51345  0.86365  1.0000
  H   H2262     1.0  0.84989  0.90555  0.66092  1.0000
  H   H2263     1.0  0.83222  0.95348  0.69037  1.0000
  H   H2264     1.0  0.83750  0.53576  0.90443  1.0000
  H   H2265     1.0  0.85440  0.93922  0.74105  1.0000
  H   H2266     1.0  0.86430  0.91676  0.68972  1.0000
  C   C2834     1.0  0.96375  0.75660  0.97817  1.0000
  H   H2267     1.0  0.95488  0.57808  0.94131  1.0000
  C   C2835     1.0  0.92753  0.48834  0.89839  1.0000
  H   H2268     1.0  0.73975  0.90506  0.76295  1.0000
  C   C2836     1.0  0.75953  0.78668  0.53250  1.0000
  H   H2269     1.0  0.88821  0.87184  0.67999  1.0000
  H   H2270     1.0  0.89067  0.81215  0.70659  1.0000
  C   C2837     1.0  0.95179  0.74770  0.98045  1.0000
  C   C2838     1.0  0.81447  0.86287  0.89886  1.0000
  H   H2271     1.0  0.88741  0.94876  0.73742  1.0000
  H   H2272     1.0  0.94756  0.96777  0.72161  1.0000
  C   C2839     1.0  0.79688  0.83908  0.54366  1.0000
  C   C2840     1.0  0.75021  0.86883  0.61017  1.0000
  C   C2841     1.0  0.82401  0.83610  0.89459  1.0000
  H   H2273     1.0  0.80980  0.83675  0.51539  1.0000
  C   C2842     1.0  0.80658  0.86199  0.76816  1.0000
  H   H2274     1.0  0.73661  0.85541  0.53710  1.0000
  C   C2843     1.0  0.77984  0.77307  0.83359  1.0000
  H   H2275     1.0  0.80982  0.94693  0.85140  1.0000
  H   H2276     1.0  0.76142  0.82393  0.87064  1.0000
  C   C2844     1.0  0.74922  0.95981  0.76349  1.0000
  C   C2845     1.0  0.81817  0.87424  0.76519  1.0000
  H   H2277     1.0  0.79164  0.85401  0.79158  1.0000
  H   H2278     1.0  0.74348  0.85480  0.62134  1.0000
  H   H2279     1.0  0.81660  0.57438  0.87552  1.0000
  C   C2846     1.0  0.97048  0.64707  0.96718  1.0000
  H   H2280     1.0  0.96532  0.81214  0.94311  1.0000
  C   C2847     1.0  0.76912  0.81754  0.85952  1.0000
  H   H2281     1.0  0.95754  0.70471  0.92497  1.0000
  P   P94       1.0  0.97366  0.72991  0.95855  1.0000
  H   H2282     1.0  0.96262  0.76968  0.78725  1.0000
  C   C2848     1.0  0.73387  0.76067  0.71466  1.0000
  C   C2849     1.0  0.73042  0.93261  0.91377  1.0000
  C   C2850     1.0  0.74119  0.75712  0.52427  1.0000
  C   C2851     1.0  0.74636  0.72275  0.75954  1.0000
  H   H2283     1.0  0.74944  0.75091  0.75162  1.0000
  C   C2852     1.0  0.75490  0.94933  0.53357  1.0000
  C   C2853     1.0  0.75334  0.75351  0.52650  1.0000
  H   H2284     1.0  0.73546  0.62337  0.78955  1.0000
  H   H2285     1.0  0.74344  0.48624  0.93692  1.0000
  C   C2854     1.0  0.74157  0.81558  0.68979  1.0000
  C   C2855     1.0  0.97607  0.80045  0.88842  1.0000
  C   C2856     1.0  0.96986  0.79773  0.92882  1.0000
  H   H2286     1.0  0.75457  0.95377  0.74804  1.0000
  Fe  Fe190     1.0  0.80968  0.97021  0.73623  1.0000
  H   H2287     1.0  0.75454  0.79872  0.66346  1.0000
  C   C2857     1.0  0.72976  0.58084  0.83182  1.0000
  S   S381      1.0  0.77673  0.97789  0.72044  1.0000
  C   C2858     1.0  0.84074  0.50533  0.90138  1.0000
  C   C2859     1.0  0.80094  0.95472  0.84667  1.0000
  C   C2860     1.0  0.74136  0.82703  0.53428  1.0000
  C   C2861     1.0  0.75769  0.89600  0.61898  1.0000
  C   C2862     1.0  0.96686  0.51175  0.78868  1.0000
  H   H2288     1.0  0.90587  0.73729  0.49513  1.0000
  C   C2863     1.0  0.81163  0.52149  0.91370  1.0000
  H   H2289     1.0  0.81756  0.56536  0.80243  1.0000
  S   S382      1.0  0.77840  0.96191  0.49557  1.0000
  H   H2290     1.0  0.75680  0.90306  0.63693  1.0000
  Fe  Fe191     1.0  0.79469  0.97159  0.51481  1.0000
  C   C2864     1.0  0.73830  0.55942  0.84416  1.0000
  H   H2291     1.0  0.85846  0.51779  0.90937  1.0000
  P   P95       1.0  0.88645  0.95869  0.68728  1.0000
  S   S383      1.0  0.79475  0.96774  0.76358  1.0000
  C   C2865     1.0  0.85981  0.93579  0.63312  1.0000
  H   H2292     1.0  0.76213  0.94488  0.87470  1.0000
  Fe  Fe192     1.0  0.97714  0.64187  0.81694  1.0000
  C   C2866     1.0  0.96455  0.96130  0.81707  1.0000
  C   C2867     1.0  0.77838  0.97677  0.83294  1.0000
  H   H2293     1.0  0.73643  0.73152  0.51936  1.0000
  H   H2294     1.0  0.97475  0.53011  0.75531  1.0000
  H   H2295     1.0  0.73454  0.96143  0.91324  1.0000
  C   C2868     1.0  0.97187  0.76934  0.75404  1.0000
  H   H2296     1.0  0.97679  0.88712  0.78457  1.0000
  H   H2297     1.0  0.95746  0.50413  0.82179  1.0000
  C   C2869     1.0  0.97369  0.95234  0.68567  1.0000
  H   H2298     1.0  0.96819  0.58321  0.97335  1.0000
  C   C2870     1.0  0.97181  0.83328  0.73199  1.0000
  C   C2871     1.0  0.81751  0.55089  0.81949  1.0000
  H   H2299     1.0  0.97627  0.81605  0.87165  1.0000
  C   C2872     1.0  0.81825  0.50881  0.82220  1.0000
  C   C2873     1.0  0.85273  0.96451  0.75189  1.0000
  C   C2874     1.0  0.95593  0.97639  0.80252  1.0000
  H   H2300     1.0  0.72943  0.90748  0.85990  1.0000
  S   S384      1.0  0.97871  0.60269  0.84943  1.0000
  P   P96       1.0  0.81774  0.48907  0.89188  1.0000
  C   C2875     1.0  0.82958  0.97651  0.67769  1.0000
  C   C2876     1.0  0.73211  0.86109  0.90700  1.0000
  H   H2301     1.0  0.96537  0.97435  0.83352  1.0000
  H   H2302     1.0  0.97459  0.85050  0.71657  1.0000
  H   H2303     1.0  0.97454  0.73766  0.75587  1.0000
  C   C2877     1.0  0.74628  0.97549  0.49862  1.0000
  C   C2878     1.0  0.81825  0.49013  0.84420  1.0000
  C   C2879     1.0  0.97802  0.95856  0.73201  1.0000
  H   H2304     1.0  0.92673  0.97720  0.71319  1.0000
  C   C2880     1.0  0.72955  0.57608  0.73995  1.0000
